MODEL        1
REMARK 921   NORMALIZED FREE ENERGY PREDICTED BY IDOCK:   -7.33 KCAL/MOL
REMARK 922        TOTAL FREE ENERGY PREDICTED BY IDOCK:  -10.90 KCAL/MOL
REMARK 923 INTER-LIGAND FREE ENERGY PREDICTED BY IDOCK:   -9.90 KCAL/MOL
REMARK 924 INTRA-LIGAND FREE ENERGY PREDICTED BY IDOCK:   -1.01 KCAL/MOL
REMARK 927      BINDING AFFINITY PREDICTED BY RF-SCORE:    0.00 PKD
ROOT
HETATM    1  C   UNL     1     -13.416  13.617  72.620  1.00  0.00    -0.608 C  
HETATM    2  C   UNL     1     -12.996  15.039  72.838  1.00  0.00    -0.463 C  
HETATM    3  O   UNL     1     -13.675  15.875  73.415  1.00  0.00    -0.459 OA 
ENDROOT
BRANCH   2   4
HETATM    4  O   UNL     1     -11.779  15.265  72.272  1.00  0.00    -0.402 OA 
BRANCH   4   5
HETATM    5  C   UNL     1     -11.752  16.269  71.243  1.00  0.00    -0.343 C  
HETATM    6  C   UNL     1     -10.795  15.889  70.095  1.00  0.00    -0.359 C  
HETATM    7  C   UNL     1     -10.728  17.075  69.107  1.00  0.00    -0.253 C  
HETATM    8  C   UNL     1     -11.236  14.551  69.451  1.00  0.00    -0.312 C  
BRANCH   7   9
HETATM    9  O   UNL     1      -9.846  16.847  67.997  1.00  0.00    -0.251 OA 
BRANCH   9  10
HETATM   10  C   UNL     1      -9.826  17.787  67.016  1.00  0.00    -0.309 C  
HETATM   11  O   UNL     1      -9.328  17.643  65.911  1.00  0.00    -0.520 OA 
HETATM   12  C   UNL     1     -10.567  19.020  67.449  1.00  0.00    -0.559 C  
ENDBRANCH   9  10
ENDBRANCH   7   9
BRANCH   8  13
HETATM   13  C   UNL     1     -10.283  14.029  68.374  1.00  0.00    -0.239 C  
BRANCH  13  14
HETATM   14  N   UNL     1     -10.934  13.189  67.394  1.00  0.00    -0.259 NA 
HETATM   15  C   UNL     1     -11.100  11.833  67.469  1.00  0.00    -0.272 A  
HETATM   16  N   UNL     1     -11.657  11.352  66.375  1.00  0.00    -0.325 NA 
HETATM   17  C   UNL     1     -11.816  12.442  65.552  1.00  0.00    -0.412 A  
HETATM   18  C   UNL     1     -12.312  12.600  64.266  1.00  0.00    -0.435 A  
HETATM   19  N   UNL     1     -12.306  13.833  63.693  1.00  0.00    -0.729 NA 
HETATM   20  C   UNL     1     -11.809  14.869  64.392  1.00  0.00    -0.360 A  
HETATM   21  N   UNL     1     -11.344  14.839  65.650  1.00  0.00    -0.345 NA 
HETATM   22  N   UNL     1     -11.804  16.092  63.752  1.00  0.00    -1.368 NA 
HETATM   23  H2  UNL     1     -12.745  16.315  63.427  1.00  0.00     0.000 HD 
HETATM   24  H1  UNL     1     -11.427  16.878  64.281  1.00  0.00     0.000 HD 
HETATM   25  C   UNL     1     -11.368  13.598  66.164  1.00  0.00    -0.312 A  
ENDBRANCH  13  14
ENDBRANCH   8  13
ENDBRANCH   4   5
ENDBRANCH   2   4
TORSDOF 6
ENDMDL
MODEL        2
REMARK 921   NORMALIZED FREE ENERGY PREDICTED BY IDOCK:   -6.99 KCAL/MOL
REMARK 922        TOTAL FREE ENERGY PREDICTED BY IDOCK:  -10.45 KCAL/MOL
REMARK 923 INTER-LIGAND FREE ENERGY PREDICTED BY IDOCK:   -9.68 KCAL/MOL
REMARK 924 INTRA-LIGAND FREE ENERGY PREDICTED BY IDOCK:   -0.77 KCAL/MOL
REMARK 927      BINDING AFFINITY PREDICTED BY RF-SCORE:    0.00 PKD
ROOT
HETATM    1  C   UNL     1     -12.527  12.283  63.588  1.00  0.00    -0.647 C  
HETATM    2  C   UNL     1     -12.113  13.555  64.266  1.00  0.00    -0.431 C  
HETATM    3  O   UNL     1     -12.582  14.654  64.008  1.00  0.00    -0.819 OA 
ENDROOT
BRANCH   2   4
HETATM    4  O   UNL     1     -11.127  13.310  65.171  1.00  0.00    -0.288 OA 
BRANCH   4   5
HETATM    5  C   UNL     1     -11.086  14.202  66.298  1.00  0.00    -0.318 C  
HETATM    6  C   UNL     1     -11.862  13.639  67.506  1.00  0.00    -0.416 C  
HETATM    7  C   UNL     1     -11.877  14.712  68.617  1.00  0.00    -0.311 C  
HETATM    8  C   UNL     1     -11.259  12.281  67.945  1.00  0.00    -0.328 C  
BRANCH   7   9
HETATM    9  O   UNL     1     -12.594  14.310  69.794  1.00  0.00    -0.287 OA 
BRANCH   9  10
HETATM   10  C   UNL     1     -12.833  15.263  70.732  1.00  0.00    -0.437 C  
HETATM   11  O   UNL     1     -13.937  15.597  71.132  1.00  0.00    -0.564 OA 
HETATM   12  C   UNL     1     -11.543  15.813  71.269  1.00  0.00    -0.499 C  
ENDBRANCH   9  10
ENDBRANCH   7   9
BRANCH   8  13
HETATM   13  C   UNL     1     -12.031  11.584  69.066  1.00  0.00    -0.311 C  
BRANCH  13  14
HETATM   14  N   UNL     1     -11.221  10.664  69.832  1.00  0.00    -0.288 NA 
HETATM   15  C   UNL     1      -9.937  10.284  69.551  1.00  0.00    -0.228 A  
HETATM   16  N   UNL     1      -9.507   9.366  70.394  1.00  0.00    -0.251 NA 
HETATM   17  C   UNL     1     -10.577   9.122  71.224  1.00  0.00    -0.329 A  
HETATM   18  C   UNL     1     -10.778   8.254  72.288  1.00  0.00    -0.329 A  
HETATM   19  N   UNL     1     -11.991   8.218  72.901  1.00  0.00    -0.239 NA 
HETATM   20  C   UNL     1     -12.969   9.025  72.451  1.00  0.00    -0.405 A  
HETATM   21  N   UNL     1     -12.873   9.927  71.463  1.00  0.00    -0.386 NA 
HETATM   22  N   UNL     1     -14.186   8.928  73.095  1.00  0.00    -1.200 NA 
HETATM   23  H2  UNL     1     -14.058   9.068  74.097  1.00  0.00     0.000 HD 
HETATM   24  H1  UNL     1     -14.928   9.539  72.754  1.00  0.00     0.000 HD 
HETATM   25  C   UNL     1     -11.658   9.916  70.888  1.00  0.00    -0.373 A  
ENDBRANCH  13  14
ENDBRANCH   8  13
ENDBRANCH   4   5
ENDBRANCH   2   4
TORSDOF 6
ENDMDL
MODEL        3
REMARK 921   NORMALIZED FREE ENERGY PREDICTED BY IDOCK:   -6.83 KCAL/MOL
REMARK 922        TOTAL FREE ENERGY PREDICTED BY IDOCK:  -10.24 KCAL/MOL
REMARK 923 INTER-LIGAND FREE ENERGY PREDICTED BY IDOCK:   -9.48 KCAL/MOL
REMARK 924 INTRA-LIGAND FREE ENERGY PREDICTED BY IDOCK:   -0.76 KCAL/MOL
REMARK 927      BINDING AFFINITY PREDICTED BY RF-SCORE:    0.00 PKD
ROOT
HETATM    1  C   UNL     1     -13.631  15.430  71.653  1.00  0.00    -0.603 C  
HETATM    2  C   UNL     1     -12.193  15.808  71.844  1.00  0.00    -0.459 C  
HETATM    3  O   UNL     1     -11.789  16.543  72.734  1.00  0.00    -0.539 OA 
ENDROOT
BRANCH   2   4
HETATM    4  O   UNL     1     -11.423  15.249  70.871  1.00  0.00    -0.287 OA 
BRANCH   4   5
HETATM    5  C   UNL     1     -11.969  15.304  69.542  1.00  0.00    -0.330 C  
HETATM    6  C   UNL     1     -11.651  14.027  68.737  1.00  0.00    -0.366 C  
HETATM    7  C   UNL     1     -12.156  14.226  67.291  1.00  0.00    -0.355 C  
HETATM    8  C   UNL     1     -12.241  12.784  69.450  1.00  0.00    -0.131 C  
BRANCH   7   9
HETATM    9  O   UNL     1     -11.897  13.104  66.433  1.00  0.00    -0.363 OA 
BRANCH   9  10
HETATM   10  C   UNL     1     -12.366  13.175  65.160  1.00  0.00    -0.473 C  
HETATM   11  O   UNL     1     -13.101  12.354  64.633  1.00  0.00    -0.825 OA 
HETATM   12  C   UNL     1     -11.912  14.444  64.498  1.00  0.00    -0.487 C  
ENDBRANCH   9  10
ENDBRANCH   7   9
BRANCH   8  13
HETATM   13  C   UNL     1     -11.882  11.453  68.788  1.00  0.00    -0.323 C  
BRANCH  13  14
HETATM   14  N   UNL     1     -11.096  10.586  69.638  1.00  0.00    -0.263 NA 
HETATM   15  C   UNL     1      -9.800  10.202  69.429  1.00  0.00    -0.229 A  
HETATM   16  N   UNL     1      -9.397   9.339  70.341  1.00  0.00    -0.231 NA 
HETATM   17  C   UNL     1     -10.497   9.135  71.142  1.00  0.00    -0.315 A  
HETATM   18  C   UNL     1     -10.733   8.330  72.248  1.00  0.00    -0.329 A  
HETATM   19  N   UNL     1     -11.968   8.320  72.815  1.00  0.00    -0.305 NA 
HETATM   20  C   UNL     1     -12.933   9.091  72.282  1.00  0.00    -0.424 A  
HETATM   21  N   UNL     1     -12.805   9.933  71.246  1.00  0.00    -0.363 NA 
HETATM   22  N   UNL     1     -14.173   9.021  72.883  1.00  0.00    -1.127 NA 
HETATM   23  H2  UNL     1     -14.085   9.221  73.879  1.00  0.00     0.000 HD 
HETATM   24  H1  UNL     1     -14.906   9.605  72.478  1.00  0.00     0.000 HD 
HETATM   25  C   UNL     1     -11.569   9.899  70.720  1.00  0.00    -0.349 A  
ENDBRANCH  13  14
ENDBRANCH   8  13
ENDBRANCH   4   5
ENDBRANCH   2   4
TORSDOF 6
ENDMDL
MODEL        4
REMARK 921   NORMALIZED FREE ENERGY PREDICTED BY IDOCK:   -6.80 KCAL/MOL
REMARK 922        TOTAL FREE ENERGY PREDICTED BY IDOCK:  -10.20 KCAL/MOL
REMARK 923 INTER-LIGAND FREE ENERGY PREDICTED BY IDOCK:   -9.17 KCAL/MOL
REMARK 924 INTRA-LIGAND FREE ENERGY PREDICTED BY IDOCK:   -1.03 KCAL/MOL
REMARK 927      BINDING AFFINITY PREDICTED BY RF-SCORE:    0.00 PKD
ROOT
HETATM    1  C   UNL     1     -10.698  19.242  67.032  1.00  0.00    -0.565 C  
HETATM    2  C   UNL     1     -10.395  17.869  66.512  1.00  0.00    -0.362 C  
HETATM    3  O   UNL     1     -10.718  17.468  65.403  1.00  0.00    -0.612 OA 
ENDROOT
BRANCH   2   4
HETATM    4  O   UNL     1      -9.750  17.135  67.460  1.00  0.00    -0.248 OA 
BRANCH   4   5
HETATM    5  C   UNL     1     -10.378  17.106  68.753  1.00  0.00    -0.353 C  
HETATM    6  C   UNL     1     -11.373  15.935  68.883  1.00  0.00    -0.377 C  
HETATM    7  C   UNL     1     -12.092  16.059  70.245  1.00  0.00    -0.157 C  
HETATM    8  C   UNL     1     -10.644  14.585  68.671  1.00  0.00    -0.255 C  
BRANCH   7   9
HETATM    9  O   UNL     1     -13.067  15.029  70.475  1.00  0.00    -0.336 OA 
BRANCH   9  10
HETATM   10  C   UNL     1     -13.560  14.911  71.735  1.00  0.00    -0.408 C  
HETATM   11  O   UNL     1     -14.057  15.816  72.385  1.00  0.00    -0.528 OA 
HETATM   12  C   UNL     1     -13.473  13.487  72.206  1.00  0.00    -0.669 C  
ENDBRANCH   9  10
ENDBRANCH   7   9
BRANCH   8  13
HETATM   13  C   UNL     1     -11.568  13.367  68.667  1.00  0.00    -0.327 C  
BRANCH  13  14
HETATM   14  N   UNL     1     -11.414  12.535  67.495  1.00  0.00    -0.315 NA 
HETATM   15  C   UNL     1     -10.897  11.270  67.459  1.00  0.00    -0.245 A  
HETATM   16  N   UNL     1     -10.813  10.815  66.224  1.00  0.00    -0.134 NA 
HETATM   17  C   UNL     1     -11.258  11.851  65.437  1.00  0.00    -0.295 A  
HETATM   18  C   UNL     1     -11.389  12.016  64.065  1.00  0.00    -0.403 A  
HETATM   19  N   UNL     1     -11.838  13.201  63.574  1.00  0.00    -0.503 NA 
HETATM   20  C   UNL     1     -12.138  14.188  64.438  1.00  0.00    -0.463 A  
HETATM   21  N   UNL     1     -12.089  14.125  65.777  1.00  0.00    -0.404 NA 
HETATM   22  N   UNL     1     -12.564  15.378  63.882  1.00  0.00    -0.840 NA 
HETATM   23  H2  UNL     1     -13.359  15.205  63.267  1.00  0.00     0.000 HD 
HETATM   24  H1  UNL     1     -12.792  16.126  64.537  1.00  0.00     0.000 HD 
HETATM   25  C   UNL     1     -11.634  12.936  66.207  1.00  0.00    -0.372 A  
ENDBRANCH  13  14
ENDBRANCH   8  13
ENDBRANCH   4   5
ENDBRANCH   2   4
TORSDOF 6
ENDMDL
MODEL        5
REMARK 921   NORMALIZED FREE ENERGY PREDICTED BY IDOCK:   -6.67 KCAL/MOL
REMARK 922        TOTAL FREE ENERGY PREDICTED BY IDOCK:  -10.01 KCAL/MOL
REMARK 923 INTER-LIGAND FREE ENERGY PREDICTED BY IDOCK:   -9.32 KCAL/MOL
REMARK 924 INTRA-LIGAND FREE ENERGY PREDICTED BY IDOCK:   -0.69 KCAL/MOL
REMARK 927      BINDING AFFINITY PREDICTED BY RF-SCORE:    0.00 PKD
ROOT
HETATM    1  C   UNL     1     -12.187  12.870  63.491  1.00  0.00    -0.595 C  
HETATM    2  C   UNL     1     -12.009  14.236  64.082  1.00  0.00    -0.373 C  
HETATM    3  O   UNL     1     -12.768  15.174  63.886  1.00  0.00    -0.759 OA 
ENDROOT
BRANCH   2   4
HETATM    4  O   UNL     1     -10.872  14.285  64.829  1.00  0.00    -0.390 OA 
BRANCH   4   5
HETATM    5  C   UNL     1     -10.369  15.603  65.106  1.00  0.00    -0.334 C  
HETATM    6  C   UNL     1     -10.846  16.123  66.478  1.00  0.00    -0.139 C  
HETATM    7  C   UNL     1     -10.372  17.585  66.634  1.00  0.00    -0.319 C  
HETATM    8  C   UNL     1     -10.365  15.177  67.606  1.00  0.00    -0.248 C  
BRANCH   7   9
HETATM    9  O   UNL     1     -10.776  18.190  67.872  1.00  0.00    -0.396 OA 
BRANCH   9  10
HETATM   10  C   UNL     1     -10.130  19.325  68.249  1.00  0.00    -0.425 C  
HETATM   11  O   UNL     1      -9.740  19.571  69.379  1.00  0.00    -0.341 OA 
HETATM   12  C   UNL     1      -9.896  20.219  67.065  1.00  0.00    -0.607 C  
ENDBRANCH   9  10
ENDBRANCH   7   9
BRANCH   8  13
HETATM   13  C   UNL     1     -10.884  15.545  68.997  1.00  0.00    -0.249 C  
BRANCH  13  14
HETATM   14  N   UNL     1     -11.522  14.442  69.680  1.00  0.00    -0.271 NA 
HETATM   15  C   UNL     1     -11.676  13.170  69.201  1.00  0.00    -0.325 A  
HETATM   16  N   UNL     1     -12.376  12.421  70.030  1.00  0.00    -0.149 NA 
HETATM   17  C   UNL     1     -12.717  13.264  71.063  1.00  0.00    -0.293 A  
HETATM   18  C   UNL     1     -13.464  13.097  72.220  1.00  0.00    -0.568 A  
HETATM   19  N   UNL     1     -13.658  14.157  73.049  1.00  0.00    -0.584 NA 
HETATM   20  C   UNL     1     -13.122  15.346  72.717  1.00  0.00    -0.466 A  
HETATM   21  N   UNL     1     -12.353  15.609  71.650  1.00  0.00    -0.391 NA 
HETATM   22  N   UNL     1     -13.373  16.392  73.581  1.00  0.00    -0.762 NA 
HETATM   23  H2  UNL     1     -13.084  16.136  74.525  1.00  0.00     0.000 HD 
HETATM   24  H1  UNL     1     -12.967  17.294  73.330  1.00  0.00     0.000 HD 
HETATM   25  C   UNL     1     -12.199  14.530  70.863  1.00  0.00    -0.339 A  
ENDBRANCH  13  14
ENDBRANCH   8  13
ENDBRANCH   4   5
ENDBRANCH   2   4
TORSDOF 6
ENDMDL
MODEL        6
REMARK 921   NORMALIZED FREE ENERGY PREDICTED BY IDOCK:   -6.54 KCAL/MOL
REMARK 922        TOTAL FREE ENERGY PREDICTED BY IDOCK:   -9.84 KCAL/MOL
REMARK 923 INTER-LIGAND FREE ENERGY PREDICTED BY IDOCK:   -8.89 KCAL/MOL
REMARK 924 INTRA-LIGAND FREE ENERGY PREDICTED BY IDOCK:   -0.96 KCAL/MOL
REMARK 927      BINDING AFFINITY PREDICTED BY RF-SCORE:    0.00 PKD
ROOT
HETATM    1  C   UNL     1     -13.992  15.703  72.630  1.00  0.00    -0.608 C  
HETATM    2  C   UNL     1     -13.322  14.392  72.351  1.00  0.00    -0.455 C  
HETATM    3  O   UNL     1     -13.825  13.301  72.579  1.00  0.00    -0.668 OA 
ENDROOT
BRANCH   2   4
HETATM    4  O   UNL     1     -12.073  14.594  71.849  1.00  0.00    -0.345 OA 
BRANCH   4   5
HETATM    5  C   UNL     1     -11.959  15.652  70.882  1.00  0.00    -0.397 C  
HETATM    6  C   UNL     1     -11.070  15.246  69.689  1.00  0.00    -0.284 C  
HETATM    7  C   UNL     1     -10.897  16.477  68.772  1.00  0.00    -0.342 C  
HETATM    8  C   UNL     1     -11.662  14.004  68.977  1.00  0.00    -0.368 C  
BRANCH   7   9
HETATM    9  O   UNL     1     -10.064  16.229  67.628  1.00  0.00    -0.250 OA 
BRANCH   9  10
HETATM   10  C   UNL     1     -10.261  17.011  66.535  1.00  0.00    -0.320 C  
HETATM   11  O   UNL     1     -10.322  16.611  65.383  1.00  0.00    -0.584 OA 
HETATM   12  C   UNL     1     -10.463  18.444  66.939  1.00  0.00    -0.419 C  
ENDBRANCH   9  10
ENDBRANCH   7   9
BRANCH   8  13
HETATM   13  C   UNL     1     -10.790  13.454  67.847  1.00  0.00    -0.247 C  
BRANCH  13  14
HETATM   14  N   UNL     1     -11.449  13.462  66.561  1.00  0.00    -0.327 NA 
HETATM   15  C   UNL     1     -12.565  14.178  66.224  1.00  0.00    -0.260 A  
HETATM   16  N   UNL     1     -12.967  13.902  64.999  1.00  0.00    -0.752 NA 
HETATM   17  C   UNL     1     -12.093  12.940  64.550  1.00  0.00    -0.413 A  
HETATM   18  C   UNL     1     -11.992  12.223  63.367  1.00  0.00    -0.494 A  
HETATM   19  N   UNL     1     -11.014  11.289  63.232  1.00  0.00    -0.209 NA 
HETATM   20  C   UNL     1     -10.171  11.081  64.259  1.00  0.00    -0.352 A  
HETATM   21  N   UNL     1     -10.151  11.741  65.427  1.00  0.00    -0.246 NA 
HETATM   22  N   UNL     1      -9.213  10.104  64.077  1.00  0.00    -0.253 NA 
HETATM   23  H2  UNL     1      -8.681  10.297  63.228  1.00  0.00     0.000 HD 
HETATM   24  H1  UNL     1      -8.574   9.945  64.855  1.00  0.00     0.000 HD 
HETATM   25  C   UNL     1     -11.141  12.646  65.509  1.00  0.00    -0.294 A  
ENDBRANCH  13  14
ENDBRANCH   8  13
ENDBRANCH   4   5
ENDBRANCH   2   4
TORSDOF 6
ENDMDL
MODEL        7
REMARK 921   NORMALIZED FREE ENERGY PREDICTED BY IDOCK:   -6.49 KCAL/MOL
REMARK 922        TOTAL FREE ENERGY PREDICTED BY IDOCK:   -9.78 KCAL/MOL
REMARK 923 INTER-LIGAND FREE ENERGY PREDICTED BY IDOCK:   -9.00 KCAL/MOL
REMARK 924 INTRA-LIGAND FREE ENERGY PREDICTED BY IDOCK:   -0.78 KCAL/MOL
REMARK 927      BINDING AFFINITY PREDICTED BY RF-SCORE:    0.00 PKD
ROOT
HETATM    1  C   UNL     1     -11.981  15.968  72.217  1.00  0.00    -0.633 C  
HETATM    2  C   UNL     1     -12.323  14.747  71.418  1.00  0.00    -0.337 C  
HETATM    3  O   UNL     1     -13.027  13.835  71.826  1.00  0.00    -0.334 OA 
ENDROOT
BRANCH   2   4
HETATM    4  O   UNL     1     -11.712  14.789  70.202  1.00  0.00    -0.270 OA 
BRANCH   4   5
HETATM    5  C   UNL     1     -11.840  13.600  69.403  1.00  0.00    -0.339 C  
HETATM    6  C   UNL     1     -11.418  13.843  67.940  1.00  0.00    -0.350 C  
HETATM    7  C   UNL     1     -11.711  12.560  67.132  1.00  0.00    -0.355 C  
HETATM    8  C   UNL     1      -9.941  14.308  67.878  1.00  0.00    -0.230 C  
BRANCH   7   9
HETATM    9  O   UNL     1     -11.377  12.670  65.739  1.00  0.00    -0.305 OA 
BRANCH   9  10
HETATM   10  C   UNL     1     -12.396  12.908  64.873  1.00  0.00    -0.475 C  
HETATM   11  O   UNL     1     -13.393  13.568  65.122  1.00  0.00    -0.655 OA 
HETATM   12  C   UNL     1     -12.102  12.302  63.530  1.00  0.00    -0.649 C  
ENDBRANCH   9  10
ENDBRANCH   7   9
BRANCH   8  13
HETATM   13  C   UNL     1      -9.461  14.685  66.477  1.00  0.00    -0.297 C  
BRANCH  13  14
HETATM   14  N   UNL     1     -10.057  15.903  65.976  1.00  0.00    -0.313 NA 
HETATM   15  C   UNL     1     -10.794  16.035  64.831  1.00  0.00    -0.372 A  
HETATM   16  N   UNL     1     -11.124  17.292  64.609  1.00  0.00    -0.959 NA 
HETATM   17  C   UNL     1     -10.538  17.996  65.636  1.00  0.00    -0.099 A  
HETATM   18  C   UNL     1     -10.485  19.345  65.956  1.00  0.00    -0.505 A  
HETATM   19  N   UNL     1      -9.778  19.746  67.046  1.00  0.00    -0.355 NA 
HETATM   20  C   UNL     1      -9.140  18.818  67.781  1.00  0.00    -0.286 A  
HETATM   21  N   UNL     1      -9.156  17.491  67.588  1.00  0.00    -0.241 NA 
HETATM   22  N   UNL     1      -8.416  19.284  68.860  1.00  0.00    -0.343 NA 
HETATM   23  H2  UNL     1      -9.018  19.847  69.462  1.00  0.00     0.000 HD 
HETATM   24  H1  UNL     1      -7.931  18.581  69.418  1.00  0.00     0.000 HD 
HETATM   25  C   UNL     1      -9.863  17.151  66.497  1.00  0.00    -0.296 A  
ENDBRANCH  13  14
ENDBRANCH   8  13
ENDBRANCH   4   5
ENDBRANCH   2   4
TORSDOF 6
ENDMDL
MODEL        8
REMARK 921   NORMALIZED FREE ENERGY PREDICTED BY IDOCK:   -6.49 KCAL/MOL
REMARK 922        TOTAL FREE ENERGY PREDICTED BY IDOCK:   -9.77 KCAL/MOL
REMARK 923 INTER-LIGAND FREE ENERGY PREDICTED BY IDOCK:   -8.76 KCAL/MOL
REMARK 924 INTRA-LIGAND FREE ENERGY PREDICTED BY IDOCK:   -1.02 KCAL/MOL
REMARK 927      BINDING AFFINITY PREDICTED BY RF-SCORE:    0.00 PKD
ROOT
HETATM    1  C   UNL     1     -13.177  11.742  71.726  1.00  0.00    -0.434 C  
HETATM    2  C   UNL     1     -13.306  13.215  71.973  1.00  0.00    -0.493 C  
HETATM    3  O   UNL     1     -14.283  13.743  72.483  1.00  0.00    -0.706 OA 
ENDROOT
BRANCH   2   4
HETATM    4  O   UNL     1     -12.203  13.870  71.517  1.00  0.00    -0.293 OA 
BRANCH   4   5
HETATM    5  C   UNL     1     -12.431  14.782  70.429  1.00  0.00    -0.349 C  
HETATM    6  C   UNL     1     -11.250  14.798  69.437  1.00  0.00    -0.308 C  
HETATM    7  C   UNL     1     -11.519  15.892  68.380  1.00  0.00    -0.348 C  
HETATM    8  C   UNL     1     -11.028  13.384  68.843  1.00  0.00    -0.284 C  
BRANCH   7   9
HETATM    9  O   UNL     1     -10.471  16.019  67.406  1.00  0.00    -0.296 OA 
BRANCH   9  10
HETATM   10  C   UNL     1     -10.566  17.047  66.523  1.00  0.00    -0.172 C  
HETATM   11  O   UNL     1     -10.667  16.929  65.312  1.00  0.00    -0.599 OA 
HETATM   12  C   UNL     1     -10.597  18.364  67.244  1.00  0.00    -0.435 C  
ENDBRANCH   9  10
ENDBRANCH   7   9
BRANCH   8  13
HETATM   13  C   UNL     1      -9.805  13.271  67.932  1.00  0.00    -0.234 C  
BRANCH  13  14
HETATM   14  N   UNL     1     -10.001  12.364  66.824  1.00  0.00    -0.221 NA 
HETATM   15  C   UNL     1      -9.449  11.120  66.684  1.00  0.00    -0.183 A  
HETATM   16  N   UNL     1      -9.754  10.581  65.521  1.00  0.00    -0.223 NA 
HETATM   17  C   UNL     1     -10.500  11.539  64.874  1.00  0.00    -0.291 A  
HETATM   18  C   UNL     1     -11.091  11.600  63.620  1.00  0.00    -0.425 A  
HETATM   19  N   UNL     1     -11.750  12.729  63.246  1.00  0.00    -0.481 NA 
HETATM   20  C   UNL     1     -11.805  13.762  64.105  1.00  0.00    -0.401 A  
HETATM   21  N   UNL     1     -11.308  13.797  65.350  1.00  0.00    -0.304 NA 
HETATM   22  N   UNL     1     -12.465  14.891  63.662  1.00  0.00    -1.008 NA 
HETATM   23  H2  UNL     1     -13.407  14.644  63.361  1.00  0.00     0.000 HD 
HETATM   24  H1  UNL     1     -12.506  15.675  64.313  1.00  0.00     0.000 HD 
HETATM   25  C   UNL     1     -10.662  12.661  65.666  1.00  0.00    -0.269 A  
ENDBRANCH  13  14
ENDBRANCH   8  13
ENDBRANCH   4   5
ENDBRANCH   2   4
TORSDOF 6
ENDMDL
MODEL        9
REMARK 921   NORMALIZED FREE ENERGY PREDICTED BY IDOCK:   -6.49 KCAL/MOL
REMARK 922        TOTAL FREE ENERGY PREDICTED BY IDOCK:   -9.77 KCAL/MOL
REMARK 923 INTER-LIGAND FREE ENERGY PREDICTED BY IDOCK:   -8.78 KCAL/MOL
REMARK 924 INTRA-LIGAND FREE ENERGY PREDICTED BY IDOCK:   -1.00 KCAL/MOL
REMARK 927      BINDING AFFINITY PREDICTED BY RF-SCORE:    0.00 PKD
ROOT
HETATM    1  C   UNL     1     -13.145  10.945  71.753  1.00  0.00    -0.564 C  
HETATM    2  C   UNL     1     -12.937  12.428  71.690  1.00  0.00    -0.305 C  
HETATM    3  O   UNL     1     -13.462  13.228  72.451  1.00  0.00    -0.549 OA 
ENDROOT
BRANCH   2   4
HETATM    4  O   UNL     1     -12.117  12.748  70.652  1.00  0.00    -0.353 OA 
BRANCH   4   5
HETATM    5  C   UNL     1     -12.218  11.895  69.498  1.00  0.00    -0.136 C  
HETATM    6  C   UNL     1     -11.467  12.479  68.284  1.00  0.00    -0.355 C  
HETATM    7  C   UNL     1     -11.737  11.571  67.064  1.00  0.00    -0.005 C  
HETATM    8  C   UNL     1      -9.966  12.661  68.620  1.00  0.00    -0.106 C  
BRANCH   7   9
HETATM    9  O   UNL     1     -11.103  12.026  65.859  1.00  0.00    -0.301 OA 
BRANCH   9  10
HETATM   10  C   UNL     1     -11.910  12.315  64.804  1.00  0.00    -0.364 C  
HETATM   11  O   UNL     1     -13.093  12.607  64.881  1.00  0.00    -0.850 OA 
HETATM   12  C   UNL     1     -11.131  12.293  63.520  1.00  0.00    -0.533 C  
ENDBRANCH   9  10
ENDBRANCH   7   9
BRANCH   8  13
HETATM   13  C   UNL     1      -9.155  13.342  67.516  1.00  0.00    -0.215 C  
BRANCH  13  14
HETATM   14  N   UNL     1      -9.130  14.783  67.631  1.00  0.00    -0.181 NA 
HETATM   15  C   UNL     1      -8.643  15.505  68.686  1.00  0.00    -0.179 A  
HETATM   16  N   UNL     1      -8.843  16.798  68.522  1.00  0.00    -0.240 NA 
HETATM   17  C   UNL     1      -9.522  16.901  67.330  1.00  0.00    -0.238 A  
HETATM   18  C   UNL     1     -10.042  17.973  66.620  1.00  0.00    -0.372 A  
HETATM   19  N   UNL     1     -10.710  17.745  65.458  1.00  0.00    -0.546 NA 
HETATM   20  C   UNL     1     -10.855  16.477  65.032  1.00  0.00    -0.229 A  
HETATM   21  N   UNL     1     -10.361  15.374  65.614  1.00  0.00    -0.342 NA 
HETATM   22  N   UNL     1     -11.564  16.303  63.861  1.00  0.00    -1.573 NA 
HETATM   23  H2  UNL     1     -11.151  16.870  63.121  1.00  0.00     0.000 HD 
HETATM   24  H1  UNL     1     -11.674  15.342  63.537  1.00  0.00     0.000 HD 
HETATM   25  C   UNL     1      -9.716  15.656  66.759  1.00  0.00    -0.241 A  
ENDBRANCH  13  14
ENDBRANCH   8  13
ENDBRANCH   4   5
ENDBRANCH   2   4
TORSDOF 6
ENDMDL
MODEL       10
REMARK 921   NORMALIZED FREE ENERGY PREDICTED BY IDOCK:   -6.41 KCAL/MOL
REMARK 922        TOTAL FREE ENERGY PREDICTED BY IDOCK:   -9.67 KCAL/MOL
REMARK 923 INTER-LIGAND FREE ENERGY PREDICTED BY IDOCK:   -8.92 KCAL/MOL
REMARK 924 INTRA-LIGAND FREE ENERGY PREDICTED BY IDOCK:   -0.75 KCAL/MOL
REMARK 927      BINDING AFFINITY PREDICTED BY RF-SCORE:    0.00 PKD
ROOT
HETATM    1  C   UNL     1     -10.750   8.409  71.764  1.00  0.00    -0.355 C  
HETATM    2  C   UNL     1     -11.976   9.214  71.453  1.00  0.00    -0.339 C  
HETATM    3  O   UNL     1     -13.120   8.807  71.599  1.00  0.00    -0.330 OA 
ENDROOT
BRANCH   2   4
HETATM    4  O   UNL     1     -11.630  10.433  70.958  1.00  0.00    -0.346 OA 
BRANCH   4   5
HETATM    5  C   UNL     1     -11.237  10.450  69.574  1.00  0.00    -0.269 C  
HETATM    6  C   UNL     1     -11.881  11.623  68.808  1.00  0.00    -0.387 C  
HETATM    7  C   UNL     1     -11.513  11.487  67.314  1.00  0.00    -0.263 C  
HETATM    8  C   UNL     1     -11.465  12.972  69.444  1.00  0.00    -0.323 C  
BRANCH   7   9
HETATM    9  O   UNL     1     -12.077  12.517  66.488  1.00  0.00    -0.572 OA 
BRANCH   9  10
HETATM   10  C   UNL     1     -12.067  12.311  65.145  1.00  0.00    -0.316 C  
HETATM   11  O   UNL     1     -13.009  12.510  64.394  1.00  0.00    -0.748 OA 
HETATM   12  C   UNL     1     -10.707  11.866  64.688  1.00  0.00    -0.356 C  
ENDBRANCH   9  10
ENDBRANCH   7   9
BRANCH   8  13
HETATM   13  C   UNL     1     -12.144  14.194  68.824  1.00  0.00    -0.291 C  
BRANCH  13  14
HETATM   14  N   UNL     1     -11.263  15.332  68.689  1.00  0.00    -0.279 NA 
HETATM   15  C   UNL     1     -10.672  16.027  69.708  1.00  0.00    -0.331 A  
HETATM   16  N   UNL     1      -9.994  17.064  69.258  1.00  0.00    -0.216 NA 
HETATM   17  C   UNL     1     -10.194  17.052  67.897  1.00  0.00    -0.317 A  
HETATM   18  C   UNL     1      -9.778  17.882  66.866  1.00  0.00    -0.309 A  
HETATM   19  N   UNL     1     -10.180  17.621  65.594  1.00  0.00    -0.614 NA 
HETATM   20  C   UNL     1     -10.979  16.562  65.372  1.00  0.00    -0.131 A  
HETATM   21  N   UNL     1     -11.406  15.674  66.282  1.00  0.00    -0.029 NA 
HETATM   22  N   UNL     1     -11.377  16.360  64.065  1.00  0.00    -1.539 NA 
HETATM   23  H2  UNL     1     -10.558  16.306  63.460  1.00  0.00     0.000 HD 
HETATM   24  H1  UNL     1     -11.983  15.558  63.896  1.00  0.00     0.000 HD 
HETATM   25  C   UNL     1     -10.986  15.983  67.520  1.00  0.00    -0.261 A  
ENDBRANCH  13  14
ENDBRANCH   8  13
ENDBRANCH   4   5
ENDBRANCH   2   4
TORSDOF 6
ENDMDL
MODEL       11
REMARK 921   NORMALIZED FREE ENERGY PREDICTED BY IDOCK:   -6.41 KCAL/MOL
REMARK 922        TOTAL FREE ENERGY PREDICTED BY IDOCK:   -9.66 KCAL/MOL
REMARK 923 INTER-LIGAND FREE ENERGY PREDICTED BY IDOCK:   -8.91 KCAL/MOL
REMARK 924 INTRA-LIGAND FREE ENERGY PREDICTED BY IDOCK:   -0.75 KCAL/MOL
REMARK 927      BINDING AFFINITY PREDICTED BY RF-SCORE:    0.00 PKD
ROOT
HETATM    1  C   UNL     1     -12.166  16.036  71.873  1.00  0.00    -0.560 C  
HETATM    2  C   UNL     1     -13.485  15.611  72.446  1.00  0.00    -0.513 C  
HETATM    3  O   UNL     1     -14.011  16.133  73.418  1.00  0.00    -0.488 OA 
ENDROOT
BRANCH   2   4
HETATM    4  O   UNL     1     -13.983  14.551  71.753  1.00  0.00    -0.398 OA 
BRANCH   4   5
HETATM    5  C   UNL     1     -13.583  13.255  72.233  1.00  0.00    -0.605 C  
HETATM    6  C   UNL     1     -13.159  12.322  71.082  1.00  0.00    -0.116 C  
HETATM    7  C   UNL     1     -12.875  10.922  71.671  1.00  0.00    -0.449 C  
HETATM    8  C   UNL     1     -11.968  12.936  70.304  1.00  0.00    -0.359 C  
BRANCH   7   9
HETATM    9  O   UNL     1     -12.489   9.952  70.685  1.00  0.00    -0.262 OA 
BRANCH   9  10
HETATM   10  C   UNL     1     -11.857   8.834  71.129  1.00  0.00    -0.295 C  
HETATM   11  O   UNL     1     -12.311   7.702  71.079  1.00  0.00    -0.290 OA 
HETATM   12  C   UNL     1     -10.482   9.167  71.632  1.00  0.00    -0.403 C  
ENDBRANCH   9  10
ENDBRANCH   7   9
BRANCH   8  13
HETATM   13  C   UNL     1     -11.545  12.138  69.070  1.00  0.00    -0.319 C  
BRANCH  13  14
HETATM   14  N   UNL     1     -10.851  12.935  68.084  1.00  0.00    -0.227 NA 
HETATM   15  C   UNL     1      -9.846  13.830  68.325  1.00  0.00    -0.232 A  
HETATM   16  N   UNL     1      -9.481  14.457  67.224  1.00  0.00    -0.209 NA 
HETATM   17  C   UNL     1     -10.317  13.969  66.247  1.00  0.00    -0.293 A  
HETATM   18  C   UNL     1     -10.463  14.242  64.895  1.00  0.00    -0.430 A  
HETATM   19  N   UNL     1     -11.430  13.604  64.184  1.00  0.00    -0.360 NA 
HETATM   20  C   UNL     1     -12.228  12.726  64.819  1.00  0.00    -0.459 A  
HETATM   21  N   UNL     1     -12.150  12.358  66.106  1.00  0.00    -0.641 NA 
HETATM   22  N   UNL     1     -13.209  12.128  64.054  1.00  0.00    -0.705 NA 
HETATM   23  H2  UNL     1     -12.787  11.683  63.239  1.00  0.00     0.000 HD 
HETATM   24  H1  UNL     1     -13.814  11.462  64.535  1.00  0.00     0.000 HD 
HETATM   25  C   UNL     1     -11.183  13.022  66.761  1.00  0.00    -0.298 A  
ENDBRANCH  13  14
ENDBRANCH   8  13
ENDBRANCH   4   5
ENDBRANCH   2   4
TORSDOF 6
ENDMDL
MODEL       12
REMARK 921   NORMALIZED FREE ENERGY PREDICTED BY IDOCK:   -6.40 KCAL/MOL
REMARK 922        TOTAL FREE ENERGY PREDICTED BY IDOCK:   -9.65 KCAL/MOL
REMARK 923 INTER-LIGAND FREE ENERGY PREDICTED BY IDOCK:   -8.98 KCAL/MOL
REMARK 924 INTRA-LIGAND FREE ENERGY PREDICTED BY IDOCK:   -0.67 KCAL/MOL
REMARK 927      BINDING AFFINITY PREDICTED BY RF-SCORE:    0.00 PKD
ROOT
HETATM    1  C   UNL     1      -9.636  20.120  67.536  1.00  0.00    -0.547 C  
HETATM    2  C   UNL     1     -10.167  19.409  66.327  1.00  0.00    -0.478 C  
HETATM    3  O   UNL     1     -10.870  19.933  65.476  1.00  0.00    -0.426 OA 
ENDROOT
BRANCH   2   4
HETATM    4  O   UNL     1      -9.783  18.103  66.339  1.00  0.00    -0.322 OA 
BRANCH   4   5
HETATM    5  C   UNL     1     -10.625  17.204  65.597  1.00  0.00    -0.179 C  
HETATM    6  C   UNL     1     -10.625  15.785  66.202  1.00  0.00    -0.318 C  
HETATM    7  C   UNL     1     -11.443  14.862  65.273  1.00  0.00    -0.336 C  
HETATM    8  C   UNL     1     -11.135  15.827  67.664  1.00  0.00    -0.283 C  
BRANCH   7   9
HETATM    9  O   UNL     1     -11.498  13.499  65.723  1.00  0.00    -0.307 OA 
BRANCH   9  10
HETATM   10  C   UNL     1     -12.037  12.585  64.873  1.00  0.00    -0.440 C  
HETATM   11  O   UNL     1     -13.215  12.522  64.561  1.00  0.00    -0.832 OA 
HETATM   12  C   UNL     1     -10.968  11.695  64.307  1.00  0.00    -0.418 C  
ENDBRANCH   9  10
ENDBRANCH   7   9
BRANCH   8  13
HETATM   13  C   UNL     1     -11.066  14.483  68.391  1.00  0.00    -0.256 C  
BRANCH  13  14
HETATM   14  N   UNL     1     -11.904  14.425  69.567  1.00  0.00    -0.309 NA 
HETATM   15  C   UNL     1     -12.373  15.491  70.284  1.00  0.00    -0.396 A  
HETATM   16  N   UNL     1     -13.042  15.101  71.352  1.00  0.00    -0.385 NA 
HETATM   17  C   UNL     1     -12.961  13.728  71.336  1.00  0.00    -0.355 A  
HETATM   18  C   UNL     1     -13.427  12.737  72.187  1.00  0.00    -0.492 A  
HETATM   19  N   UNL     1     -13.149  11.435  71.913  1.00  0.00    -0.473 NA 
HETATM   20  C   UNL     1     -12.420  11.144  70.821  1.00  0.00    -0.384 A  
HETATM   21  N   UNL     1     -11.955  12.014  69.912  1.00  0.00    -0.328 NA 
HETATM   22  N   UNL     1     -12.146   9.808  70.607  1.00  0.00    -0.397 NA 
HETATM   23  H2  UNL     1     -13.016   9.276  70.591  1.00  0.00     0.000 HD 
HETATM   24  H1  UNL     1     -11.593   9.587  69.779  1.00  0.00     0.000 HD 
HETATM   25  C   UNL     1     -12.252  13.284  70.234  1.00  0.00    -0.321 A  
ENDBRANCH  13  14
ENDBRANCH   8  13
ENDBRANCH   4   5
ENDBRANCH   2   4
TORSDOF 6
ENDMDL
MODEL       13
REMARK 921   NORMALIZED FREE ENERGY PREDICTED BY IDOCK:   -6.34 KCAL/MOL
REMARK 922        TOTAL FREE ENERGY PREDICTED BY IDOCK:   -9.58 KCAL/MOL
REMARK 923 INTER-LIGAND FREE ENERGY PREDICTED BY IDOCK:   -8.85 KCAL/MOL
REMARK 924 INTRA-LIGAND FREE ENERGY PREDICTED BY IDOCK:   -0.73 KCAL/MOL
REMARK 927      BINDING AFFINITY PREDICTED BY RF-SCORE:    0.00 PKD
ROOT
HETATM    1  C   UNL     1     -14.242   8.329  71.545  1.00  0.00    -0.489 C  
HETATM    2  C   UNL     1     -12.767   8.062  71.517  1.00  0.00    -0.307 C  
HETATM    3  O   UNL     1     -12.273   6.956  71.359  1.00  0.00    -0.335 OA 
ENDROOT
BRANCH   2   4
HETATM    4  O   UNL     1     -12.073   9.214  71.728  1.00  0.00    -0.330 OA 
BRANCH   4   5
HETATM    5  C   UNL     1     -12.870  10.404  71.849  1.00  0.00    -0.415 C  
HETATM    6  C   UNL     1     -12.347  11.541  70.947  1.00  0.00    -0.460 C  
HETATM    7  C   UNL     1     -13.175  12.811  71.238  1.00  0.00    -0.054 C  
HETATM    8  C   UNL     1     -12.363  11.098  69.463  1.00  0.00    -0.262 C  
BRANCH   7   9
HETATM    9  O   UNL     1     -12.765  13.953  70.469  1.00  0.00    -0.312 OA 
BRANCH   9  10
HETATM   10  C   UNL     1     -13.080  15.179  70.961  1.00  0.00    -0.452 C  
HETATM   11  O   UNL     1     -14.213  15.590  71.159  1.00  0.00    -0.528 OA 
HETATM   12  C   UNL     1     -11.836  15.950  71.297  1.00  0.00    -0.502 C  
ENDBRANCH   9  10
ENDBRANCH   7   9
BRANCH   8  13
HETATM   13  C   UNL     1     -11.754  12.117  68.498  1.00  0.00    -0.330 C  
BRANCH  13  14
HETATM   14  N   UNL     1     -11.356  11.540  67.234  1.00  0.00    -0.400 NA 
HETATM   15  C   UNL     1     -10.692  10.358  67.053  1.00  0.00    -0.235 A  
HETATM   16  N   UNL     1     -10.401  10.154  65.784  1.00  0.00    -0.199 NA 
HETATM   17  C   UNL     1     -10.864  11.274  65.132  1.00  0.00    -0.200 A  
HETATM   18  C   UNL     1     -10.841  11.682  63.806  1.00  0.00    -0.424 A  
HETATM   19  N   UNL     1     -11.363  12.891  63.470  1.00  0.00    -0.415 NA 
HETATM   20  C   UNL     1     -11.884  13.664  64.439  1.00  0.00    -0.424 A  
HETATM   21  N   UNL     1     -11.995  13.354  65.739  1.00  0.00    -0.383 NA 
HETATM   22  N   UNL     1     -12.376  14.892  64.044  1.00  0.00    -1.021 NA 
HETATM   23  H2  UNL     1     -13.061  14.765  63.299  1.00  0.00     0.000 HD 
HETATM   24  H1  UNL     1     -12.771  15.479  64.778  1.00  0.00     0.000 HD 
HETATM   25  C   UNL     1     -11.459  12.154  66.017  1.00  0.00    -0.370 A  
ENDBRANCH  13  14
ENDBRANCH   8  13
ENDBRANCH   4   5
ENDBRANCH   2   4
TORSDOF 6
ENDMDL
MODEL       14
REMARK 921   NORMALIZED FREE ENERGY PREDICTED BY IDOCK:   -6.31 KCAL/MOL
REMARK 922        TOTAL FREE ENERGY PREDICTED BY IDOCK:   -9.54 KCAL/MOL
REMARK 923 INTER-LIGAND FREE ENERGY PREDICTED BY IDOCK:   -8.73 KCAL/MOL
REMARK 924 INTRA-LIGAND FREE ENERGY PREDICTED BY IDOCK:   -0.81 KCAL/MOL
REMARK 927      BINDING AFFINITY PREDICTED BY RF-SCORE:    0.00 PKD
ROOT
HETATM    1  C   UNL     1     -10.520  17.900  65.982  1.00  0.00    -0.293 C  
HETATM    2  C   UNL     1     -10.987  16.682  65.244  1.00  0.00    -0.120 C  
HETATM    3  O   UNL     1     -11.475  16.703  64.123  1.00  0.00    -1.131 OA 
ENDROOT
BRANCH   2   4
HETATM    4  O   UNL     1     -10.821  15.570  66.011  1.00  0.00    -0.322 OA 
BRANCH   4   5
HETATM    5  C   UNL     1     -10.956  15.771  67.429  1.00  0.00    -0.279 C  
HETATM    6  C   UNL     1     -11.751  14.631  68.098  1.00  0.00    -0.360 C  
HETATM    7  C   UNL     1     -11.960  14.993  69.585  1.00  0.00    -0.321 C  
HETATM    8  C   UNL     1     -11.039  13.274  67.869  1.00  0.00    -0.287 C  
BRANCH   7   9
HETATM    9  O   UNL     1     -12.711  14.010  70.314  1.00  0.00    -0.318 OA 
BRANCH   9  10
HETATM   10  C   UNL     1     -13.535  14.462  71.297  1.00  0.00    -0.335 C  
HETATM   11  O   UNL     1     -14.171  15.503  71.259  1.00  0.00    -0.544 OA 
HETATM   12  C   UNL     1     -13.613  13.468  72.420  1.00  0.00    -0.709 C  
ENDBRANCH   9  10
ENDBRANCH   7   9
BRANCH   8  13
HETATM   13  C   UNL     1     -11.810  12.064  68.397  1.00  0.00    -0.300 C  
BRANCH  13  14
HETATM   14  N   UNL     1     -10.989  11.155  69.166  1.00  0.00    -0.227 NA 
HETATM   15  C   UNL     1      -9.720  10.748  68.857  1.00  0.00    -0.198 A  
HETATM   16  N   UNL     1      -9.277   9.850  69.715  1.00  0.00    -0.226 NA 
HETATM   17  C   UNL     1     -10.324   9.646  70.583  1.00  0.00    -0.297 A  
HETATM   18  C   UNL     1     -10.505   8.813  71.679  1.00  0.00    -0.317 A  
HETATM   19  N   UNL     1     -11.698   8.814  72.329  1.00  0.00    -0.356 NA 
HETATM   20  C   UNL     1     -12.678   9.621  71.885  1.00  0.00    -0.411 A  
HETATM   21  N   UNL     1     -12.601  10.492  70.868  1.00  0.00    -0.367 NA 
HETATM   22  N   UNL     1     -13.876   9.562  72.568  1.00  0.00    -0.682 NA 
HETATM   23  H2  UNL     1     -13.715   9.729  73.561  1.00  0.00     0.000 HD 
HETATM   24  H1  UNL     1     -14.619  10.173  72.232  1.00  0.00     0.000 HD 
HETATM   25  C   UNL     1     -11.404  10.446  70.257  1.00  0.00    -0.328 A  
ENDBRANCH  13  14
ENDBRANCH   8  13
ENDBRANCH   4   5
ENDBRANCH   2   4
TORSDOF 6
ENDMDL
MODEL       15
REMARK 921   NORMALIZED FREE ENERGY PREDICTED BY IDOCK:   -6.31 KCAL/MOL
REMARK 922        TOTAL FREE ENERGY PREDICTED BY IDOCK:   -9.53 KCAL/MOL
REMARK 923 INTER-LIGAND FREE ENERGY PREDICTED BY IDOCK:   -8.75 KCAL/MOL
REMARK 924 INTRA-LIGAND FREE ENERGY PREDICTED BY IDOCK:   -0.78 KCAL/MOL
REMARK 927      BINDING AFFINITY PREDICTED BY RF-SCORE:    0.00 PKD
ROOT
HETATM    1  C   UNL     1     -12.749  15.861  73.779  1.00  0.00    -0.729 C  
HETATM    2  C   UNL     1     -12.939  14.802  72.736  1.00  0.00    -0.459 C  
HETATM    3  O   UNL     1     -13.928  14.088  72.654  1.00  0.00    -0.654 OA 
ENDROOT
BRANCH   2   4
HETATM    4  O   UNL     1     -11.847  14.731  71.927  1.00  0.00    -0.355 OA 
BRANCH   4   5
HETATM    5  C   UNL     1     -11.596  15.896  71.121  1.00  0.00    -0.432 C  
HETATM    6  C   UNL     1     -11.137  15.522  69.698  1.00  0.00    -0.280 C  
HETATM    7  C   UNL     1     -10.766  16.821  68.950  1.00  0.00    -0.333 C  
HETATM    8  C   UNL     1     -12.221  14.671  68.990  1.00  0.00    -0.199 C  
BRANCH   7   9
HETATM    9  O   UNL     1     -10.299  16.600  67.610  1.00  0.00    -0.288 OA 
BRANCH   9  10
HETATM   10  C   UNL     1     -10.371  17.646  66.747  1.00  0.00    -0.331 C  
HETATM   11  O   UNL     1     -10.332  17.559  65.529  1.00  0.00    -0.620 OA 
HETATM   12  C   UNL     1     -10.573  18.934  67.492  1.00  0.00    -0.524 C  
ENDBRANCH   9  10
ENDBRANCH   7   9
BRANCH   8  13
HETATM   13  C   UNL     1     -11.812  14.153  67.611  1.00  0.00    -0.392 C  
BRANCH  13  14
HETATM   14  N   UNL     1     -11.545  12.732  67.590  1.00  0.00    -0.337 NA 
HETATM   15  C   UNL     1     -11.741  11.854  68.620  1.00  0.00    -0.323 A  
HETATM   16  N   UNL     1     -11.320  10.643  68.311  1.00  0.00    -0.300 NA 
HETATM   17  C   UNL     1     -10.797  10.764  67.045  1.00  0.00    -0.252 A  
HETATM   18  C   UNL     1     -10.180   9.872  66.180  1.00  0.00    -0.207 A  
HETATM   19  N   UNL     1      -9.727  10.312  64.976  1.00  0.00    -0.283 NA 
HETATM   20  C   UNL     1      -9.886  11.610  64.660  1.00  0.00    -0.227 A  
HETATM   21  N   UNL     1     -10.501  12.546  65.397  1.00  0.00    -0.276 NA 
HETATM   22  N   UNL     1      -9.384  12.007  63.436  1.00  0.00    -0.650 NA 
HETATM   23  H2  UNL     1      -9.774  11.422  62.698  1.00  0.00     0.000 HD 
HETATM   24  H1  UNL     1      -9.504  12.991  63.196  1.00  0.00     0.000 HD 
HETATM   25  C   UNL     1     -10.922  12.059  66.577  1.00  0.00    -0.295 A  
ENDBRANCH  13  14
ENDBRANCH   8  13
ENDBRANCH   4   5
ENDBRANCH   2   4
TORSDOF 6
ENDMDL
MODEL       16
REMARK 921   NORMALIZED FREE ENERGY PREDICTED BY IDOCK:   -6.31 KCAL/MOL
REMARK 922        TOTAL FREE ENERGY PREDICTED BY IDOCK:   -9.53 KCAL/MOL
REMARK 923 INTER-LIGAND FREE ENERGY PREDICTED BY IDOCK:   -8.85 KCAL/MOL
REMARK 924 INTRA-LIGAND FREE ENERGY PREDICTED BY IDOCK:   -0.68 KCAL/MOL
REMARK 927      BINDING AFFINITY PREDICTED BY RF-SCORE:    0.00 PKD
ROOT
HETATM    1  C   UNL     1     -11.583   8.080  72.683  1.00  0.00    -0.448 C  
HETATM    2  C   UNL     1     -10.820   8.933  71.714  1.00  0.00    -0.365 C  
HETATM    3  O   UNL     1      -9.639   9.222  71.835  1.00  0.00    -0.274 OA 
ENDROOT
BRANCH   2   4
HETATM    4  O   UNL     1     -11.639   9.362  70.715  1.00  0.00    -0.275 OA 
BRANCH   4   5
HETATM    5  C   UNL     1     -12.474  10.486  71.038  1.00  0.00    -0.400 C  
HETATM    6  C   UNL     1     -11.914  11.803  70.462  1.00  0.00    -0.383 C  
HETATM    7  C   UNL     1     -12.796  12.967  70.966  1.00  0.00    -0.184 C  
HETATM    8  C   UNL     1     -11.805  11.711  68.919  1.00  0.00    -0.392 C  
BRANCH   7   9
HETATM    9  O   UNL     1     -12.359  14.257  70.511  1.00  0.00    -0.316 OA 
BRANCH   9  10
HETATM   10  C   UNL     1     -12.916  15.346  71.101  1.00  0.00    -0.479 C  
HETATM   11  O   UNL     1     -14.105  15.625  71.085  1.00  0.00    -0.539 OA 
HETATM   12  C   UNL     1     -11.877  16.135  71.844  1.00  0.00    -0.605 C  
ENDBRANCH   9  10
ENDBRANCH   7   9
BRANCH   8  13
HETATM   13  C   UNL     1     -11.152  12.927  68.263  1.00  0.00    -0.264 C  
BRANCH  13  14
HETATM   14  N   UNL     1     -11.588  13.146  66.902  1.00  0.00    -0.348 NA 
HETATM   15  C   UNL     1     -12.529  14.047  66.485  1.00  0.00    -0.311 A  
HETATM   16  N   UNL     1     -12.762  13.942  65.192  1.00  0.00    -0.689 NA 
HETATM   17  C   UNL     1     -11.965  12.901  64.774  1.00  0.00    -0.396 A  
HETATM   18  C   UNL     1     -11.773  12.283  63.547  1.00  0.00    -0.499 A  
HETATM   19  N   UNL     1     -10.920  11.228  63.457  1.00  0.00    -0.339 NA 
HETATM   20  C   UNL     1     -10.289  10.808  64.568  1.00  0.00    -0.331 A  
HETATM   21  N   UNL     1     -10.369  11.354  65.791  1.00  0.00    -0.247 NA 
HETATM   22  N   UNL     1      -9.456   9.717  64.423  1.00  0.00    -0.426 NA 
HETATM   23  H2  UNL     1      -8.773   9.900  63.688  1.00  0.00     0.000 HD 
HETATM   24  H1  UNL     1      -8.978   9.397  65.265  1.00  0.00     0.000 HD 
HETATM   25  C   UNL     1     -11.228  12.387  65.825  1.00  0.00    -0.333 A  
ENDBRANCH  13  14
ENDBRANCH   8  13
ENDBRANCH   4   5
ENDBRANCH   2   4
TORSDOF 6
ENDMDL
MODEL       17
REMARK 921   NORMALIZED FREE ENERGY PREDICTED BY IDOCK:   -6.30 KCAL/MOL
REMARK 922        TOTAL FREE ENERGY PREDICTED BY IDOCK:   -9.51 KCAL/MOL
REMARK 923 INTER-LIGAND FREE ENERGY PREDICTED BY IDOCK:   -8.74 KCAL/MOL
REMARK 924 INTRA-LIGAND FREE ENERGY PREDICTED BY IDOCK:   -0.77 KCAL/MOL
REMARK 927      BINDING AFFINITY PREDICTED BY RF-SCORE:    0.00 PKD
ROOT
HETATM    1  C   UNL     1     -11.581   8.178  72.318  1.00  0.00    -0.436 C  
HETATM    2  C   UNL     1     -10.963   9.011  71.236  1.00  0.00    -0.313 C  
HETATM    3  O   UNL     1      -9.769   9.260  71.158  1.00  0.00    -0.283 OA 
ENDROOT
BRANCH   2   4
HETATM    4  O   UNL     1     -11.922   9.471  70.387  1.00  0.00    -0.195 OA 
BRANCH   4   5
HETATM    5  C   UNL     1     -12.616  10.654  70.819  1.00  0.00    -0.386 C  
HETATM    6  C   UNL     1     -11.931  11.939  70.310  1.00  0.00    -0.416 C  
HETATM    7  C   UNL     1     -12.660  13.154  70.926  1.00  0.00    -0.295 C  
HETATM    8  C   UNL     1     -11.886  11.946  68.761  1.00  0.00    -0.371 C  
BRANCH   7   9
HETATM    9  O   UNL     1     -12.097  14.417  70.541  1.00  0.00    -0.291 OA 
BRANCH   9  10
HETATM   10  C   UNL     1     -12.474  15.509  71.256  1.00  0.00    -0.425 C  
HETATM   11  O   UNL     1     -11.753  16.456  71.529  1.00  0.00    -0.448 OA 
HETATM   12  C   UNL     1     -13.929  15.430  71.616  1.00  0.00    -0.617 C  
ENDBRANCH   9  10
ENDBRANCH   7   9
BRANCH   8  13
HETATM   13  C   UNL     1     -11.123  13.128  68.161  1.00  0.00    -0.255 C  
BRANCH  13  14
HETATM   14  N   UNL     1     -11.669  13.580  66.902  1.00  0.00    -0.362 NA 
HETATM   15  C   UNL     1     -12.468  12.860  66.057  1.00  0.00    -0.101 A  
HETATM   16  N   UNL     1     -12.728  13.526  64.949  1.00  0.00    -0.682 NA 
HETATM   17  C   UNL     1     -12.033  14.706  65.077  1.00  0.00    -0.364 A  
HETATM   18  C   UNL     1     -11.872  15.811  64.253  1.00  0.00    -0.118 A  
HETATM   19  N   UNL     1     -11.072  16.833  64.654  1.00  0.00    -0.937 NA 
HETATM   20  C   UNL     1     -10.450  16.742  65.843  1.00  0.00    -0.301 A  
HETATM   21  N   UNL     1     -10.566  15.745  66.734  1.00  0.00    -0.310 NA 
HETATM   22  N   UNL     1      -9.630  17.797  66.188  1.00  0.00    -0.502 NA 
HETATM   23  H2  UNL     1     -10.155  18.671  66.140  1.00  0.00     0.000 HD 
HETATM   24  H1  UNL     1      -9.158  17.728  67.090  1.00  0.00     0.000 HD 
HETATM   25  C   UNL     1     -11.362  14.760  66.285  1.00  0.00    -0.334 A  
ENDBRANCH  13  14
ENDBRANCH   8  13
ENDBRANCH   4   5
ENDBRANCH   2   4
TORSDOF 6
ENDMDL
MODEL       18
REMARK 921   NORMALIZED FREE ENERGY PREDICTED BY IDOCK:   -6.29 KCAL/MOL
REMARK 922        TOTAL FREE ENERGY PREDICTED BY IDOCK:   -9.50 KCAL/MOL
REMARK 923 INTER-LIGAND FREE ENERGY PREDICTED BY IDOCK:   -8.79 KCAL/MOL
REMARK 924 INTRA-LIGAND FREE ENERGY PREDICTED BY IDOCK:   -0.72 KCAL/MOL
REMARK 927      BINDING AFFINITY PREDICTED BY RF-SCORE:    0.00 PKD
ROOT
HETATM    1  C   UNL     1     -11.824  12.686  63.576  1.00  0.00    -0.619 C  
HETATM    2  C   UNL     1     -11.947  13.931  64.402  1.00  0.00    -0.450 C  
HETATM    3  O   UNL     1     -12.555  14.931  64.050  1.00  0.00    -0.832 OA 
ENDROOT
BRANCH   2   4
HETATM    4  O   UNL     1     -11.260  13.795  65.569  1.00  0.00    -0.296 OA 
BRANCH   4   5
HETATM    5  C   UNL     1     -12.064  13.775  66.761  1.00  0.00    -0.418 C  
HETATM    6  C   UNL     1     -11.422  14.592  67.901  1.00  0.00    -0.348 C  
HETATM    7  C   UNL     1     -12.279  14.408  69.173  1.00  0.00    -0.220 C  
HETATM    8  C   UNL     1     -11.240  16.068  67.467  1.00  0.00    -0.138 C  
BRANCH   7   9
HETATM    9  O   UNL     1     -11.766  15.108  70.317  1.00  0.00    -0.258 OA 
BRANCH   9  10
HETATM   10  C   UNL     1     -12.674  15.629  71.184  1.00  0.00    -0.465 C  
HETATM   11  O   UNL     1     -13.886  15.570  71.055  1.00  0.00    -0.545 OA 
HETATM   12  C   UNL     1     -11.983  16.235  72.372  1.00  0.00    -0.630 C  
ENDBRANCH   9  10
ENDBRANCH   7   9
BRANCH   8  13
HETATM   13  C   UNL     1     -10.505  16.936  68.488  1.00  0.00    -0.361 C  
BRANCH  13  14
HETATM   14  N   UNL     1     -10.076  18.209  67.954  1.00  0.00    -0.338 NA 
HETATM   15  C   UNL     1     -10.777  19.004  67.089  1.00  0.00    -0.456 A  
HETATM   16  N   UNL     1     -10.075  20.059  66.724  1.00  0.00    -0.450 NA 
HETATM   17  C   UNL     1      -8.861  19.909  67.352  1.00  0.00    -0.336 A  
HETATM   18  C   UNL     1      -7.691  20.655  67.354  1.00  0.00    -0.311 A  
HETATM   19  N   UNL     1      -6.619  20.216  68.066  1.00  0.00    -0.260 NA 
HETATM   20  C   UNL     1      -6.723  19.060  68.746  1.00  0.00    -0.287 A  
HETATM   21  N   UNL     1      -7.811  18.284  68.847  1.00  0.00    -0.246 NA 
HETATM   22  N   UNL     1      -5.596  18.651  69.430  1.00  0.00    -0.214 NA 
HETATM   23  H2  UNL     1      -5.284  19.392  70.057  1.00  0.00     0.000 HD 
HETATM   24  H1  UNL     1      -5.673  17.774  69.946  1.00  0.00     0.000 HD 
HETATM   25  C   UNL     1      -8.837  18.760  68.120  1.00  0.00    -0.306 A  
ENDBRANCH  13  14
ENDBRANCH   8  13
ENDBRANCH   4   5
ENDBRANCH   2   4
TORSDOF 6
ENDMDL
MODEL       19
REMARK 921   NORMALIZED FREE ENERGY PREDICTED BY IDOCK:   -6.22 KCAL/MOL
REMARK 922        TOTAL FREE ENERGY PREDICTED BY IDOCK:   -9.41 KCAL/MOL
REMARK 923 INTER-LIGAND FREE ENERGY PREDICTED BY IDOCK:   -8.74 KCAL/MOL
REMARK 924 INTRA-LIGAND FREE ENERGY PREDICTED BY IDOCK:   -0.68 KCAL/MOL
REMARK 927      BINDING AFFINITY PREDICTED BY RF-SCORE:    0.00 PKD
ROOT
HETATM    1  C   UNL     1     -10.422  19.407  66.333  1.00  0.00    -0.581 C  
HETATM    2  C   UNL     1     -10.283  19.024  67.776  1.00  0.00    -0.402 C  
HETATM    3  O   UNL     1     -10.301  19.821  68.703  1.00  0.00    -0.435 OA 
ENDROOT
BRANCH   2   4
HETATM    4  O   UNL     1     -10.099  17.681  67.894  1.00  0.00    -0.311 OA 
BRANCH   4   5
HETATM    5  C   UNL     1     -10.486  17.111  69.156  1.00  0.00    -0.296 C  
HETATM    6  C   UNL     1     -11.487  15.951  68.980  1.00  0.00    -0.380 C  
HETATM    7  C   UNL     1     -11.946  15.491  70.381  1.00  0.00    -0.367 C  
HETATM    8  C   UNL     1     -10.861  14.828  68.117  1.00  0.00    -0.256 C  
BRANCH   7   9
HETATM    9  O   UNL     1     -12.904  14.421  70.348  1.00  0.00    -0.350 OA 
BRANCH   9  10
HETATM   10  C   UNL     1     -13.588  14.164  71.494  1.00  0.00    -0.329 C  
HETATM   11  O   UNL     1     -13.738  13.059  71.992  1.00  0.00    -0.452 OA 
HETATM   12  C   UNL     1     -14.083  15.439  72.113  1.00  0.00    -0.651 C  
ENDBRANCH   9  10
ENDBRANCH   7   9
BRANCH   8  13
HETATM   13  C   UNL     1     -11.818  13.681  67.790  1.00  0.00    -0.368 C  
BRANCH  13  14
HETATM   14  N   UNL     1     -11.943  13.428  66.372  1.00  0.00    -0.394 NA 
HETATM   15  C   UNL     1     -12.836  14.015  65.518  1.00  0.00    -0.419 A  
HETATM   16  N   UNL     1     -12.752  13.507  64.304  1.00  0.00    -0.653 NA 
HETATM   17  C   UNL     1     -11.792  12.527  64.398  1.00  0.00    -0.386 A  
HETATM   18  C   UNL     1     -11.267  11.618  63.491  1.00  0.00    -0.373 A  
HETATM   19  N   UNL     1     -10.327  10.727  63.905  1.00  0.00    -0.323 NA 
HETATM   20  C   UNL     1      -9.938  10.747  65.192  1.00  0.00    -0.291 A  
HETATM   21  N   UNL     1     -10.346  11.603  66.141  1.00  0.00    -0.233 NA 
HETATM   22  N   UNL     1      -9.001   9.803  65.563  1.00  0.00    -0.164 NA 
HETATM   23  H2  UNL     1      -8.185   9.871  64.955  1.00  0.00     0.000 HD 
HETATM   24  H1  UNL     1      -8.706   9.818  66.539  1.00  0.00     0.000 HD 
HETATM   25  C   UNL     1     -11.277  12.456  65.680  1.00  0.00    -0.322 A  
ENDBRANCH  13  14
ENDBRANCH   8  13
ENDBRANCH   4   5
ENDBRANCH   2   4
TORSDOF 6
ENDMDL
MODEL       20
REMARK 921   NORMALIZED FREE ENERGY PREDICTED BY IDOCK:   -6.17 KCAL/MOL
REMARK 922        TOTAL FREE ENERGY PREDICTED BY IDOCK:   -9.34 KCAL/MOL
REMARK 923 INTER-LIGAND FREE ENERGY PREDICTED BY IDOCK:   -8.66 KCAL/MOL
REMARK 924 INTRA-LIGAND FREE ENERGY PREDICTED BY IDOCK:   -0.68 KCAL/MOL
REMARK 927      BINDING AFFINITY PREDICTED BY RF-SCORE:    0.00 PKD
ROOT
HETATM    1  C   UNL     1     -12.740  14.989  73.440  1.00  0.00    -0.654 C  
HETATM    2  C   UNL     1     -13.231  14.041  72.388  1.00  0.00    -0.488 C  
HETATM    3  O   UNL     1     -14.185  13.290  72.531  1.00  0.00    -0.697 OA 
ENDROOT
BRANCH   2   4
HETATM    4  O   UNL     1     -12.445  14.114  71.279  1.00  0.00    -0.333 OA 
BRANCH   4   5
HETATM    5  C   UNL     1     -12.240  15.436  70.752  1.00  0.00    -0.381 C  
HETATM    6  C   UNL     1     -11.001  15.504  69.835  1.00  0.00    -0.315 C  
HETATM    7  C   UNL     1     -10.781  16.976  69.425  1.00  0.00    -0.184 C  
HETATM    8  C   UNL     1     -11.164  14.529  68.642  1.00  0.00    -0.281 C  
BRANCH   7   9
HETATM    9  O   UNL     1      -9.636  17.171  68.581  1.00  0.00    -0.264 OA 
BRANCH   9  10
HETATM   10  C   UNL     1      -9.131  18.431  68.500  1.00  0.00    -0.324 C  
HETATM   11  O   UNL     1      -7.953  18.708  68.340  1.00  0.00    -0.304 OA 
HETATM   12  C   UNL     1     -10.233  19.448  68.569  1.00  0.00    -0.492 C  
ENDBRANCH   9  10
ENDBRANCH   7   9
BRANCH   8  13
HETATM   13  C   UNL     1      -9.937  14.439  67.735  1.00  0.00    -0.226 C  
BRANCH  13  14
HETATM   14  N   UNL     1      -9.844  13.184  67.022  1.00  0.00    -0.238 NA 
HETATM   15  C   UNL     1      -9.051  12.120  67.351  1.00  0.00    -0.181 A  
HETATM   16  N   UNL     1      -9.132  11.158  66.452  1.00  0.00    -0.181 NA 
HETATM   17  C   UNL     1      -9.983  11.648  65.489  1.00  0.00    -0.242 A  
HETATM   18  C   UNL     1     -10.450  11.142  64.284  1.00  0.00    -0.362 A  
HETATM   19  N   UNL     1     -11.275  11.901  63.515  1.00  0.00    -0.417 NA 
HETATM   20  C   UNL     1     -11.612  13.130  63.944  1.00  0.00    -0.433 A  
HETATM   21  N   UNL     1     -11.254  13.701  65.104  1.00  0.00    -0.302 NA 
HETATM   22  N   UNL     1     -12.431  13.865  63.111  1.00  0.00    -1.079 NA 
HETATM   23  H2  UNL     1     -13.274  13.332  62.898  1.00  0.00     0.000 HD 
HETATM   24  H1  UNL     1     -12.686  14.798  63.435  1.00  0.00     0.000 HD 
HETATM   25  C   UNL     1     -10.435  12.912  65.820  1.00  0.00    -0.278 A  
ENDBRANCH  13  14
ENDBRANCH   8  13
ENDBRANCH   4   5
ENDBRANCH   2   4
TORSDOF 6
ENDMDL
MODEL       21
REMARK 921   NORMALIZED FREE ENERGY PREDICTED BY IDOCK:   -6.16 KCAL/MOL
REMARK 922        TOTAL FREE ENERGY PREDICTED BY IDOCK:   -9.33 KCAL/MOL
REMARK 923 INTER-LIGAND FREE ENERGY PREDICTED BY IDOCK:   -8.55 KCAL/MOL
REMARK 924 INTRA-LIGAND FREE ENERGY PREDICTED BY IDOCK:   -0.78 KCAL/MOL
REMARK 927      BINDING AFFINITY PREDICTED BY RF-SCORE:    0.00 PKD
ROOT
HETATM    1  C   UNL     1     -14.014  15.654  72.450  1.00  0.00    -0.602 C  
HETATM    2  C   UNL     1     -12.638  15.734  73.041  1.00  0.00    -0.483 C  
HETATM    3  O   UNL     1     -12.387  16.230  74.130  1.00  0.00    -0.527 OA 
ENDROOT
BRANCH   2   4
HETATM    4  O   UNL     1     -11.721  15.214  72.180  1.00  0.00    -0.396 OA 
BRANCH   4   5
HETATM    5  C   UNL     1     -12.077  15.270  70.788  1.00  0.00    -0.351 C  
HETATM    6  C   UNL     1     -11.682  13.980  70.041  1.00  0.00    -0.349 C  
HETATM    7  C   UNL     1     -11.978  14.179  68.539  1.00  0.00    -0.332 C  
HETATM    8  C   UNL     1     -12.393  12.756  70.672  1.00  0.00    -0.381 C  
BRANCH   7   9
HETATM    9  O   UNL     1     -11.630  13.044  67.730  1.00  0.00    -0.298 OA 
BRANCH   9  10
HETATM   10  C   UNL     1     -11.793  13.166  66.386  1.00  0.00    -0.400 C  
HETATM   11  O   UNL     1     -12.450  12.413  65.685  1.00  0.00    -0.640 OA 
HETATM   12  C   UNL     1     -11.105  14.401  65.880  1.00  0.00    -0.319 C  
ENDBRANCH   9  10
ENDBRANCH   7   9
BRANCH   8  13
HETATM   13  C   UNL     1     -11.977  11.412  70.073  1.00  0.00    -0.363 C  
BRANCH  13  14
HETATM   14  N   UNL     1     -12.175  10.299  70.974  1.00  0.00    -0.350 NA 
HETATM   15  C   UNL     1     -13.328   9.989  71.642  1.00  0.00    -0.373 A  
HETATM   16  N   UNL     1     -13.159   8.963  72.451  1.00  0.00    -0.427 NA 
HETATM   17  C   UNL     1     -11.831   8.629  72.324  1.00  0.00    -0.366 A  
HETATM   18  C   UNL     1     -11.029   7.666  72.921  1.00  0.00    -0.400 A  
HETATM   19  N   UNL     1      -9.709   7.607  72.605  1.00  0.00    -0.178 NA 
HETATM   20  C   UNL     1      -9.213   8.492  71.722  1.00  0.00    -0.246 A  
HETATM   21  N   UNL     1      -9.900   9.432  71.057  1.00  0.00    -0.277 NA 
HETATM   22  N   UNL     1      -7.861   8.401  71.458  1.00  0.00    -0.110 NA 
HETATM   23  H2  UNL     1      -7.631   7.453  71.161  1.00  0.00     0.000 HD 
HETATM   24  H1  UNL     1      -7.484   9.072  70.789  1.00  0.00     0.000 HD 
HETATM   25  C   UNL     1     -11.196   9.451  71.411  1.00  0.00    -0.381 A  
ENDBRANCH  13  14
ENDBRANCH   8  13
ENDBRANCH   4   5
ENDBRANCH   2   4
TORSDOF 6
ENDMDL
MODEL       22
REMARK 921   NORMALIZED FREE ENERGY PREDICTED BY IDOCK:   -6.13 KCAL/MOL
REMARK 922        TOTAL FREE ENERGY PREDICTED BY IDOCK:   -9.29 KCAL/MOL
REMARK 923 INTER-LIGAND FREE ENERGY PREDICTED BY IDOCK:   -8.46 KCAL/MOL
REMARK 924 INTRA-LIGAND FREE ENERGY PREDICTED BY IDOCK:   -0.83 KCAL/MOL
REMARK 927      BINDING AFFINITY PREDICTED BY RF-SCORE:    0.00 PKD
ROOT
HETATM    1  C   UNL     1      -9.783   8.637  71.796  1.00  0.00    -0.361 C  
HETATM    2  C   UNL     1      -9.690   8.658  70.300  1.00  0.00    -0.174 C  
HETATM    3  O   UNL     1      -8.891   7.997  69.653  1.00  0.00    -0.139 OA 
ENDROOT
BRANCH   2   4
HETATM    4  O   UNL     1     -10.589   9.539  69.782  1.00  0.00    -0.212 OA 
BRANCH   4   5
HETATM    5  C   UNL     1     -10.468   9.788  68.371  1.00  0.00    -0.218 C  
HETATM    6  C   UNL     1     -11.291  11.016  67.932  1.00  0.00    -0.381 C  
HETATM    7  C   UNL     1     -11.210  11.130  66.394  1.00  0.00    -0.046 C  
HETATM    8  C   UNL     1     -10.812  12.281  68.688  1.00  0.00    -0.268 C  
BRANCH   7   9
HETATM    9  O   UNL     1     -11.960  12.232  65.859  1.00  0.00    -0.555 OA 
BRANCH   9  10
HETATM   10  C   UNL     1     -11.865  12.458  64.523  1.00  0.00    -0.384 C  
HETATM   11  O   UNL     1     -12.436  13.351  63.917  1.00  0.00    -0.658 OA 
HETATM   12  C   UNL     1     -10.902  11.495  63.890  1.00  0.00    -0.469 C  
ENDBRANCH   9  10
ENDBRANCH   7   9
BRANCH   8  13
HETATM   13  C   UNL     1     -11.644  13.533  68.405  1.00  0.00    -0.343 C  
BRANCH  13  14
HETATM   14  N   UNL     1     -10.854  14.742  68.346  1.00  0.00    -0.238 NA 
HETATM   15  C   UNL     1     -10.223  15.352  69.395  1.00  0.00    -0.262 A  
HETATM   16  N   UNL     1      -9.656  16.485  69.028  1.00  0.00    -0.261 NA 
HETATM   17  C   UNL     1      -9.974  16.622  67.697  1.00  0.00    -0.264 A  
HETATM   18  C   UNL     1      -9.707  17.600  66.750  1.00  0.00    -0.300 A  
HETATM   19  N   UNL     1     -10.201  17.465  65.491  1.00  0.00    -0.618 NA 
HETATM   20  C   UNL     1     -10.946  16.384  65.200  1.00  0.00    -0.232 A  
HETATM   21  N   UNL     1     -11.232  15.362  66.021  1.00  0.00    -0.234 NA 
HETATM   22  N   UNL     1     -11.443  16.312  63.915  1.00  0.00    -1.539 NA 
HETATM   23  H2  UNL     1     -10.679  16.394  63.244  1.00  0.00     0.000 HD 
HETATM   24  H1  UNL     1     -12.009  15.492  63.694  1.00  0.00     0.000 HD 
HETATM   25  C   UNL     1     -10.725  15.550  67.252  1.00  0.00    -0.308 A  
ENDBRANCH  13  14
ENDBRANCH   8  13
ENDBRANCH   4   5
ENDBRANCH   2   4
TORSDOF 6
ENDMDL
MODEL       23
REMARK 921   NORMALIZED FREE ENERGY PREDICTED BY IDOCK:   -6.12 KCAL/MOL
REMARK 922        TOTAL FREE ENERGY PREDICTED BY IDOCK:   -9.28 KCAL/MOL
REMARK 923 INTER-LIGAND FREE ENERGY PREDICTED BY IDOCK:   -8.36 KCAL/MOL
REMARK 924 INTRA-LIGAND FREE ENERGY PREDICTED BY IDOCK:   -0.91 KCAL/MOL
REMARK 927      BINDING AFFINITY PREDICTED BY RF-SCORE:    0.00 PKD
ROOT
HETATM    1  C   UNL     1     -13.107  10.509  71.906  1.00  0.00    -0.567 C  
HETATM    2  C   UNL     1     -12.961  11.960  71.557  1.00  0.00    -0.323 C  
HETATM    3  O   UNL     1     -13.445  12.875  72.207  1.00  0.00    -0.562 OA 
ENDROOT
BRANCH   2   4
HETATM    4  O   UNL     1     -12.249  12.101  70.405  1.00  0.00    -0.341 OA 
BRANCH   4   5
HETATM    5  C   UNL     1     -11.825  10.874  69.785  1.00  0.00    -0.345 C  
HETATM    6  C   UNL     1     -11.185  11.119  68.404  1.00  0.00    -0.325 C  
HETATM    7  C   UNL     1     -10.883   9.749  67.759  1.00  0.00    -0.246 C  
HETATM    8  C   UNL     1      -9.948  12.042  68.543  1.00  0.00    -0.188 C  
BRANCH   7   9
HETATM    9  O   UNL     1     -10.299   9.847  66.450  1.00  0.00    -0.227 OA 
BRANCH   9  10
HETATM   10  C   UNL     1      -9.494   8.828  66.051  1.00  0.00    -0.233 C  
HETATM   11  O   UNL     1      -8.505   8.947  65.345  1.00  0.00    -0.141 OA 
HETATM   12  C   UNL     1      -9.945   7.529  66.655  1.00  0.00    -0.270 C  
ENDBRANCH   9  10
ENDBRANCH   7   9
BRANCH   8  13
HETATM   13  C   UNL     1      -9.309  12.438  67.211  1.00  0.00    -0.184 C  
BRANCH  13  14
HETATM   14  N   UNL     1      -9.960  13.562  66.576  1.00  0.00    -0.280 NA 
HETATM   15  C   UNL     1      -9.978  14.852  67.030  1.00  0.00    -0.240 A  
HETATM   16  N   UNL     1     -10.729  15.623  66.268  1.00  0.00    -0.309 NA 
HETATM   17  C   UNL     1     -11.243  14.779  65.312  1.00  0.00    -0.366 A  
HETATM   18  C   UNL     1     -12.115  14.965  64.248  1.00  0.00    -0.353 A  
HETATM   19  N   UNL     1     -12.471  13.899  63.483  1.00  0.00    -0.812 NA 
HETATM   20  C   UNL     1     -11.971  12.688  63.785  1.00  0.00    -0.510 A  
HETATM   21  N   UNL     1     -11.094  12.403  64.759  1.00  0.00    -0.294 NA 
HETATM   22  N   UNL     1     -12.387  11.639  62.990  1.00  0.00    -0.956 NA 
HETATM   23  H2  UNL     1     -12.201  11.853  62.011  1.00  0.00     0.000 HD 
HETATM   24  H1  UNL     1     -12.008  10.720  63.219  1.00  0.00     0.000 HD 
HETATM   25  C   UNL     1     -10.781  13.488  65.487  1.00  0.00    -0.290 A  
ENDBRANCH  13  14
ENDBRANCH   8  13
ENDBRANCH   4   5
ENDBRANCH   2   4
TORSDOF 6
ENDMDL
MODEL       24
REMARK 921   NORMALIZED FREE ENERGY PREDICTED BY IDOCK:   -6.10 KCAL/MOL
REMARK 922        TOTAL FREE ENERGY PREDICTED BY IDOCK:   -9.25 KCAL/MOL
REMARK 923 INTER-LIGAND FREE ENERGY PREDICTED BY IDOCK:   -8.66 KCAL/MOL
REMARK 924 INTRA-LIGAND FREE ENERGY PREDICTED BY IDOCK:   -0.59 KCAL/MOL
REMARK 927      BINDING AFFINITY PREDICTED BY RF-SCORE:    0.00 PKD
ROOT
HETATM    1  C   UNL     1     -10.811  12.848  64.741  1.00  0.00    -0.350 C  
HETATM    2  C   UNL     1     -12.152  12.523  65.327  1.00  0.00    -0.444 C  
HETATM    3  O   UNL     1     -13.207  12.606  64.715  1.00  0.00    -0.846 OA 
ENDROOT
BRANCH   2   4
HETATM    4  O   UNL     1     -12.023  12.162  66.633  1.00  0.00    -0.616 OA 
BRANCH   4   5
HETATM    5  C   UNL     1     -11.488  13.173  67.505  1.00  0.00    -0.328 C  
HETATM    6  C   UNL     1     -12.081  13.079  68.925  1.00  0.00    -0.207 C  
HETATM    7  C   UNL     1     -11.554  14.274  69.750  1.00  0.00    -0.293 C  
HETATM    8  C   UNL     1     -11.771  11.694  69.546  1.00  0.00    -0.410 C  
BRANCH   7   9
HETATM    9  O   UNL     1     -12.057  14.309  71.095  1.00  0.00    -0.336 OA 
BRANCH   9  10
HETATM   10  C   UNL     1     -12.790  15.395  71.456  1.00  0.00    -0.429 C  
HETATM   11  O   UNL     1     -13.886  15.687  71.005  1.00  0.00    -0.567 OA 
HETATM   12  C   UNL     1     -12.097  16.162  72.546  1.00  0.00    -0.644 C  
ENDBRANCH   9  10
ENDBRANCH   7   9
BRANCH   8  13
HETATM   13  C   UNL     1     -12.416  11.461  70.912  1.00  0.00    -0.379 C  
BRANCH  13  14
HETATM   14  N   UNL     1     -12.574  10.061  71.239  1.00  0.00    -0.360 NA 
HETATM   15  C   UNL     1     -13.756   9.396  71.410  1.00  0.00    -0.243 A  
HETATM   16  N   UNL     1     -13.560   8.147  71.785  1.00  0.00    -0.354 NA 
HETATM   17  C   UNL     1     -12.195   8.023  71.896  1.00  0.00    -0.319 A  
HETATM   18  C   UNL     1     -11.361   6.981  72.273  1.00  0.00    -0.268 A  
HETATM   19  N   UNL     1     -10.017   7.182  72.319  1.00  0.00    -0.171 NA 
HETATM   20  C   UNL     1      -9.533   8.396  72.000  1.00  0.00    -0.268 A  
HETATM   21  N   UNL     1     -10.240   9.458  71.585  1.00  0.00    -0.193 NA 
HETATM   22  N   UNL     1      -8.164   8.551  72.089  1.00  0.00    -0.271 NA 
HETATM   23  H2  UNL     1      -7.700   7.837  71.527  1.00  0.00     0.000 HD 
HETATM   24  H1  UNL     1      -7.797   9.472  71.848  1.00  0.00     0.000 HD 
HETATM   25  C   UNL     1     -11.560   9.206  71.565  1.00  0.00    -0.368 A  
ENDBRANCH  13  14
ENDBRANCH   8  13
ENDBRANCH   4   5
ENDBRANCH   2   4
TORSDOF 6
ENDMDL
MODEL       25
REMARK 921   NORMALIZED FREE ENERGY PREDICTED BY IDOCK:   -6.09 KCAL/MOL
REMARK 922        TOTAL FREE ENERGY PREDICTED BY IDOCK:   -9.24 KCAL/MOL
REMARK 923 INTER-LIGAND FREE ENERGY PREDICTED BY IDOCK:   -8.42 KCAL/MOL
REMARK 924 INTRA-LIGAND FREE ENERGY PREDICTED BY IDOCK:   -0.82 KCAL/MOL
REMARK 927      BINDING AFFINITY PREDICTED BY RF-SCORE:    0.00 PKD
ROOT
HETATM    1  C   UNL     1     -12.269   7.983  71.830  1.00  0.00    -0.359 C  
HETATM    2  C   UNL     1     -13.255   9.107  71.939  1.00  0.00    -0.416 C  
HETATM    3  O   UNL     1     -14.326   9.028  72.522  1.00  0.00    -0.570 OA 
ENDROOT
BRANCH   2   4
HETATM    4  O   UNL     1     -12.800  10.202  71.270  1.00  0.00    -0.347 OA 
BRANCH   4   5
HETATM    5  C   UNL     1     -11.487  10.077  70.698  1.00  0.00    -0.345 C  
HETATM    6  C   UNL     1     -11.400  10.740  69.308  1.00  0.00    -0.352 C  
HETATM    7  C   UNL     1     -10.005  10.444  68.716  1.00  0.00    -0.188 C  
HETATM    8  C   UNL     1     -11.739  12.248  69.412  1.00  0.00    -0.392 C  
BRANCH   7   9
HETATM    9  O   UNL     1      -9.809  10.996  67.405  1.00  0.00    -0.171 OA 
BRANCH   9  10
HETATM   10  C   UNL     1     -10.131  10.209  66.345  1.00  0.00    -0.236 C  
HETATM   11  O   UNL     1     -10.558  10.609  65.273  1.00  0.00    -0.231 OA 
HETATM   12  C   UNL     1      -9.826   8.769  66.643  1.00  0.00    -0.335 C  
ENDBRANCH   9  10
ENDBRANCH   7   9
BRANCH   8  13
HETATM   13  C   UNL     1     -11.791  12.973  68.066  1.00  0.00    -0.347 C  
BRANCH  13  14
HETATM   14  N   UNL     1     -11.012  14.191  68.042  1.00  0.00    -0.250 NA 
HETATM   15  C   UNL     1     -10.339  14.745  69.095  1.00  0.00    -0.233 A  
HETATM   16  N   UNL     1      -9.796  15.902  68.769  1.00  0.00    -0.207 NA 
HETATM   17  C   UNL     1     -10.174  16.112  67.463  1.00  0.00    -0.267 A  
HETATM   18  C   UNL     1      -9.954  17.145  66.563  1.00  0.00    -0.302 A  
HETATM   19  N   UNL     1     -10.504  17.077  65.322  1.00  0.00    -0.665 NA 
HETATM   20  C   UNL     1     -11.254  16.008  65.002  1.00  0.00    -0.261 A  
HETATM   21  N   UNL     1     -11.497  14.939  65.775  1.00  0.00    -0.320 NA 
HETATM   22  N   UNL     1     -11.808  16.005  63.738  1.00  0.00    -1.306 NA 
HETATM   23  H2  UNL     1     -11.074  16.132  63.040  1.00  0.00     0.000 HD 
HETATM   24  H1  UNL     1     -12.377  15.194  63.495  1.00  0.00     0.000 HD 
HETATM   25  C   UNL     1     -10.937  15.060  66.991  1.00  0.00    -0.318 A  
ENDBRANCH  13  14
ENDBRANCH   8  13
ENDBRANCH   4   5
ENDBRANCH   2   4
TORSDOF 6
ENDMDL
MODEL       26
REMARK 921   NORMALIZED FREE ENERGY PREDICTED BY IDOCK:   -6.09 KCAL/MOL
REMARK 922        TOTAL FREE ENERGY PREDICTED BY IDOCK:   -9.23 KCAL/MOL
REMARK 923 INTER-LIGAND FREE ENERGY PREDICTED BY IDOCK:   -8.20 KCAL/MOL
REMARK 924 INTRA-LIGAND FREE ENERGY PREDICTED BY IDOCK:   -1.04 KCAL/MOL
REMARK 927      BINDING AFFINITY PREDICTED BY RF-SCORE:    0.00 PKD
ROOT
HETATM    1  C   UNL     1     -12.623  11.973  63.405  1.00  0.00    -0.592 C  
HETATM    2  C   UNL     1     -12.052  13.322  63.728  1.00  0.00    -0.482 C  
HETATM    3  O   UNL     1     -12.495  14.376  63.296  1.00  0.00    -0.633 OA 
ENDROOT
BRANCH   2   4
HETATM    4  O   UNL     1     -10.962  13.195  64.532  1.00  0.00    -0.333 OA 
BRANCH   4   5
HETATM    5  C   UNL     1     -10.959  12.044  65.395  1.00  0.00    -0.300 C  
HETATM    6  C   UNL     1     -10.358  12.365  66.778  1.00  0.00    -0.239 C  
HETATM    7  C   UNL     1     -10.274  11.052  67.587  1.00  0.00    -0.182 C  
HETATM    8  C   UNL     1     -11.174  13.485  67.471  1.00  0.00    -0.307 C  
BRANCH   7   9
HETATM    9  O   UNL     1      -9.706  11.219  68.896  1.00  0.00    -0.196 OA 
BRANCH   9  10
HETATM   10  C   UNL     1      -9.765  10.154  69.739  1.00  0.00    -0.196 C  
HETATM   11  O   UNL     1     -10.790   9.609  70.115  1.00  0.00    -0.241 OA 
HETATM   12  C   UNL     1      -8.383   9.688  70.099  1.00  0.00    -0.221 C  
ENDBRANCH   9  10
ENDBRANCH   7   9
BRANCH   8  13
HETATM   13  C   UNL     1     -10.589  13.955  68.803  1.00  0.00    -0.246 C  
BRANCH  13  14
HETATM   14  N   UNL     1     -11.579  14.512  69.698  1.00  0.00    -0.283 NA 
HETATM   15  C   UNL     1     -11.849  15.840  69.884  1.00  0.00    -0.344 A  
HETATM   16  N   UNL     1     -12.748  16.024  70.831  1.00  0.00    -0.300 NA 
HETATM   17  C   UNL     1     -13.033  14.761  71.295  1.00  0.00    -0.346 A  
HETATM   18  C   UNL     1     -13.868  14.280  72.293  1.00  0.00    -0.524 A  
HETATM   19  N   UNL     1     -13.908  12.944  72.545  1.00  0.00    -0.557 NA 
HETATM   20  C   UNL     1     -13.127  12.124  71.819  1.00  0.00    -0.352 A  
HETATM   21  N   UNL     1     -12.318  12.474  70.808  1.00  0.00    -0.357 NA 
HETATM   22  N   UNL     1     -13.190  10.782  72.135  1.00  0.00    -0.591 NA 
HETATM   23  H2  UNL     1     -14.157  10.463  72.093  1.00  0.00     0.000 HD 
HETATM   24  H1  UNL     1     -12.598  10.160  71.585  1.00  0.00     0.000 HD 
HETATM   25  C   UNL     1     -12.312  13.803  70.606  1.00  0.00    -0.375 A  
ENDBRANCH  13  14
ENDBRANCH   8  13
ENDBRANCH   4   5
ENDBRANCH   2   4
TORSDOF 6
ENDMDL
MODEL       27
REMARK 921   NORMALIZED FREE ENERGY PREDICTED BY IDOCK:   -6.08 KCAL/MOL
REMARK 922        TOTAL FREE ENERGY PREDICTED BY IDOCK:   -9.22 KCAL/MOL
REMARK 923 INTER-LIGAND FREE ENERGY PREDICTED BY IDOCK:   -8.38 KCAL/MOL
REMARK 924 INTRA-LIGAND FREE ENERGY PREDICTED BY IDOCK:   -0.84 KCAL/MOL
REMARK 927      BINDING AFFINITY PREDICTED BY RF-SCORE:    0.00 PKD
ROOT
HETATM    1  C   UNL     1     -11.852  14.721  64.622  1.00  0.00    -0.442 C  
HETATM    2  C   UNL     1     -12.190  13.420  65.286  1.00  0.00    -0.440 C  
HETATM    3  O   UNL     1     -13.068  12.662  64.904  1.00  0.00    -0.850 OA 
ENDROOT
BRANCH   2   4
HETATM    4  O   UNL     1     -11.407  13.232  66.384  1.00  0.00    -0.296 OA 
BRANCH   4   5
HETATM    5  C   UNL     1     -12.113  13.048  67.623  1.00  0.00    -0.209 C  
HETATM    6  C   UNL     1     -11.549  13.946  68.744  1.00  0.00    -0.370 C  
HETATM    7  C   UNL     1     -12.273  13.590  70.061  1.00  0.00    -0.312 C  
HETATM    8  C   UNL     1     -11.660  15.438  68.342  1.00  0.00    -0.368 C  
BRANCH   7   9
HETATM    9  O   UNL     1     -11.816  14.350  71.191  1.00  0.00    -0.322 OA 
BRANCH   9  10
HETATM   10  C   UNL     1     -12.654  14.444  72.256  1.00  0.00    -0.280 C  
HETATM   11  O   UNL     1     -13.622  13.727  72.457  1.00  0.00    -0.523 OA 
HETATM   12  C   UNL     1     -12.190  15.514  73.201  1.00  0.00    -0.580 C  
ENDBRANCH   9  10
ENDBRANCH   7   9
BRANCH   8  13
HETATM   13  C   UNL     1     -11.022  16.405  69.341  1.00  0.00    -0.325 C  
BRANCH  13  14
HETATM   14  N   UNL     1      -9.639  16.702  69.045  1.00  0.00    -0.261 NA 
HETATM   15  C   UNL     1      -8.553  15.949  69.398  1.00  0.00    -0.195 A  
HETATM   16  N   UNL     1      -7.423  16.536  69.053  1.00  0.00    -0.223 NA 
HETATM   17  C   UNL     1      -7.805  17.732  68.493  1.00  0.00    -0.290 A  
HETATM   18  C   UNL     1      -7.100  18.805  67.965  1.00  0.00    -0.237 A  
HETATM   19  N   UNL     1      -7.778  19.890  67.507  1.00  0.00    -0.277 NA 
HETATM   20  C   UNL     1      -9.121  19.896  67.586  1.00  0.00    -0.340 A  
HETATM   21  N   UNL     1      -9.902  18.904  68.037  1.00  0.00    -0.334 NA 
HETATM   22  N   UNL     1      -9.755  21.034  67.130  1.00  0.00    -0.620 NA 
HETATM   23  H2  UNL     1      -9.465  21.230  66.172  1.00  0.00     0.000 HD 
HETATM   24  H1  UNL     1     -10.773  21.039  67.189  1.00  0.00     0.000 HD 
HETATM   25  C   UNL     1      -9.182  17.860  68.482  1.00  0.00    -0.284 A  
ENDBRANCH  13  14
ENDBRANCH   8  13
ENDBRANCH   4   5
ENDBRANCH   2   4
TORSDOF 6
ENDMDL
MODEL       28
REMARK 921   NORMALIZED FREE ENERGY PREDICTED BY IDOCK:   -6.07 KCAL/MOL
REMARK 922        TOTAL FREE ENERGY PREDICTED BY IDOCK:   -9.21 KCAL/MOL
REMARK 923 INTER-LIGAND FREE ENERGY PREDICTED BY IDOCK:   -8.55 KCAL/MOL
REMARK 924 INTRA-LIGAND FREE ENERGY PREDICTED BY IDOCK:   -0.66 KCAL/MOL
REMARK 927      BINDING AFFINITY PREDICTED BY RF-SCORE:    0.00 PKD
ROOT
HETATM    1  C   UNL     1     -13.831  15.334  72.151  1.00  0.00    -0.625 C  
HETATM    2  C   UNL     1     -13.152  14.297  71.307  1.00  0.00    -0.355 C  
HETATM    3  O   UNL     1     -13.140  13.103  71.565  1.00  0.00    -0.365 OA 
ENDROOT
BRANCH   2   4
HETATM    4  O   UNL     1     -12.531  14.882  70.247  1.00  0.00    -0.330 OA 
BRANCH   4   5
HETATM    5  C   UNL     1     -12.082  13.982  69.219  1.00  0.00    -0.338 C  
HETATM    6  C   UNL     1     -11.784  14.720  67.898  1.00  0.00    -0.367 C  
HETATM    7  C   UNL     1     -11.438  13.668  66.822  1.00  0.00    -0.346 C  
HETATM    8  C   UNL     1     -10.684  15.789  68.118  1.00  0.00    -0.285 C  
BRANCH   7   9
HETATM    9  O   UNL     1     -11.160  14.237  65.532  1.00  0.00    -0.306 OA 
BRANCH   9  10
HETATM   10  C   UNL     1     -12.104  14.079  64.567  1.00  0.00    -0.459 C  
HETATM   11  O   UNL     1     -12.611  14.983  63.923  1.00  0.00    -0.813 OA 
HETATM   12  C   UNL     1     -12.397  12.622  64.347  1.00  0.00    -0.523 C  
ENDBRANCH   9  10
ENDBRANCH   7   9
BRANCH   8  13
HETATM   13  C   UNL     1     -10.397  16.655  66.890  1.00  0.00    -0.299 C  
BRANCH  13  14
HETATM   14  N   UNL     1      -9.961  17.992  67.224  1.00  0.00    -0.309 NA 
HETATM   15  C   UNL     1     -10.640  18.902  67.987  1.00  0.00    -0.304 A  
HETATM   16  N   UNL     1     -10.013  20.061  68.033  1.00  0.00    -0.410 NA 
HETATM   17  C   UNL     1      -8.907  19.894  67.232  1.00  0.00    -0.334 A  
HETATM   18  C   UNL     1      -7.874  20.738  66.849  1.00  0.00    -0.135 A  
HETATM   19  N   UNL     1      -6.920  20.280  65.996  1.00  0.00    -0.265 NA 
HETATM   20  C   UNL     1      -7.009  19.018  65.540  1.00  0.00    -0.198 A  
HETATM   21  N   UNL     1      -7.936  18.108  65.874  1.00  0.00    -0.535 NA 
HETATM   22  N   UNL     1      -6.028  18.616  64.656  1.00  0.00    -0.351 NA 
HETATM   23  H2  UNL     1      -5.108  18.768  65.070  1.00  0.00     0.000 HD 
HETATM   24  H1  UNL     1      -6.096  17.659  64.310  1.00  0.00     0.000 HD 
HETATM   25  C   UNL     1      -8.856  18.614  66.713  1.00  0.00    -0.297 A  
ENDBRANCH  13  14
ENDBRANCH   8  13
ENDBRANCH   4   5
ENDBRANCH   2   4
TORSDOF 6
ENDMDL
MODEL       29
REMARK 921   NORMALIZED FREE ENERGY PREDICTED BY IDOCK:   -6.06 KCAL/MOL
REMARK 922        TOTAL FREE ENERGY PREDICTED BY IDOCK:   -9.19 KCAL/MOL
REMARK 923 INTER-LIGAND FREE ENERGY PREDICTED BY IDOCK:   -8.20 KCAL/MOL
REMARK 924 INTRA-LIGAND FREE ENERGY PREDICTED BY IDOCK:   -0.98 KCAL/MOL
REMARK 927      BINDING AFFINITY PREDICTED BY RF-SCORE:    0.00 PKD
ROOT
HETATM    1  C   UNL     1      -6.496  11.805  69.335  1.00  0.00    -0.120 C  
HETATM    2  C   UNL     1      -6.409  13.286  69.545  1.00  0.00    -0.104 C  
HETATM    3  O   UNL     1      -6.018  13.812  70.577  1.00  0.00    -0.166 OA 
ENDROOT
BRANCH   2   4
HETATM    4  O   UNL     1      -6.859  13.948  68.444  1.00  0.00    -0.083 OA 
BRANCH   4   5
HETATM    5  C   UNL     1      -7.214  15.326  68.652  1.00  0.00    -0.121 C  
HETATM    6  C   UNL     1      -8.690  15.600  68.301  1.00  0.00    -0.174 C  
HETATM    7  C   UNL     1      -8.946  17.118  68.426  1.00  0.00    -0.259 C  
HETATM    8  C   UNL     1      -9.621  14.725  69.178  1.00  0.00    -0.133 C  
BRANCH   7   9
HETATM    9  O   UNL     1     -10.291  17.502  68.100  1.00  0.00    -0.336 OA 
BRANCH   9  10
HETATM   10  C   UNL     1     -10.449  18.553  67.254  1.00  0.00    -0.419 C  
HETATM   11  O   UNL     1     -10.749  18.469  66.074  1.00  0.00    -0.386 OA 
HETATM   12  C   UNL     1     -10.271  19.853  67.985  1.00  0.00    -0.572 C  
ENDBRANCH   9  10
ENDBRANCH   7   9
BRANCH   8  13
HETATM   13  C   UNL     1     -11.104  14.840  68.826  1.00  0.00    -0.265 C  
BRANCH  13  14
HETATM   14  N   UNL     1     -11.554  13.820  67.906  1.00  0.00    -0.320 NA 
HETATM   15  C   UNL     1     -11.674  12.483  68.170  1.00  0.00    -0.348 A  
HETATM   16  N   UNL     1     -12.029  11.806  67.096  1.00  0.00    -0.595 NA 
HETATM   17  C   UNL     1     -12.099  12.747  66.094  1.00  0.00    -0.364 A  
HETATM   18  C   UNL     1     -12.390  12.675  64.739  1.00  0.00    -0.489 A  
HETATM   19  N   UNL     1     -12.343  13.805  63.985  1.00  0.00    -0.679 NA 
HETATM   20  C   UNL     1     -12.008  14.965  64.577  1.00  0.00    -0.410 A  
HETATM   21  N   UNL     1     -11.749  15.157  65.879  1.00  0.00    -0.103 NA 
HETATM   22  N   UNL     1     -11.951  16.075  63.757  1.00  0.00    -1.339 NA 
HETATM   23  H2  UNL     1     -12.836  16.184  63.263  1.00  0.00     0.000 HD 
HETATM   24  H1  UNL     1     -11.696  16.955  64.206  1.00  0.00     0.000 HD 
HETATM   25  C   UNL     1     -11.803  14.009  66.575  1.00  0.00    -0.417 A  
ENDBRANCH  13  14
ENDBRANCH   8  13
ENDBRANCH   4   5
ENDBRANCH   2   4
TORSDOF 6
ENDMDL
MODEL       30
REMARK 921   NORMALIZED FREE ENERGY PREDICTED BY IDOCK:   -6.05 KCAL/MOL
REMARK 922        TOTAL FREE ENERGY PREDICTED BY IDOCK:   -9.17 KCAL/MOL
REMARK 923 INTER-LIGAND FREE ENERGY PREDICTED BY IDOCK:   -8.30 KCAL/MOL
REMARK 924 INTRA-LIGAND FREE ENERGY PREDICTED BY IDOCK:   -0.87 KCAL/MOL
REMARK 927      BINDING AFFINITY PREDICTED BY RF-SCORE:    0.00 PKD
ROOT
HETATM    1  C   UNL     1     -11.912  16.078  71.511  1.00  0.00    -0.539 C  
HETATM    2  C   UNL     1     -13.103  15.595  72.283  1.00  0.00    -0.456 C  
HETATM    3  O   UNL     1     -13.482  16.083  73.337  1.00  0.00    -0.581 OA 
ENDROOT
BRANCH   2   4
HETATM    4  O   UNL     1     -13.669  14.525  71.661  1.00  0.00    -0.358 OA 
BRANCH   4   5
HETATM    5  C   UNL     1     -13.401  13.246  72.263  1.00  0.00    -0.533 C  
HETATM    6  C   UNL     1     -13.248  12.134  71.206  1.00  0.00    -0.063 C  
HETATM    7  C   UNL     1     -13.097  10.784  71.940  1.00  0.00    -0.451 C  
HETATM    8  C   UNL     1     -12.082  12.466  70.242  1.00  0.00    -0.377 C  
BRANCH   7   9
HETATM    9  O   UNL     1     -12.967   9.660  71.055  1.00  0.00    -0.317 OA 
BRANCH   9  10
HETATM   10  C   UNL     1     -12.323   8.564  71.534  1.00  0.00    -0.314 C  
HETATM   11  O   UNL     1     -12.782   7.433  71.561  1.00  0.00    -0.343 OA 
HETATM   12  C   UNL     1     -10.929   8.916  71.968  1.00  0.00    -0.412 C  
ENDBRANCH   9  10
ENDBRANCH   7   9
BRANCH   8  13
HETATM   13  C   UNL     1     -11.922  11.478  69.086  1.00  0.00    -0.320 C  
BRANCH  13  14
HETATM   14  N   UNL     1     -11.677  12.120  67.814  1.00  0.00    -0.446 NA 
HETATM   15  C   UNL     1     -12.129  13.351  67.426  1.00  0.00    -0.293 A  
HETATM   16  N   UNL     1     -11.805  13.614  66.175  1.00  0.00    -0.371 NA 
HETATM   17  C   UNL     1     -11.153  12.486  65.736  1.00  0.00    -0.308 A  
HETATM   18  C   UNL     1     -10.595  12.122  64.518  1.00  0.00    -0.310 A  
HETATM   19  N   UNL     1     -10.037  10.890  64.381  1.00  0.00    -0.314 NA 
HETATM   20  C   UNL     1     -10.049  10.052  65.433  1.00  0.00    -0.247 A  
HETATM   21  N   UNL     1     -10.521  10.313  66.661  1.00  0.00    -0.218 NA 
HETATM   22  N   UNL     1      -9.492   8.806  65.229  1.00  0.00    -0.427 NA 
HETATM   23  H2  UNL     1      -8.539   8.907  64.880  1.00  0.00     0.000 HD 
HETATM   24  H1  UNL     1      -9.501   8.170  66.026  1.00  0.00     0.000 HD 
HETATM   25  C   UNL     1     -11.066  11.539  66.739  1.00  0.00    -0.302 A  
ENDBRANCH  13  14
ENDBRANCH   8  13
ENDBRANCH   4   5
ENDBRANCH   2   4
TORSDOF 6
ENDMDL
MODEL       31
REMARK 921   NORMALIZED FREE ENERGY PREDICTED BY IDOCK:   -6.04 KCAL/MOL
REMARK 922        TOTAL FREE ENERGY PREDICTED BY IDOCK:   -9.17 KCAL/MOL
REMARK 923 INTER-LIGAND FREE ENERGY PREDICTED BY IDOCK:   -8.37 KCAL/MOL
REMARK 924 INTRA-LIGAND FREE ENERGY PREDICTED BY IDOCK:   -0.80 KCAL/MOL
REMARK 927      BINDING AFFINITY PREDICTED BY RF-SCORE:    0.00 PKD
ROOT
HETATM    1  C   UNL     1     -10.525  19.664  65.896  1.00  0.00    -0.591 C  
HETATM    2  C   UNL     1     -10.417  19.182  67.311  1.00  0.00    -0.456 C  
HETATM    3  O   UNL     1     -10.406  19.916  68.288  1.00  0.00    -0.441 OA 
ENDROOT
BRANCH   2   4
HETATM    4  O   UNL     1     -10.299  17.826  67.342  1.00  0.00    -0.341 OA 
BRANCH   4   5
HETATM    5  C   UNL     1     -10.407  17.224  68.644  1.00  0.00    -0.357 C  
HETATM    6  C   UNL     1     -11.485  16.123  68.680  1.00  0.00    -0.340 C  
HETATM    7  C   UNL     1     -11.624  15.628  70.136  1.00  0.00    -0.354 C  
HETATM    8  C   UNL     1     -11.147  15.007  67.660  1.00  0.00    -0.317 C  
BRANCH   7   9
HETATM    9  O   UNL     1     -12.622  14.608  70.303  1.00  0.00    -0.342 OA 
BRANCH   9  10
HETATM   10  C   UNL     1     -12.833  14.146  71.563  1.00  0.00    -0.354 C  
HETATM   11  O   UNL     1     -13.232  13.027  71.846  1.00  0.00    -0.431 OA 
HETATM   12  C   UNL     1     -12.444  15.181  72.579  1.00  0.00    -0.442 C  
ENDBRANCH   9  10
ENDBRANCH   7   9
BRANCH   8  13
HETATM   13  C   UNL     1     -12.218  13.922  67.539  1.00  0.00    -0.231 C  
BRANCH  13  14
HETATM   14  N   UNL     1     -11.677  12.581  67.548  1.00  0.00    -0.375 NA 
HETATM   15  C   UNL     1     -11.423  11.816  68.653  1.00  0.00    -0.288 A  
HETATM   16  N   UNL     1     -10.852  10.672  68.330  1.00  0.00    -0.221 NA 
HETATM   17  C   UNL     1     -10.699  10.729  66.964  1.00  0.00    -0.265 A  
HETATM   18  C   UNL     1     -10.147   9.863  66.031  1.00  0.00    -0.244 A  
HETATM   19  N   UNL     1     -10.111  10.226  64.721  1.00  0.00    -0.327 NA 
HETATM   20  C   UNL     1     -10.609  11.424  64.367  1.00  0.00    -0.341 A  
HETATM   21  N   UNL     1     -11.200  12.318  65.174  1.00  0.00    -0.315 NA 
HETATM   22  N   UNL     1     -10.523  11.751  63.028  1.00  0.00    -0.673 NA 
HETATM   23  H2  UNL     1     -10.956  11.018  62.466  1.00  0.00     0.000 HD 
HETATM   24  H1  UNL     1     -10.900  12.660  62.759  1.00  0.00     0.000 HD 
HETATM   25  C   UNL     1     -11.202  11.912  66.455  1.00  0.00    -0.327 A  
ENDBRANCH  13  14
ENDBRANCH   8  13
ENDBRANCH   4   5
ENDBRANCH   2   4
TORSDOF 6
ENDMDL
MODEL       32
REMARK 921   NORMALIZED FREE ENERGY PREDICTED BY IDOCK:   -6.04 KCAL/MOL
REMARK 922        TOTAL FREE ENERGY PREDICTED BY IDOCK:   -9.16 KCAL/MOL
REMARK 923 INTER-LIGAND FREE ENERGY PREDICTED BY IDOCK:   -8.20 KCAL/MOL
REMARK 924 INTRA-LIGAND FREE ENERGY PREDICTED BY IDOCK:   -0.97 KCAL/MOL
REMARK 927      BINDING AFFINITY PREDICTED BY RF-SCORE:    0.00 PKD
ROOT
HETATM    1  C   UNL     1     -11.328  12.588  63.718  1.00  0.00    -0.534 C  
HETATM    2  C   UNL     1     -12.700  12.654  64.318  1.00  0.00    -0.305 C  
HETATM    3  O   UNL     1     -13.593  11.855  64.080  1.00  0.00    -0.492 OA 
ENDROOT
BRANCH   2   4
HETATM    4  O   UNL     1     -12.811  13.743  65.128  1.00  0.00    -0.695 OA 
BRANCH   4   5
HETATM    5  C   UNL     1     -11.776  14.730  64.983  1.00  0.00    -0.364 C  
HETATM    6  C   UNL     1     -11.249  15.216  66.348  1.00  0.00    -0.277 C  
HETATM    7  C   UNL     1     -10.243  16.362  66.101  1.00  0.00    -0.348 C  
HETATM    8  C   UNL     1     -10.671  14.027  67.154  1.00  0.00    -0.283 C  
BRANCH   7   9
HETATM    9  O   UNL     1      -9.696  16.916  67.308  1.00  0.00    -0.243 OA 
BRANCH   9  10
HETATM   10  C   UNL     1      -9.523  18.263  67.350  1.00  0.00    -0.266 C  
HETATM   11  O   UNL     1      -9.163  18.957  66.413  1.00  0.00    -0.317 OA 
HETATM   12  C   UNL     1      -9.902  18.803  68.699  1.00  0.00    -0.441 C  
ENDBRANCH   9  10
ENDBRANCH   7   9
BRANCH   8  13
HETATM   13  C   UNL     1     -10.226  14.387  68.572  1.00  0.00    -0.243 C  
BRANCH  13  14
HETATM   14  N   UNL     1     -11.324  14.487  69.508  1.00  0.00    -0.265 NA 
HETATM   15  C   UNL     1     -11.883  15.641  69.983  1.00  0.00    -0.367 A  
HETATM   16  N   UNL     1     -12.810  15.394  70.887  1.00  0.00    -0.450 NA 
HETATM   17  C   UNL     1     -12.814  14.025  71.022  1.00  0.00    -0.340 A  
HETATM   18  C   UNL     1     -13.532  13.150  71.825  1.00  0.00    -0.335 A  
HETATM   19  N   UNL     1     -13.278  11.816  71.752  1.00  0.00    -0.420 NA 
HETATM   20  C   UNL     1     -12.328  11.382  70.905  1.00  0.00    -0.381 A  
HETATM   21  N   UNL     1     -11.606  12.131  70.058  1.00  0.00    -0.229 NA 
HETATM   22  N   UNL     1     -12.095  10.022  70.892  1.00  0.00    -0.329 NA 
HETATM   23  H2  UNL     1     -12.968   9.524  70.715  1.00  0.00     0.000 HD 
HETATM   24  H1  UNL     1     -11.374   9.692  70.250  1.00  0.00     0.000 HD 
HETATM   25  C   UNL     1     -11.892  13.439  70.175  1.00  0.00    -0.272 A  
ENDBRANCH  13  14
ENDBRANCH   8  13
ENDBRANCH   4   5
ENDBRANCH   2   4
TORSDOF 6
ENDMDL
MODEL       33
REMARK 921   NORMALIZED FREE ENERGY PREDICTED BY IDOCK:   -6.02 KCAL/MOL
REMARK 922        TOTAL FREE ENERGY PREDICTED BY IDOCK:   -9.14 KCAL/MOL
REMARK 923 INTER-LIGAND FREE ENERGY PREDICTED BY IDOCK:   -8.37 KCAL/MOL
REMARK 924 INTRA-LIGAND FREE ENERGY PREDICTED BY IDOCK:   -0.77 KCAL/MOL
REMARK 927      BINDING AFFINITY PREDICTED BY RF-SCORE:    0.00 PKD
ROOT
HETATM    1  C   UNL     1     -13.016  11.245  71.741  1.00  0.00    -0.519 C  
HETATM    2  C   UNL     1     -13.178  12.731  71.859  1.00  0.00    -0.412 C  
HETATM    3  O   UNL     1     -13.985  13.277  72.596  1.00  0.00    -0.741 OA 
ENDROOT
BRANCH   2   4
HETATM    4  O   UNL     1     -12.330  13.369  71.007  1.00  0.00    -0.363 OA 
BRANCH   4   5
HETATM    5  C   UNL     1     -11.894  12.598  69.874  1.00  0.00    -0.294 C  
HETATM    6  C   UNL     1     -12.131  13.343  68.545  1.00  0.00    -0.283 C  
HETATM    7  C   UNL     1     -11.760  12.395  67.384  1.00  0.00    -0.347 C  
HETATM    8  C   UNL     1     -11.360  14.687  68.539  1.00  0.00    -0.305 C  
BRANCH   7   9
HETATM    9  O   UNL     1     -11.960  12.973  66.085  1.00  0.00    -0.395 OA 
BRANCH   9  10
HETATM   10  C   UNL     1     -11.295  12.407  65.043  1.00  0.00    -0.320 C  
HETATM   11  O   UNL     1     -10.153  11.979  65.086  1.00  0.00    -0.259 OA 
HETATM   12  C   UNL     1     -12.184  12.314  63.836  1.00  0.00    -0.608 C  
ENDBRANCH   9  10
ENDBRANCH   7   9
BRANCH   8  13
HETATM   13  C   UNL     1     -11.623  15.555  67.308  1.00  0.00    -0.011 C  
BRANCH  13  14
HETATM   14  N   UNL     1     -10.466  16.311  66.884  1.00  0.00    -0.309 NA 
HETATM   15  C   UNL     1      -9.540  15.926  65.953  1.00  0.00    -0.343 A  
HETATM   16  N   UNL     1      -8.559  16.801  65.854  1.00  0.00    -0.502 NA 
HETATM   17  C   UNL     1      -8.851  17.765  66.790  1.00  0.00    -0.260 A  
HETATM   18  C   UNL     1      -8.206  18.924  67.197  1.00  0.00    -0.269 A  
HETATM   19  N   UNL     1      -8.741  19.670  68.199  1.00  0.00    -0.316 NA 
HETATM   20  C   UNL     1      -9.883  19.257  68.776  1.00  0.00    -0.447 A  
HETATM   21  N   UNL     1     -10.609  18.181  68.438  1.00  0.00    -0.277 NA 
HETATM   22  N   UNL     1     -10.366  20.040  69.806  1.00  0.00    -0.479 NA 
HETATM   23  H2  UNL     1     -10.471  21.003  69.487  1.00  0.00     0.000 HD 
HETATM   24  H1  UNL     1     -11.232  19.726  70.244  1.00  0.00     0.000 HD 
HETATM   25  C   UNL     1     -10.033  17.478  67.448  1.00  0.00    -0.315 A  
ENDBRANCH  13  14
ENDBRANCH   8  13
ENDBRANCH   4   5
ENDBRANCH   2   4
TORSDOF 6
ENDMDL
MODEL       34
REMARK 921   NORMALIZED FREE ENERGY PREDICTED BY IDOCK:   -5.97 KCAL/MOL
REMARK 922        TOTAL FREE ENERGY PREDICTED BY IDOCK:   -9.08 KCAL/MOL
REMARK 923 INTER-LIGAND FREE ENERGY PREDICTED BY IDOCK:   -8.09 KCAL/MOL
REMARK 924 INTRA-LIGAND FREE ENERGY PREDICTED BY IDOCK:   -0.99 KCAL/MOL
REMARK 927      BINDING AFFINITY PREDICTED BY RF-SCORE:    0.00 PKD
ROOT
HETATM    1  C   UNL     1     -13.739  15.259  71.667  1.00  0.00    -0.600 C  
HETATM    2  C   UNL     1     -12.345  15.706  71.989  1.00  0.00    -0.423 C  
HETATM    3  O   UNL     1     -11.889  15.768  73.122  1.00  0.00    -0.444 OA 
ENDROOT
BRANCH   2   4
HETATM    4  O   UNL     1     -11.686  16.062  70.853  1.00  0.00    -0.388 OA 
BRANCH   4   5
HETATM    5  C   UNL     1     -11.996  15.280  69.687  1.00  0.00    -0.338 C  
HETATM    6  C   UNL     1     -10.989  15.526  68.545  1.00  0.00    -0.288 C  
HETATM    7  C   UNL     1     -11.472  14.753  67.298  1.00  0.00    -0.366 C  
HETATM    8  C   UNL     1      -9.557  15.158  69.005  1.00  0.00    -0.229 C  
BRANCH   7   9
HETATM    9  O   UNL     1     -10.621  14.922  66.153  1.00  0.00    -0.298 OA 
BRANCH   9  10
HETATM   10  C   UNL     1     -11.179  15.465  65.039  1.00  0.00    -0.387 C  
HETATM   11  O   UNL     1     -10.851  16.526  64.533  1.00  0.00    -0.802 OA 
HETATM   12  C   UNL     1     -12.218  14.545  64.466  1.00  0.00    -0.483 C  
ENDBRANCH   9  10
ENDBRANCH   7   9
BRANCH   8  13
HETATM   13  C   UNL     1      -8.468  15.475  67.979  1.00  0.00    -0.143 C  
BRANCH  13  14
HETATM   14  N   UNL     1      -7.795  16.730  68.229  1.00  0.00    -0.186 NA 
HETATM   15  C   UNL     1      -6.747  16.933  69.084  1.00  0.00    -0.232 A  
HETATM   16  N   UNL     1      -6.415  18.208  69.150  1.00  0.00    -0.248 NA 
HETATM   17  C   UNL     1      -7.316  18.849  68.332  1.00  0.00    -0.288 A  
HETATM   18  C   UNL     1      -7.518  20.180  67.997  1.00  0.00    -0.261 A  
HETATM   19  N   UNL     1      -8.542  20.512  67.167  1.00  0.00    -0.315 NA 
HETATM   20  C   UNL     1      -9.338  19.535  66.697  1.00  0.00    -0.358 A  
HETATM   21  N   UNL     1      -9.211  18.219  66.921  1.00  0.00    -0.275 NA 
HETATM   22  N   UNL     1     -10.377  19.933  65.879  1.00  0.00    -0.498 NA 
HETATM   23  H2  UNL     1     -10.012  20.484  65.102  1.00  0.00     0.000 HD 
HETATM   24  H1  UNL     1     -10.981  19.193  65.523  1.00  0.00     0.000 HD 
HETATM   25  C   UNL     1      -8.189  17.948  67.751  1.00  0.00    -0.233 A  
ENDBRANCH  13  14
ENDBRANCH   8  13
ENDBRANCH   4   5
ENDBRANCH   2   4
TORSDOF 6
ENDMDL
MODEL       35
REMARK 921   NORMALIZED FREE ENERGY PREDICTED BY IDOCK:   -5.95 KCAL/MOL
REMARK 922        TOTAL FREE ENERGY PREDICTED BY IDOCK:   -9.04 KCAL/MOL
REMARK 923 INTER-LIGAND FREE ENERGY PREDICTED BY IDOCK:   -8.26 KCAL/MOL
REMARK 924 INTRA-LIGAND FREE ENERGY PREDICTED BY IDOCK:   -0.78 KCAL/MOL
REMARK 927      BINDING AFFINITY PREDICTED BY RF-SCORE:    0.00 PKD
ROOT
HETATM    1  C   UNL     1     -14.380  14.600  71.598  1.00  0.00    -0.601 C  
HETATM    2  C   UNL     1     -13.040  15.253  71.431  1.00  0.00    -0.454 C  
HETATM    3  O   UNL     1     -12.650  16.200  72.098  1.00  0.00    -0.450 OA 
ENDROOT
BRANCH   2   4
HETATM    4  O   UNL     1     -12.350  14.664  70.416  1.00  0.00    -0.303 OA 
BRANCH   4   5
HETATM    5  C   UNL     1     -12.249  13.231  70.485  1.00  0.00    -0.340 C  
HETATM    6  C   UNL     1     -11.914  12.612  69.114  1.00  0.00    -0.293 C  
HETATM    7  C   UNL     1     -11.956  11.074  69.252  1.00  0.00    -0.339 C  
HETATM    8  C   UNL     1     -10.564  13.165  68.591  1.00  0.00    -0.259 C  
BRANCH   7   9
HETATM    9  O   UNL     1     -11.678  10.380  68.026  1.00  0.00    -0.383 OA 
BRANCH   9  10
HETATM   10  C   UNL     1     -10.755   9.384  68.071  1.00  0.00    -0.190 C  
HETATM   11  O   UNL     1     -10.660   8.474  67.263  1.00  0.00    -0.295 OA 
HETATM   12  C   UNL     1      -9.812   9.589  69.222  1.00  0.00    -0.184 C  
ENDBRANCH   9  10
ENDBRANCH   7   9
BRANCH   8  13
HETATM   13  C   UNL     1     -10.197  12.697  67.183  1.00  0.00    -0.225 C  
BRANCH  13  14
HETATM   14  N   UNL     1     -11.134  13.136  66.172  1.00  0.00    -0.280 NA 
HETATM   15  C   UNL     1     -12.008  12.347  65.477  1.00  0.00    -0.391 A  
HETATM   16  N   UNL     1     -12.666  13.036  64.566  1.00  0.00    -0.701 NA 
HETATM   17  C   UNL     1     -12.160  14.312  64.658  1.00  0.00    -0.463 A  
HETATM   18  C   UNL     1     -12.410  15.488  63.965  1.00  0.00     0.171 A  
HETATM   19  N   UNL     1     -11.704  16.608  64.272  1.00  0.00    -0.883 NA 
HETATM   20  C   UNL     1     -10.773  16.542  65.241  1.00  0.00    -0.254 A  
HETATM   21  N   UNL     1     -10.479  15.476  65.999  1.00  0.00    -0.307 NA 
HETATM   22  N   UNL     1     -10.069  17.703  65.492  1.00  0.00    -0.514 NA 
HETATM   23  H2  UNL     1     -10.719  18.464  65.690  1.00  0.00     0.000 HD 
HETATM   24  H1  UNL     1      -9.363  17.653  66.227  1.00  0.00     0.000 HD 
HETATM   25  C   UNL     1     -11.200  14.397  65.650  1.00  0.00    -0.323 A  
ENDBRANCH  13  14
ENDBRANCH   8  13
ENDBRANCH   4   5
ENDBRANCH   2   4
TORSDOF 6
ENDMDL
MODEL       36
REMARK 921   NORMALIZED FREE ENERGY PREDICTED BY IDOCK:   -5.94 KCAL/MOL
REMARK 922        TOTAL FREE ENERGY PREDICTED BY IDOCK:   -9.03 KCAL/MOL
REMARK 923 INTER-LIGAND FREE ENERGY PREDICTED BY IDOCK:   -8.58 KCAL/MOL
REMARK 924 INTRA-LIGAND FREE ENERGY PREDICTED BY IDOCK:   -0.45 KCAL/MOL
REMARK 927      BINDING AFFINITY PREDICTED BY RF-SCORE:    0.00 PKD
ROOT
HETATM    1  C   UNL     1      -9.634  10.340  63.028  1.00  0.00    -0.297 C  
HETATM    2  C   UNL     1     -10.280  11.448  63.803  1.00  0.00    -0.382 C  
HETATM    3  O   UNL     1     -11.204  12.131  63.385  1.00  0.00    -0.427 OA 
ENDROOT
BRANCH   2   4
HETATM    4  O   UNL     1      -9.669  11.602  65.010  1.00  0.00    -0.238 OA 
BRANCH   4   5
HETATM    5  C   UNL     1     -10.132  10.730  66.054  1.00  0.00    -0.249 C  
HETATM    6  C   UNL     1     -10.442  11.501  67.353  1.00  0.00    -0.240 C  
HETATM    7  C   UNL     1     -10.803  10.478  68.452  1.00  0.00    -0.240 C  
HETATM    8  C   UNL     1     -11.536  12.568  67.095  1.00  0.00    -0.437 C  
BRANCH   7   9
HETATM    9  O   UNL     1     -11.094  11.079  69.723  1.00  0.00    -0.259 OA 
BRANCH   9  10
HETATM   10  C   UNL     1     -11.438  10.246  70.740  1.00  0.00    -0.351 C  
HETATM   11  O   UNL     1     -10.658   9.567  71.389  1.00  0.00    -0.336 OA 
HETATM   12  C   UNL     1     -12.913  10.321  71.009  1.00  0.00    -0.488 C  
ENDBRANCH   9  10
ENDBRANCH   7   9
BRANCH   8  13
HETATM   13  C   UNL     1     -11.834  13.465  68.297  1.00  0.00    -0.358 C  
BRANCH  13  14
HETATM   14  N   UNL     1     -11.050  14.679  68.312  1.00  0.00    -0.261 NA 
HETATM   15  C   UNL     1     -10.463  15.254  69.405  1.00  0.00    -0.251 A  
HETATM   16  N   UNL     1      -9.889  16.402  69.100  1.00  0.00    -0.271 NA 
HETATM   17  C   UNL     1     -10.158  16.586  67.764  1.00  0.00    -0.264 A  
HETATM   18  C   UNL     1      -9.860  17.599  66.863  1.00  0.00    -0.306 A  
HETATM   19  N   UNL     1     -10.306  17.506  65.583  1.00  0.00    -0.633 NA 
HETATM   20  C   UNL     1     -11.032  16.432  65.225  1.00  0.00    -0.195 A  
HETATM   21  N   UNL     1     -11.343  15.381  65.997  1.00  0.00    -0.171 NA 
HETATM   22  N   UNL     1     -11.480  16.404  63.919  1.00  0.00    -1.618 NA 
HETATM   23  H2  UNL     1     -10.691  16.514  63.282  1.00  0.00     0.000 HD 
HETATM   24  H1  UNL     1     -12.032  15.590  63.648  1.00  0.00     0.000 HD 
HETATM   25  C   UNL     1     -10.884  15.526  67.252  1.00  0.00    -0.313 A  
ENDBRANCH  13  14
ENDBRANCH   8  13
ENDBRANCH   4   5
ENDBRANCH   2   4
TORSDOF 6
ENDMDL
MODEL       37
REMARK 921   NORMALIZED FREE ENERGY PREDICTED BY IDOCK:   -5.91 KCAL/MOL
REMARK 922        TOTAL FREE ENERGY PREDICTED BY IDOCK:   -8.99 KCAL/MOL
REMARK 923 INTER-LIGAND FREE ENERGY PREDICTED BY IDOCK:   -7.82 KCAL/MOL
REMARK 924 INTRA-LIGAND FREE ENERGY PREDICTED BY IDOCK:   -1.17 KCAL/MOL
REMARK 927      BINDING AFFINITY PREDICTED BY RF-SCORE:    0.00 PKD
ROOT
HETATM    1  C   UNL     1     -12.610  15.886  72.997  1.00  0.00    -0.606 C  
HETATM    2  C   UNL     1     -13.468  15.082  72.067  1.00  0.00    -0.401 C  
HETATM    3  O   UNL     1     -14.408  14.389  72.427  1.00  0.00    -0.505 OA 
ENDROOT
BRANCH   2   4
HETATM    4  O   UNL     1     -13.027  15.209  70.786  1.00  0.00    -0.393 OA 
BRANCH   4   5
HETATM    5  C   UNL     1     -12.392  14.044  70.231  1.00  0.00    -0.358 C  
HETATM    6  C   UNL     1     -11.263  14.418  69.248  1.00  0.00    -0.308 C  
HETATM    7  C   UNL     1     -10.730  13.119  68.605  1.00  0.00    -0.250 C  
HETATM    8  C   UNL     1     -10.181  15.260  69.969  1.00  0.00    -0.216 C  
BRANCH   7   9
HETATM    9  O   UNL     1      -9.682  13.341  67.648  1.00  0.00    -0.209 OA 
BRANCH   9  10
HETATM   10  C   UNL     1      -9.790  12.706  66.451  1.00  0.00    -0.259 C  
HETATM   11  O   UNL     1     -10.434  13.109  65.496  1.00  0.00    -0.278 OA 
HETATM   12  C   UNL     1      -8.948  11.463  66.433  1.00  0.00    -0.196 C  
ENDBRANCH   9  10
ENDBRANCH   7   9
BRANCH   8  13
HETATM   13  C   UNL     1      -9.074  15.777  69.050  1.00  0.00    -0.245 C  
BRANCH  13  14
HETATM   14  N   UNL     1      -9.393  17.042  68.426  1.00  0.00    -0.257 NA 
HETATM   15  C   UNL     1      -9.332  18.276  69.014  1.00  0.00    -0.093 A  
HETATM   16  N   UNL     1      -9.768  19.221  68.204  1.00  0.00    -0.340 NA 
HETATM   17  C   UNL     1     -10.161  18.555  67.066  1.00  0.00    -0.360 A  
HETATM   18  C   UNL     1     -10.726  18.969  65.868  1.00  0.00    -0.327 A  
HETATM   19  N   UNL     1     -11.042  18.044  64.924  1.00  0.00    -0.484 NA 
HETATM   20  C   UNL     1     -10.803  16.746  65.182  1.00  0.00    -0.138 A  
HETATM   21  N   UNL     1     -10.226  16.240  66.283  1.00  0.00    -0.312 NA 
HETATM   22  N   UNL     1     -11.168  15.849  64.198  1.00  0.00    -1.005 NA 
HETATM   23  H2  UNL     1     -10.731  16.110  63.315  1.00  0.00     0.000 HD 
HETATM   24  H1  UNL     1     -10.987  14.864  64.394  1.00  0.00     0.000 HD 
HETATM   25  C   UNL     1      -9.940  17.195  67.184  1.00  0.00    -0.283 A  
ENDBRANCH  13  14
ENDBRANCH   8  13
ENDBRANCH   4   5
ENDBRANCH   2   4
TORSDOF 6
ENDMDL
MODEL       38
REMARK 921   NORMALIZED FREE ENERGY PREDICTED BY IDOCK:   -5.91 KCAL/MOL
REMARK 922        TOTAL FREE ENERGY PREDICTED BY IDOCK:   -8.99 KCAL/MOL
REMARK 923 INTER-LIGAND FREE ENERGY PREDICTED BY IDOCK:   -8.19 KCAL/MOL
REMARK 924 INTRA-LIGAND FREE ENERGY PREDICTED BY IDOCK:   -0.79 KCAL/MOL
REMARK 927      BINDING AFFINITY PREDICTED BY RF-SCORE:    0.00 PKD
ROOT
HETATM    1  C   UNL     1      -9.704  17.767  68.900  1.00  0.00    -0.262 C  
HETATM    2  C   UNL     1      -9.230  16.355  69.074  1.00  0.00    -0.247 C  
HETATM    3  O   UNL     1      -8.058  16.013  69.017  1.00  0.00    -0.201 OA 
ENDROOT
BRANCH   2   4
HETATM    4  O   UNL     1     -10.287  15.520  69.265  1.00  0.00    -0.220 OA 
BRANCH   4   5
HETATM    5  C   UNL     1     -11.166  15.366  68.137  1.00  0.00    -0.325 C  
HETATM    6  C   UNL     1     -11.314  13.889  67.721  1.00  0.00    -0.335 C  
HETATM    7  C   UNL     1     -12.163  13.830  66.432  1.00  0.00    -0.436 C  
HETATM    8  C   UNL     1     -11.886  13.056  68.895  1.00  0.00    -0.358 C  
BRANCH   7   9
HETATM    9  O   UNL     1     -12.354  12.498  65.930  1.00  0.00    -0.626 OA 
BRANCH   9  10
HETATM   10  C   UNL     1     -11.466  12.049  65.006  1.00  0.00    -0.286 C  
HETATM   11  O   UNL     1     -10.528  11.301  65.235  1.00  0.00    -0.270 OA 
HETATM   12  C   UNL     1     -11.831  12.544  63.636  1.00  0.00    -0.610 C  
ENDBRANCH   9  10
ENDBRANCH   7   9
BRANCH   8  13
HETATM   13  C   UNL     1     -11.964  11.554  68.619  1.00  0.00    -0.246 C  
BRANCH  13  14
HETATM   14  N   UNL     1     -11.136  10.766  69.504  1.00  0.00    -0.258 NA 
HETATM   15  C   UNL     1      -9.817  10.455  69.319  1.00  0.00    -0.225 A  
HETATM   16  N   UNL     1      -9.371   9.650  70.263  1.00  0.00    -0.255 NA 
HETATM   17  C   UNL     1     -10.464   9.406  71.063  1.00  0.00    -0.322 A  
HETATM   18  C   UNL     1     -10.661   8.626  72.193  1.00  0.00    -0.347 A  
HETATM   19  N   UNL     1     -11.899   8.560  72.751  1.00  0.00    -0.241 NA 
HETATM   20  C   UNL     1     -12.904   9.252  72.184  1.00  0.00    -0.408 A  
HETATM   21  N   UNL     1     -12.818  10.064  71.120  1.00  0.00    -0.364 NA 
HETATM   22  N   UNL     1     -14.144   9.127  72.777  1.00  0.00    -1.013 NA 
HETATM   23  H2  UNL     1     -14.078   9.365  73.767  1.00  0.00     0.000 HD 
HETATM   24  H1  UNL     1     -14.906   9.650  72.347  1.00  0.00     0.000 HD 
HETATM   25  C   UNL     1     -11.576  10.088  70.606  1.00  0.00    -0.340 A  
ENDBRANCH  13  14
ENDBRANCH   8  13
ENDBRANCH   4   5
ENDBRANCH   2   4
TORSDOF 6
ENDMDL
MODEL       39
REMARK 921   NORMALIZED FREE ENERGY PREDICTED BY IDOCK:   -5.90 KCAL/MOL
REMARK 922        TOTAL FREE ENERGY PREDICTED BY IDOCK:   -8.98 KCAL/MOL
REMARK 923 INTER-LIGAND FREE ENERGY PREDICTED BY IDOCK:   -8.26 KCAL/MOL
REMARK 924 INTRA-LIGAND FREE ENERGY PREDICTED BY IDOCK:   -0.72 KCAL/MOL
REMARK 927      BINDING AFFINITY PREDICTED BY RF-SCORE:    0.00 PKD
ROOT
HETATM    1  C   UNL     1      -9.986   8.528  70.886  1.00  0.00    -0.237 C  
HETATM    2  C   UNL     1     -10.446   8.679  69.467  1.00  0.00    -0.220 C  
HETATM    3  O   UNL     1     -10.679   7.743  68.717  1.00  0.00    -0.170 OA 
ENDROOT
BRANCH   2   4
HETATM    4  O   UNL     1     -10.528   9.997  69.134  1.00  0.00    -0.195 OA 
BRANCH   4   5
HETATM    5  C   UNL     1     -10.582  10.277  67.725  1.00  0.00    -0.250 C  
HETATM    6  C   UNL     1     -11.502  11.473  67.411  1.00  0.00    -0.349 C  
HETATM    7  C   UNL     1     -11.604  11.618  65.876  1.00  0.00    -0.020 C  
HETATM    8  C   UNL     1     -10.995  12.745  68.136  1.00  0.00    -0.273 C  
BRANCH   7   9
HETATM    9  O   UNL     1     -12.457  12.694  65.456  1.00  0.00    -0.622 OA 
BRANCH   9  10
HETATM   10  C   UNL     1     -12.139  13.323  64.295  1.00  0.00    -0.416 C  
HETATM   11  O   UNL     1     -12.610  14.383  63.915  1.00  0.00    -0.814 OA 
HETATM   12  C   UNL     1     -11.068  12.568  63.561  1.00  0.00    -0.497 C  
ENDBRANCH   9  10
ENDBRANCH   7   9
BRANCH   8  13
HETATM   13  C   UNL     1     -11.907  13.962  67.979  1.00  0.00    -0.375 C  
BRANCH  13  14
HETATM   14  N   UNL     1     -11.777  14.916  69.057  1.00  0.00    -0.307 NA 
HETATM   15  C   UNL     1     -11.070  16.086  69.026  1.00  0.00    -0.320 A  
HETATM   16  N   UNL     1     -11.080  16.691  70.198  1.00  0.00    -0.212 NA 
HETATM   17  C   UNL     1     -11.790  15.849  71.022  1.00  0.00    -0.428 A  
HETATM   18  C   UNL     1     -12.129  15.896  72.366  1.00  0.00    -0.506 A  
HETATM   19  N   UNL     1     -12.828  14.868  72.915  1.00  0.00    -0.417 NA 
HETATM   20  C   UNL     1     -13.167  13.825  72.136  1.00  0.00    -0.447 A  
HETATM   21  N   UNL     1     -12.929  13.695  70.822  1.00  0.00    -0.194 NA 
HETATM   22  N   UNL     1     -13.854  12.798  72.752  1.00  0.00    -0.655 NA 
HETATM   23  H2  UNL     1     -14.685  13.168  73.214  1.00  0.00     0.000 HD 
HETATM   24  H1  UNL     1     -14.111  12.007  72.162  1.00  0.00     0.000 HD 
HETATM   25  C   UNL     1     -12.231  14.734  70.333  1.00  0.00    -0.336 A  
ENDBRANCH  13  14
ENDBRANCH   8  13
ENDBRANCH   4   5
ENDBRANCH   2   4
TORSDOF 6
ENDMDL
MODEL       40
REMARK 921   NORMALIZED FREE ENERGY PREDICTED BY IDOCK:   -5.89 KCAL/MOL
REMARK 922        TOTAL FREE ENERGY PREDICTED BY IDOCK:   -8.97 KCAL/MOL
REMARK 923 INTER-LIGAND FREE ENERGY PREDICTED BY IDOCK:   -8.19 KCAL/MOL
REMARK 924 INTRA-LIGAND FREE ENERGY PREDICTED BY IDOCK:   -0.78 KCAL/MOL
REMARK 927      BINDING AFFINITY PREDICTED BY RF-SCORE:    0.00 PKD
ROOT
HETATM    1  C   UNL     1     -13.118  10.230  71.759  1.00  0.00    -0.570 C  
HETATM    2  C   UNL     1     -11.834  10.422  71.010  1.00  0.00    -0.361 C  
HETATM    3  O   UNL     1     -10.836   9.734  71.170  1.00  0.00    -0.334 OA 
ENDROOT
BRANCH   2   4
HETATM    4  O   UNL     1     -11.932  11.485  70.165  1.00  0.00    -0.325 OA 
BRANCH   4   5
HETATM    5  C   UNL     1     -11.593  11.219  68.793  1.00  0.00    -0.316 C  
HETATM    6  C   UNL     1     -11.931  12.412  67.876  1.00  0.00    -0.260 C  
HETATM    7  C   UNL     1     -11.659  11.992  66.415  1.00  0.00    -0.313 C  
HETATM    8  C   UNL     1     -11.154  13.673  68.329  1.00  0.00    -0.281 C  
BRANCH   7   9
HETATM    9  O   UNL     1     -11.959  13.020  65.457  1.00  0.00    -0.374 OA 
BRANCH   9  10
HETATM   10  C   UNL     1     -11.753  12.727  64.146  1.00  0.00    -0.401 C  
HETATM   11  O   UNL     1     -12.593  12.813  63.265  1.00  0.00    -0.676 OA 
HETATM   12  C   UNL     1     -10.321  12.342  63.909  1.00  0.00    -0.455 C  
ENDBRANCH   9  10
ENDBRANCH   7   9
BRANCH   8  13
HETATM   13  C   UNL     1     -11.509  14.941  67.550  1.00  0.00    -0.348 C  
BRANCH  13  14
HETATM   14  N   UNL     1     -10.352  15.634  67.029  1.00  0.00    -0.283 NA 
HETATM   15  C   UNL     1      -9.376  15.101  66.233  1.00  0.00    -0.313 A  
HETATM   16  N   UNL     1      -8.413  15.970  65.999  1.00  0.00    -0.220 NA 
HETATM   17  C   UNL     1      -8.771  17.092  66.708  1.00  0.00    -0.244 A  
HETATM   18  C   UNL     1      -8.174  18.330  66.897  1.00  0.00    -0.247 A  
HETATM   19  N   UNL     1      -8.772  19.245  67.706  1.00  0.00    -0.299 NA 
HETATM   20  C   UNL     1      -9.929  18.918  68.309  1.00  0.00    -0.376 A  
HETATM   21  N   UNL     1     -10.612  17.773  68.166  1.00  0.00    -0.371 NA 
HETATM   22  N   UNL     1     -10.478  19.875  69.138  1.00  0.00    -0.553 NA 
HETATM   23  H2  UNL     1     -10.591  20.750  68.627  1.00  0.00     0.000 HD 
HETATM   24  H1  UNL     1     -11.355  19.628  69.596  1.00  0.00     0.000 HD 
HETATM   25  C   UNL     1      -9.974  16.904  67.363  1.00  0.00    -0.269 A  
ENDBRANCH  13  14
ENDBRANCH   8  13
ENDBRANCH   4   5
ENDBRANCH   2   4
TORSDOF 6
ENDMDL
MODEL       41
REMARK 921   NORMALIZED FREE ENERGY PREDICTED BY IDOCK:   -5.88 KCAL/MOL
REMARK 922        TOTAL FREE ENERGY PREDICTED BY IDOCK:   -8.95 KCAL/MOL
REMARK 923 INTER-LIGAND FREE ENERGY PREDICTED BY IDOCK:   -8.27 KCAL/MOL
REMARK 924 INTRA-LIGAND FREE ENERGY PREDICTED BY IDOCK:   -0.68 KCAL/MOL
REMARK 927      BINDING AFFINITY PREDICTED BY RF-SCORE:    0.00 PKD
ROOT
HETATM    1  C   UNL     1     -11.029  15.218  65.518  1.00  0.00    -0.365 C  
HETATM    2  C   UNL     1     -12.101  14.386  64.882  1.00  0.00    -0.436 C  
HETATM    3  O   UNL     1     -12.634  14.652  63.815  1.00  0.00    -0.820 OA 
ENDROOT
BRANCH   2   4
HETATM    4  O   UNL     1     -12.413  13.326  65.677  1.00  0.00    -0.457 OA 
BRANCH   4   5
HETATM    5  C   UNL     1     -11.666  12.123  65.425  1.00  0.00    -0.321 C  
HETATM    6  C   UNL     1     -10.855  11.681  66.660  1.00  0.00    -0.327 C  
HETATM    7  C   UNL     1      -9.987  10.467  66.261  1.00  0.00    -0.226 C  
HETATM    8  C   UNL     1     -11.801  11.419  67.858  1.00  0.00    -0.239 C  
BRANCH   7   9
HETATM    9  O   UNL     1      -9.164   9.974  67.330  1.00  0.00    -0.140 OA 
BRANCH   9  10
HETATM   10  C   UNL     1      -9.185   8.636  67.564  1.00  0.00    -0.133 C  
HETATM   11  O   UNL     1      -8.513   8.056  68.402  1.00  0.00    -0.126 OA 
HETATM   12  C   UNL     1     -10.206   7.962  66.692  1.00  0.00    -0.303 C  
ENDBRANCH   9  10
ENDBRANCH   7   9
BRANCH   8  13
HETATM   13  C   UNL     1     -11.081  11.085  69.165  1.00  0.00    -0.243 C  
BRANCH  13  14
HETATM   14  N   UNL     1     -11.908  11.266  70.336  1.00  0.00    -0.348 NA 
HETATM   15  C   UNL     1     -12.401  10.277  71.143  1.00  0.00    -0.395 A  
HETATM   16  N   UNL     1     -13.192  10.764  72.079  1.00  0.00    -0.455 NA 
HETATM   17  C   UNL     1     -13.237  12.117  71.834  1.00  0.00    -0.369 A  
HETATM   18  C   UNL     1     -13.906  13.172  72.436  1.00  0.00    -0.483 A  
HETATM   19  N   UNL     1     -13.772  14.426  71.928  1.00  0.00    -0.393 NA 
HETATM   20  C   UNL     1     -12.995  14.607  70.845  1.00  0.00    -0.365 A  
HETATM   21  N   UNL     1     -12.274  13.671  70.210  1.00  0.00    -0.349 NA 
HETATM   22  N   UNL     1     -12.916  15.896  70.358  1.00  0.00    -0.710 NA 
HETATM   23  H2  UNL     1     -12.622  16.528  71.102  1.00  0.00     0.000 HD 
HETATM   24  H1  UNL     1     -12.327  16.033  69.536  1.00  0.00     0.000 HD 
HETATM   25  C   UNL     1     -12.447  12.452  70.749  1.00  0.00    -0.267 A  
ENDBRANCH  13  14
ENDBRANCH   8  13
ENDBRANCH   4   5
ENDBRANCH   2   4
TORSDOF 6
ENDMDL
MODEL       42
REMARK 921   NORMALIZED FREE ENERGY PREDICTED BY IDOCK:   -5.85 KCAL/MOL
REMARK 922        TOTAL FREE ENERGY PREDICTED BY IDOCK:   -8.91 KCAL/MOL
REMARK 923 INTER-LIGAND FREE ENERGY PREDICTED BY IDOCK:   -8.07 KCAL/MOL
REMARK 924 INTRA-LIGAND FREE ENERGY PREDICTED BY IDOCK:   -0.83 KCAL/MOL
REMARK 927      BINDING AFFINITY PREDICTED BY RF-SCORE:    0.00 PKD
ROOT
HETATM    1  C   UNL     1      -9.231   6.957  68.726  1.00  0.00    -0.131 C  
HETATM    2  C   UNL     1     -10.448   7.421  69.467  1.00  0.00    -0.232 C  
HETATM    3  O   UNL     1     -10.992   6.787  70.360  1.00  0.00    -0.249 OA 
ENDROOT
BRANCH   2   4
HETATM    4  O   UNL     1     -10.872   8.619  68.980  1.00  0.00    -0.153 OA 
BRANCH   4   5
HETATM    5  C   UNL     1     -10.188   9.087  67.805  1.00  0.00    -0.230 C  
HETATM    6  C   UNL     1     -10.883  10.315  67.185  1.00  0.00    -0.278 C  
HETATM    7  C   UNL     1     -10.164  10.665  65.864  1.00  0.00    -0.251 C  
HETATM    8  C   UNL     1     -10.932  11.477  68.208  1.00  0.00    -0.272 C  
BRANCH   7   9
HETATM    9  O   UNL     1     -10.738  11.788  65.177  1.00  0.00    -0.275 OA 
BRANCH   9  10
HETATM   10  C   UNL     1     -10.966  11.651  63.844  1.00  0.00    -0.407 C  
HETATM   11  O   UNL     1     -10.184  11.167  63.042  1.00  0.00    -0.309 OA 
HETATM   12  C   UNL     1     -12.350  12.118  63.494  1.00  0.00    -0.682 C  
ENDBRANCH   9  10
ENDBRANCH   7   9
BRANCH   8  13
HETATM   13  C   UNL     1     -11.706  12.705  67.726  1.00  0.00    -0.356 C  
BRANCH  13  14
HETATM   14  N   UNL     1     -10.989  13.945  67.920  1.00  0.00    -0.245 NA 
HETATM   15  C   UNL     1     -10.425  14.383  69.086  1.00  0.00    -0.189 A  
HETATM   16  N   UNL     1      -9.917  15.593  68.955  1.00  0.00    -0.219 NA 
HETATM   17  C   UNL     1     -10.205  15.957  67.660  1.00  0.00    -0.263 A  
HETATM   18  C   UNL     1      -9.970  17.107  66.920  1.00  0.00    -0.288 A  
HETATM   19  N   UNL     1     -10.420  17.181  65.639  1.00  0.00    -0.575 NA 
HETATM   20  C   UNL     1     -11.091  16.133  65.127  1.00  0.00    -0.249 A  
HETATM   21  N   UNL     1     -11.338  14.964  65.735  1.00  0.00    -0.337 NA 
HETATM   22  N   UNL     1     -11.547  16.274  63.831  1.00  0.00    -1.573 NA 
HETATM   23  H2  UNL     1     -10.770  16.519  63.217  1.00  0.00     0.000 HD 
HETATM   24  H1  UNL     1     -12.056  15.480  63.442  1.00  0.00     0.000 HD 
HETATM   25  C   UNL     1     -10.878  14.947  66.997  1.00  0.00    -0.315 A  
ENDBRANCH  13  14
ENDBRANCH   8  13
ENDBRANCH   4   5
ENDBRANCH   2   4
TORSDOF 6
ENDMDL
MODEL       43
REMARK 921   NORMALIZED FREE ENERGY PREDICTED BY IDOCK:   -5.82 KCAL/MOL
REMARK 922        TOTAL FREE ENERGY PREDICTED BY IDOCK:   -8.87 KCAL/MOL
REMARK 923 INTER-LIGAND FREE ENERGY PREDICTED BY IDOCK:   -8.15 KCAL/MOL
REMARK 924 INTRA-LIGAND FREE ENERGY PREDICTED BY IDOCK:   -0.72 KCAL/MOL
REMARK 927      BINDING AFFINITY PREDICTED BY RF-SCORE:    0.00 PKD
ROOT
HETATM    1  C   UNL     1     -10.619  19.446  66.117  1.00  0.00    -0.571 C  
HETATM    2  C   UNL     1     -10.550  19.059  67.563  1.00  0.00    -0.461 C  
HETATM    3  O   UNL     1     -10.359  19.848  68.477  1.00  0.00    -0.448 OA 
ENDROOT
BRANCH   2   4
HETATM    4  O   UNL     1     -10.693  17.712  67.701  1.00  0.00    -0.374 OA 
BRANCH   4   5
HETATM    5  C   UNL     1     -10.536  17.207  69.038  1.00  0.00    -0.282 C  
HETATM    6  C   UNL     1     -11.457  16.000  69.308  1.00  0.00    -0.350 C  
HETATM    7  C   UNL     1     -11.321  15.608  70.796  1.00  0.00    -0.371 C  
HETATM    8  C   UNL     1     -11.140  14.851  68.318  1.00  0.00    -0.290 C  
BRANCH   7   9
HETATM    9  O   UNL     1     -12.153  14.501  71.177  1.00  0.00    -0.316 OA 
BRANCH   9  10
HETATM   10  C   UNL     1     -12.816  14.600  72.359  1.00  0.00    -0.359 C  
HETATM   11  O   UNL     1     -13.721  13.866  72.723  1.00  0.00    -0.686 OA 
HETATM   12  C   UNL     1     -12.238  15.703  73.199  1.00  0.00    -0.587 C  
ENDBRANCH   9  10
ENDBRANCH   7   9
BRANCH   8  13
HETATM   13  C   UNL     1     -12.079  13.649  68.430  1.00  0.00    -0.277 C  
BRANCH  13  14
HETATM   14  N   UNL     1     -11.462  12.403  68.033  1.00  0.00    -0.299 NA 
HETATM   15  C   UNL     1     -10.999  12.087  66.786  1.00  0.00    -0.285 A  
HETATM   16  N   UNL     1     -10.570  10.842  66.729  1.00  0.00    -0.255 NA 
HETATM   17  C   UNL     1     -10.807  10.330  67.984  1.00  0.00    -0.275 A  
HETATM   18  C   UNL     1     -10.610   9.081  68.555  1.00  0.00    -0.155 A  
HETATM   19  N   UNL     1     -10.990   8.869  69.843  1.00  0.00    -0.217 NA 
HETATM   20  C   UNL     1     -11.554   9.879  70.528  1.00  0.00    -0.309 A  
HETATM   21  N   UNL     1     -11.754  11.131  70.091  1.00  0.00    -0.331 NA 
HETATM   22  N   UNL     1     -11.943   9.599  71.823  1.00  0.00    -0.381 NA 
HETATM   23  H2  UNL     1     -11.151   9.228  72.347  1.00  0.00     0.000 HD 
HETATM   24  H1  UNL     1     -12.372  10.365  72.342  1.00  0.00     0.000 HD 
HETATM   25  C   UNL     1     -11.368  11.284  68.812  1.00  0.00    -0.270 A  
ENDBRANCH  13  14
ENDBRANCH   8  13
ENDBRANCH   4   5
ENDBRANCH   2   4
TORSDOF 6
ENDMDL
MODEL       44
REMARK 921   NORMALIZED FREE ENERGY PREDICTED BY IDOCK:   -5.79 KCAL/MOL
REMARK 922        TOTAL FREE ENERGY PREDICTED BY IDOCK:   -8.83 KCAL/MOL
REMARK 923 INTER-LIGAND FREE ENERGY PREDICTED BY IDOCK:   -8.21 KCAL/MOL
REMARK 924 INTRA-LIGAND FREE ENERGY PREDICTED BY IDOCK:   -0.62 KCAL/MOL
REMARK 927      BINDING AFFINITY PREDICTED BY RF-SCORE:    0.00 PKD
ROOT
HETATM    1  C   UNL     1     -11.370  11.736  63.661  1.00  0.00    -0.525 C  
HETATM    2  C   UNL     1     -12.160  12.911  64.152  1.00  0.00    -0.432 C  
HETATM    3  O   UNL     1     -12.678  13.743  63.422  1.00  0.00    -0.795 OA 
ENDROOT
BRANCH   2   4
HETATM    4  O   UNL     1     -12.183  12.932  65.513  1.00  0.00    -0.435 OA 
BRANCH   4   5
HETATM    5  C   UNL     1     -11.326  11.977  66.161  1.00  0.00    -0.351 C  
HETATM    6  C   UNL     1     -10.021  12.625  66.667  1.00  0.00    -0.247 C  
HETATM    7  C   UNL     1      -9.110  11.511  67.226  1.00  0.00    -0.164 C  
HETATM    8  C   UNL     1     -10.341  13.753  67.680  1.00  0.00    -0.239 C  
BRANCH   7   9
HETATM    9  O   UNL     1      -7.847  11.992  67.711  1.00  0.00    -0.126 OA 
BRANCH   9  10
HETATM   10  C   UNL     1      -6.759  11.785  66.923  1.00  0.00    -0.105 C  
HETATM   11  O   UNL     1      -5.847  12.580  66.759  1.00  0.00    -0.245 OA 
HETATM   12  C   UNL     1      -6.793  10.408  66.326  1.00  0.00    -0.117 C  
ENDBRANCH   9  10
ENDBRANCH   7   9
BRANCH   8  13
HETATM   13  C   UNL     1      -9.116  14.535  68.155  1.00  0.00    -0.191 C  
BRANCH  13  14
HETATM   14  N   UNL     1      -9.240  15.963  67.963  1.00  0.00    -0.192 NA 
HETATM   15  C   UNL     1      -8.905  16.935  68.865  1.00  0.00    -0.216 A  
HETATM   16  N   UNL     1      -9.218  18.137  68.421  1.00  0.00    -0.300 NA 
HETATM   17  C   UNL     1      -9.814  17.917  67.201  1.00  0.00    -0.308 A  
HETATM   18  C   UNL     1     -10.383  18.756  66.254  1.00  0.00    -0.448 A  
HETATM   19  N   UNL     1     -10.938  18.222  65.135  1.00  0.00    -0.493 NA 
HETATM   20  C   UNL     1     -10.926  16.886  64.979  1.00  0.00    -0.046 A  
HETATM   21  N   UNL     1     -10.371  15.988  65.806  1.00  0.00    -0.358 NA 
HETATM   22  N   UNL     1     -11.527  16.397  63.837  1.00  0.00    -1.618 NA 
HETATM   23  H2  UNL     1     -11.118  16.843  63.015  1.00  0.00     0.000 HD 
HETATM   24  H1  UNL     1     -11.519  15.384  63.719  1.00  0.00     0.000 HD 
HETATM   25  C   UNL     1      -9.843  16.568  66.897  1.00  0.00    -0.257 A  
ENDBRANCH  13  14
ENDBRANCH   8  13
ENDBRANCH   4   5
ENDBRANCH   2   4
TORSDOF 6
ENDMDL
MODEL       45
REMARK 921   NORMALIZED FREE ENERGY PREDICTED BY IDOCK:   -5.76 KCAL/MOL
REMARK 922        TOTAL FREE ENERGY PREDICTED BY IDOCK:   -8.79 KCAL/MOL
REMARK 923 INTER-LIGAND FREE ENERGY PREDICTED BY IDOCK:   -8.29 KCAL/MOL
REMARK 924 INTRA-LIGAND FREE ENERGY PREDICTED BY IDOCK:   -0.50 KCAL/MOL
REMARK 927      BINDING AFFINITY PREDICTED BY RF-SCORE:    0.00 PKD
ROOT
HETATM    1  C   UNL     1     -13.663  15.470  71.970  1.00  0.00    -0.599 C  
HETATM    2  C   UNL     1     -12.582  15.319  70.942  1.00  0.00    -0.412 C  
HETATM    3  O   UNL     1     -11.765  16.188  70.672  1.00  0.00    -0.368 OA 
ENDROOT
BRANCH   2   4
HETATM    4  O   UNL     1     -12.668  14.102  70.339  1.00  0.00    -0.342 OA 
BRANCH   4   5
HETATM    5  C   UNL     1     -12.562  12.968  71.217  1.00  0.00    -0.279 C  
HETATM    6  C   UNL     1     -12.519  11.639  70.435  1.00  0.00    -0.304 C  
HETATM    7  C   UNL     1     -12.538  10.477  71.452  1.00  0.00    -0.434 C  
HETATM    8  C   UNL     1     -11.303  11.621  69.474  1.00  0.00    -0.328 C  
BRANCH   7   9
HETATM    9  O   UNL     1     -12.523   9.178  70.840  1.00  0.00    -0.230 OA 
BRANCH   9  10
HETATM   10  C   UNL     1     -12.736   8.107  71.650  1.00  0.00    -0.321 C  
HETATM   11  O   UNL     1     -11.917   7.634  72.422  1.00  0.00    -0.299 OA 
HETATM   12  C   UNL     1     -14.149   7.617  71.518  1.00  0.00    -0.535 C  
ENDBRANCH   9  10
ENDBRANCH   7   9
BRANCH   8  13
HETATM   13  C   UNL     1     -11.237  10.389  68.570  1.00  0.00    -0.251 C  
BRANCH  13  14
HETATM   14  N   UNL     1     -10.666  10.664  67.271  1.00  0.00    -0.270 NA 
HETATM   15  C   UNL     1      -9.512  10.136  66.762  1.00  0.00    -0.168 A  
HETATM   16  N   UNL     1      -9.219  10.652  65.585  1.00  0.00    -0.187 NA 
HETATM   17  C   UNL     1     -10.209  11.579  65.351  1.00  0.00    -0.264 A  
HETATM   18  C   UNL     1     -10.455  12.468  64.315  1.00  0.00    -0.378 A  
HETATM   19  N   UNL     1     -11.524  13.304  64.391  1.00  0.00    -0.362 NA 
HETATM   20  C   UNL     1     -12.314  13.248  65.479  1.00  0.00    -0.480 A  
HETATM   21  N   UNL     1     -12.194  12.405  66.515  1.00  0.00    -0.528 NA 
HETATM   22  N   UNL     1     -13.370  14.137  65.514  1.00  0.00    -0.666 NA 
HETATM   23  H2  UNL     1     -13.936  14.033  64.672  1.00  0.00     0.000 HD 
HETATM   24  H1  UNL     1     -13.968  14.096  66.339  1.00  0.00     0.000 HD 
HETATM   25  C   UNL     1     -11.119  11.607  66.391  1.00  0.00    -0.291 A  
ENDBRANCH  13  14
ENDBRANCH   8  13
ENDBRANCH   4   5
ENDBRANCH   2   4
TORSDOF 6
ENDMDL
MODEL       46
REMARK 921   NORMALIZED FREE ENERGY PREDICTED BY IDOCK:   -5.71 KCAL/MOL
REMARK 922        TOTAL FREE ENERGY PREDICTED BY IDOCK:   -8.73 KCAL/MOL
REMARK 923 INTER-LIGAND FREE ENERGY PREDICTED BY IDOCK:   -7.81 KCAL/MOL
REMARK 924 INTRA-LIGAND FREE ENERGY PREDICTED BY IDOCK:   -0.92 KCAL/MOL
REMARK 927      BINDING AFFINITY PREDICTED BY RF-SCORE:    0.00 PKD
ROOT
HETATM    1  C   UNL     1      -9.915  20.198  67.304  1.00  0.00    -0.583 C  
HETATM    2  C   UNL     1      -9.265  19.370  66.236  1.00  0.00    -0.348 C  
HETATM    3  O   UNL     1      -8.181  19.627  65.733  1.00  0.00    -0.408 OA 
ENDROOT
BRANCH   2   4
HETATM    4  O   UNL     1     -10.067  18.326  65.891  1.00  0.00    -0.542 OA 
BRANCH   4   5
HETATM    5  C   UNL     1      -9.431  17.037  65.871  1.00  0.00    -0.082 C  
HETATM    6  C   UNL     1      -9.123  16.525  67.293  1.00  0.00    -0.214 C  
HETATM    7  C   UNL     1      -8.327  15.207  67.172  1.00  0.00    -0.219 C  
HETATM    8  C   UNL     1     -10.430  16.405  68.115  1.00  0.00    -0.302 C  
BRANCH   7   9
HETATM    9  O   UNL     1      -7.960  14.640  68.440  1.00  0.00    -0.124 OA 
BRANCH   9  10
HETATM   10  C   UNL     1      -6.633  14.541  68.715  1.00  0.00    -0.088 C  
HETATM   11  O   UNL     1      -5.764  15.275  68.271  1.00  0.00    -0.103 OA 
HETATM   12  C   UNL     1      -6.378  13.439  69.702  1.00  0.00    -0.093 C  
ENDBRANCH   9  10
ENDBRANCH   7   9
BRANCH   8  13
HETATM   13  C   UNL     1     -10.217  16.013  69.578  1.00  0.00    -0.274 C  
BRANCH  13  14
HETATM   14  N   UNL     1     -11.015  14.879  69.988  1.00  0.00    -0.234 NA 
HETATM   15  C   UNL     1     -11.237  13.739  69.266  1.00  0.00    -0.242 A  
HETATM   16  N   UNL     1     -12.078  12.931  69.882  1.00  0.00    -0.296 NA 
HETATM   17  C   UNL     1     -12.437  13.604  71.026  1.00  0.00    -0.377 A  
HETATM   18  C   UNL     1     -13.303  13.311  72.071  1.00  0.00    -0.489 A  
HETATM   19  N   UNL     1     -13.477  14.217  73.068  1.00  0.00    -0.635 NA 
HETATM   20  C   UNL     1     -12.807  15.382  73.010  1.00  0.00    -0.463 A  
HETATM   21  N   UNL     1     -11.920  15.751  72.074  1.00  0.00    -0.429 NA 
HETATM   22  N   UNL     1     -13.043  16.275  74.036  1.00  0.00    -0.932 NA 
HETATM   23  H2  UNL     1     -12.869  15.823  74.933  1.00  0.00     0.000 HD 
HETATM   24  H1  UNL     1     -12.536  17.159  73.992  1.00  0.00     0.000 HD 
HETATM   25  C   UNL     1     -11.791  14.823  71.111  1.00  0.00    -0.334 A  
ENDBRANCH  13  14
ENDBRANCH   8  13
ENDBRANCH   4   5
ENDBRANCH   2   4
TORSDOF 6
ENDMDL
MODEL       47
REMARK 921   NORMALIZED FREE ENERGY PREDICTED BY IDOCK:   -5.69 KCAL/MOL
REMARK 922        TOTAL FREE ENERGY PREDICTED BY IDOCK:   -8.69 KCAL/MOL
REMARK 923 INTER-LIGAND FREE ENERGY PREDICTED BY IDOCK:   -8.00 KCAL/MOL
REMARK 924 INTRA-LIGAND FREE ENERGY PREDICTED BY IDOCK:   -0.69 KCAL/MOL
REMARK 927      BINDING AFFINITY PREDICTED BY RF-SCORE:    0.00 PKD
ROOT
HETATM    1  C   UNL     1     -11.586  12.054  63.235  1.00  0.00    -0.409 C  
HETATM    2  C   UNL     1     -12.284  13.050  64.110  1.00  0.00    -0.401 C  
HETATM    3  O   UNL     1     -12.507  14.208  63.790  1.00  0.00    -0.791 OA 
ENDROOT
BRANCH   2   4
HETATM    4  O   UNL     1     -12.595  12.490  65.311  1.00  0.00    -0.645 OA 
BRANCH   4   5
HETATM    5  C   UNL     1     -11.486  11.938  66.043  1.00  0.00    -0.281 C  
HETATM    6  C   UNL     1     -10.523  13.035  66.540  1.00  0.00    -0.284 C  
HETATM    7  C   UNL     1      -9.304  12.349  67.194  1.00  0.00    -0.199 C  
HETATM    8  C   UNL     1     -11.270  14.024  67.470  1.00  0.00    -0.328 C  
BRANCH   7   9
HETATM    9  O   UNL     1      -8.318  13.274  67.681  1.00  0.00    -0.155 OA 
BRANCH   9  10
HETATM   10  C   UNL     1      -7.030  12.843  67.724  1.00  0.00    -0.138 C  
HETATM   11  O   UNL     1      -6.075  13.427  67.235  1.00  0.00    -0.330 OA 
HETATM   12  C   UNL     1      -6.923  11.574  68.519  1.00  0.00    -0.083 C  
ENDBRANCH   9  10
ENDBRANCH   7   9
BRANCH   8  13
HETATM   13  C   UNL     1     -10.427  15.215  67.925  1.00  0.00    -0.245 C  
BRANCH  13  14
HETATM   14  N   UNL     1     -10.545  16.364  67.056  1.00  0.00    -0.292 NA 
HETATM   15  C   UNL     1     -10.605  16.347  65.690  1.00  0.00    -0.323 A  
HETATM   16  N   UNL     1     -10.625  17.567  65.190  1.00  0.00    -0.526 NA 
HETATM   17  C   UNL     1     -10.534  18.397  66.283  1.00  0.00    -0.393 A  
HETATM   18  C   UNL     1     -10.478  19.776  66.429  1.00  0.00    -0.507 A  
HETATM   19  N   UNL     1     -10.350  20.311  67.672  1.00  0.00    -0.322 NA 
HETATM   20  C   UNL     1     -10.275  19.483  68.730  1.00  0.00    -0.349 A  
HETATM   21  N   UNL     1     -10.360  18.145  68.708  1.00  0.00    -0.327 NA 
HETATM   22  N   UNL     1     -10.121  20.081  69.964  1.00  0.00    -0.306 NA 
HETATM   23  H2  UNL     1     -10.865  20.762  70.113  1.00  0.00     0.000 HD 
HETATM   24  H1  UNL     1     -10.063  19.454  70.767  1.00  0.00     0.000 HD 
HETATM   25  C   UNL     1     -10.478  17.669  67.457  1.00  0.00    -0.365 A  
ENDBRANCH  13  14
ENDBRANCH   8  13
ENDBRANCH   4   5
ENDBRANCH   2   4
TORSDOF 6
ENDMDL
MODEL       48
REMARK 921   NORMALIZED FREE ENERGY PREDICTED BY IDOCK:   -5.67 KCAL/MOL
REMARK 922        TOTAL FREE ENERGY PREDICTED BY IDOCK:   -8.67 KCAL/MOL
REMARK 923 INTER-LIGAND FREE ENERGY PREDICTED BY IDOCK:   -7.98 KCAL/MOL
REMARK 924 INTRA-LIGAND FREE ENERGY PREDICTED BY IDOCK:   -0.70 KCAL/MOL
REMARK 927      BINDING AFFINITY PREDICTED BY RF-SCORE:    0.00 PKD
ROOT
HETATM    1  C   UNL     1     -10.481   8.322  67.261  1.00  0.00    -0.373 C  
HETATM    2  C   UNL     1      -9.651   9.425  66.675  1.00  0.00    -0.192 C  
HETATM    3  O   UNL     1      -8.507   9.281  66.269  1.00  0.00    -0.122 OA 
ENDROOT
BRANCH   2   4
HETATM    4  O   UNL     1     -10.339  10.599  66.698  1.00  0.00    -0.227 OA 
BRANCH   4   5
HETATM    5  C   UNL     1     -11.254  10.759  67.796  1.00  0.00    -0.316 C  
HETATM    6  C   UNL     1     -11.073  12.119  68.501  1.00  0.00    -0.295 C  
HETATM    7  C   UNL     1     -11.997  12.150  69.738  1.00  0.00    -0.302 C  
HETATM    8  C   UNL     1     -11.312  13.278  67.501  1.00  0.00    -0.329 C  
BRANCH   7   9
HETATM    9  O   UNL     1     -11.901  13.367  70.495  1.00  0.00    -0.278 OA 
BRANCH   9  10
HETATM   10  C   UNL     1     -12.919  13.649  71.350  1.00  0.00    -0.347 C  
HETATM   11  O   UNL     1     -13.412  12.862  72.142  1.00  0.00    -0.523 OA 
HETATM   12  C   UNL     1     -13.319  15.092  71.238  1.00  0.00    -0.551 C  
ENDBRANCH   9  10
ENDBRANCH   7   9
BRANCH   8  13
HETATM   13  C   UNL     1     -11.044  14.669  68.077  1.00  0.00    -0.281 C  
BRANCH  13  14
HETATM   14  N   UNL     1     -10.842  15.679  67.063  1.00  0.00    -0.315 NA 
HETATM   15  C   UNL     1     -10.751  15.469  65.714  1.00  0.00    -0.353 A  
HETATM   16  N   UNL     1     -10.481  16.585  65.067  1.00  0.00    -0.655 NA 
HETATM   17  C   UNL     1     -10.355  17.540  66.049  1.00  0.00    -0.306 A  
HETATM   18  C   UNL     1     -10.052  18.894  66.027  1.00  0.00    -0.329 A  
HETATM   19  N   UNL     1      -9.964  19.578  67.198  1.00  0.00    -0.349 NA 
HETATM   20  C   UNL     1     -10.168  18.916  68.352  1.00  0.00    -0.373 A  
HETATM   21  N   UNL     1     -10.504  17.625  68.487  1.00  0.00    -0.358 NA 
HETATM   22  N   UNL     1     -10.040  19.655  69.511  1.00  0.00    -0.538 NA 
HETATM   23  H2  UNL     1     -10.652  20.470  69.469  1.00  0.00     0.000 HD 
HETATM   24  H1  UNL     1     -10.194  19.154  70.386  1.00  0.00     0.000 HD 
HETATM   25  C   UNL     1     -10.571  16.996  67.302  1.00  0.00    -0.267 A  
ENDBRANCH  13  14
ENDBRANCH   8  13
ENDBRANCH   4   5
ENDBRANCH   2   4
TORSDOF 6
ENDMDL
MODEL       49
REMARK 921   NORMALIZED FREE ENERGY PREDICTED BY IDOCK:   -5.66 KCAL/MOL
REMARK 922        TOTAL FREE ENERGY PREDICTED BY IDOCK:   -8.65 KCAL/MOL
REMARK 923 INTER-LIGAND FREE ENERGY PREDICTED BY IDOCK:   -7.98 KCAL/MOL
REMARK 924 INTRA-LIGAND FREE ENERGY PREDICTED BY IDOCK:   -0.67 KCAL/MOL
REMARK 927      BINDING AFFINITY PREDICTED BY RF-SCORE:    0.00 PKD
ROOT
HETATM    1  C   UNL     1      -9.969  19.411  68.687  1.00  0.00    -0.527 C  
HETATM    2  C   UNL     1      -8.812  18.487  68.450  1.00  0.00    -0.322 C  
HETATM    3  O   UNL     1      -7.640  18.837  68.465  1.00  0.00    -0.305 OA 
ENDROOT
BRANCH   2   4
HETATM    4  O   UNL     1      -9.256  17.229  68.185  1.00  0.00    -0.252 OA 
BRANCH   4   5
HETATM    5  C   UNL     1      -9.740  17.012  66.849  1.00  0.00    -0.262 C  
HETATM    6  C   UNL     1     -10.079  15.529  66.594  1.00  0.00    -0.275 C  
HETATM    7  C   UNL     1     -10.461  15.367  65.106  1.00  0.00    -0.411 C  
HETATM    8  C   UNL     1     -11.169  15.050  67.585  1.00  0.00    -0.331 C  
BRANCH   7   9
HETATM    9  O   UNL     1     -10.779  14.016  64.739  1.00  0.00    -0.394 OA 
BRANCH   9  10
HETATM   10  C   UNL     1     -11.899  13.822  63.994  1.00  0.00    -0.370 C  
HETATM   11  O   UNL     1     -12.722  14.682  63.721  1.00  0.00    -0.778 OA 
HETATM   12  C   UNL     1     -11.959  12.410  63.487  1.00  0.00    -0.627 C  
ENDBRANCH   9  10
ENDBRANCH   7   9
BRANCH   8  13
HETATM   13  C   UNL     1     -11.493  13.558  67.487  1.00  0.00    -0.329 C  
BRANCH  13  14
HETATM   14  N   UNL     1     -11.853  12.968  68.757  1.00  0.00    -0.318 NA 
HETATM   15  C   UNL     1     -12.387  13.620  69.834  1.00  0.00    -0.249 A  
HETATM   16  N   UNL     1     -12.522  12.815  70.870  1.00  0.00    -0.345 NA 
HETATM   17  C   UNL     1     -12.016  11.608  70.447  1.00  0.00    -0.358 A  
HETATM   18  C   UNL     1     -11.847  10.377  71.064  1.00  0.00    -0.361 A  
HETATM   19  N   UNL     1     -11.268   9.358  70.376  1.00  0.00    -0.254 NA 
HETATM   20  C   UNL     1     -10.868   9.576  69.110  1.00  0.00    -0.173 A  
HETATM   21  N   UNL     1     -11.018  10.706  68.405  1.00  0.00    -0.231 NA 
HETATM   22  N   UNL     1     -10.264   8.513  68.469  1.00  0.00    -0.195 NA 
HETATM   23  H2  UNL     1     -10.876   7.698  68.501  1.00  0.00     0.000 HD 
HETATM   24  H1  UNL     1      -9.960   8.678  67.509  1.00  0.00     0.000 HD 
HETATM   25  C   UNL     1     -11.588  11.681  69.134  1.00  0.00    -0.314 A  
ENDBRANCH  13  14
ENDBRANCH   8  13
ENDBRANCH   4   5
ENDBRANCH   2   4
TORSDOF 6
ENDMDL
MODEL       50
REMARK 921   NORMALIZED FREE ENERGY PREDICTED BY IDOCK:   -5.63 KCAL/MOL
REMARK 922        TOTAL FREE ENERGY PREDICTED BY IDOCK:   -8.61 KCAL/MOL
REMARK 923 INTER-LIGAND FREE ENERGY PREDICTED BY IDOCK:   -7.92 KCAL/MOL
REMARK 924 INTRA-LIGAND FREE ENERGY PREDICTED BY IDOCK:   -0.69 KCAL/MOL
REMARK 927      BINDING AFFINITY PREDICTED BY RF-SCORE:    0.00 PKD
ROOT
HETATM    1  C   UNL     1      -6.081   9.463  70.194  1.00  0.00    -0.042 C  
HETATM    2  C   UNL     1      -6.605  10.853  69.989  1.00  0.00    -0.151 C  
HETATM    3  O   UNL     1      -6.069  11.860  70.427  1.00  0.00    -0.189 OA 
ENDROOT
BRANCH   2   4
HETATM    4  O   UNL     1      -7.769  10.822  69.285  1.00  0.00    -0.137 OA 
BRANCH   4   5
HETATM    5  C   UNL     1      -8.775   9.925  69.790  1.00  0.00    -0.212 C  
HETATM    6  C   UNL     1     -10.183  10.550  69.731  1.00  0.00    -0.168 C  
HETATM    7  C   UNL     1     -11.173   9.578  70.410  1.00  0.00    -0.270 C  
HETATM    8  C   UNL     1     -10.549  10.910  68.270  1.00  0.00    -0.223 C  
BRANCH   7   9
HETATM    9  O   UNL     1     -12.525  10.062  70.437  1.00  0.00    -0.216 OA 
BRANCH   9  10
HETATM   10  C   UNL     1     -13.078  10.295  71.656  1.00  0.00    -0.449 C  
HETATM   11  O   UNL     1     -13.199  11.393  72.177  1.00  0.00    -0.490 OA 
HETATM   12  C   UNL     1     -13.588   9.018  72.259  1.00  0.00    -0.540 C  
ENDBRANCH   9  10
ENDBRANCH   7   9
BRANCH   8  13
HETATM   13  C   UNL     1     -11.884  11.641  68.120  1.00  0.00    -0.244 C  
BRANCH  13  14
HETATM   14  N   UNL     1     -11.781  12.870  67.365  1.00  0.00    -0.362 NA 
HETATM   15  C   UNL     1     -11.651  14.130  67.879  1.00  0.00    -0.338 A  
HETATM   16  N   UNL     1     -11.669  15.046  66.931  1.00  0.00    -0.244 NA 
HETATM   17  C   UNL     1     -11.859  14.341  65.765  1.00  0.00    -0.374 A  
HETATM   18  C   UNL     1     -11.994  14.717  64.436  1.00  0.00    -0.437 A  
HETATM   19  N   UNL     1     -12.212  13.764  63.491  1.00  0.00    -0.666 NA 
HETATM   20  C   UNL     1     -12.298  12.478  63.875  1.00  0.00    -0.485 A  
HETATM   21  N   UNL     1     -12.143  12.000  65.119  1.00  0.00    -0.370 NA 
HETATM   22  N   UNL     1     -12.547  11.557  62.877  1.00  0.00    -0.874 NA 
HETATM   23  H2  UNL     1     -11.848  11.651  62.140  1.00  0.00     0.000 HD 
HETATM   24  H1  UNL     1     -12.613  10.582  63.168  1.00  0.00     0.000 HD 
HETATM   25  C   UNL     1     -11.936  12.983  66.012  1.00  0.00    -0.440 A  
ENDBRANCH  13  14
ENDBRANCH   8  13
ENDBRANCH   4   5
ENDBRANCH   2   4
TORSDOF 6
ENDMDL
MODEL       51
REMARK 921   NORMALIZED FREE ENERGY PREDICTED BY IDOCK:   -5.62 KCAL/MOL
REMARK 922        TOTAL FREE ENERGY PREDICTED BY IDOCK:   -8.61 KCAL/MOL
REMARK 923 INTER-LIGAND FREE ENERGY PREDICTED BY IDOCK:   -7.68 KCAL/MOL
REMARK 924 INTRA-LIGAND FREE ENERGY PREDICTED BY IDOCK:   -0.92 KCAL/MOL
REMARK 927      BINDING AFFINITY PREDICTED BY RF-SCORE:    0.00 PKD
ROOT
HETATM    1  C   UNL     1     -14.048  15.212  72.088  1.00  0.00    -0.654 C  
HETATM    2  C   UNL     1     -12.733  15.224  72.807  1.00  0.00    -0.397 C  
HETATM    3  O   UNL     1     -12.610  15.403  74.010  1.00  0.00    -0.558 OA 
ENDROOT
BRANCH   2   4
HETATM    4  O   UNL     1     -11.710  15.045  71.927  1.00  0.00    -0.376 OA 
BRANCH   4   5
HETATM    5  C   UNL     1     -11.691  15.947  70.808  1.00  0.00    -0.401 C  
HETATM    6  C   UNL     1     -11.205  15.254  69.519  1.00  0.00    -0.289 C  
HETATM    7  C   UNL     1     -11.091  16.321  68.408  1.00  0.00    -0.362 C  
HETATM    8  C   UNL     1     -12.136  14.067  69.165  1.00  0.00    -0.375 C  
BRANCH   7   9
HETATM    9  O   UNL     1     -10.623  15.796  67.155  1.00  0.00    -0.305 OA 
BRANCH   9  10
HETATM   10  C   UNL     1     -10.497  16.672  66.123  1.00  0.00    -0.285 C  
HETATM   11  O   UNL     1     -10.672  16.403  64.945  1.00  0.00    -0.675 OA 
HETATM   12  C   UNL     1     -10.177  18.048  66.633  1.00  0.00    -0.375 C  
ENDBRANCH   9  10
ENDBRANCH   7   9
BRANCH   8  13
HETATM   13  C   UNL     1     -11.672  13.243  67.963  1.00  0.00    -0.359 C  
BRANCH  13  14
HETATM   14  N   UNL     1     -10.504  12.436  68.240  1.00  0.00    -0.219 NA 
HETATM   15  C   UNL     1      -9.241  12.643  67.758  1.00  0.00    -0.195 A  
HETATM   16  N   UNL     1      -8.417  11.682  68.128  1.00  0.00    -0.150 NA 
HETATM   17  C   UNL     1      -9.199  10.804  68.842  1.00  0.00    -0.173 A  
HETATM   18  C   UNL     1      -8.942   9.593  69.468  1.00  0.00    -0.194 A  
HETATM   19  N   UNL     1      -9.957   8.927  70.079  1.00  0.00    -0.183 NA 
HETATM   20  C   UNL     1     -11.191   9.462  70.053  1.00  0.00    -0.190 A  
HETATM   21  N   UNL     1     -11.543  10.640  69.516  1.00  0.00    -0.275 NA 
HETATM   22  N   UNL     1     -12.188   8.731  70.666  1.00  0.00    -0.486 NA 
HETATM   23  H2  UNL     1     -11.922   8.526  71.629  1.00  0.00     0.000 HD 
HETATM   24  H1  UNL     1     -13.124   9.136  70.646  1.00  0.00     0.000 HD 
HETATM   25  C   UNL     1     -10.505  11.251  68.921  1.00  0.00    -0.206 A  
ENDBRANCH  13  14
ENDBRANCH   8  13
ENDBRANCH   4   5
ENDBRANCH   2   4
TORSDOF 6
ENDMDL
MODEL       52
REMARK 921   NORMALIZED FREE ENERGY PREDICTED BY IDOCK:   -5.62 KCAL/MOL
REMARK 922        TOTAL FREE ENERGY PREDICTED BY IDOCK:   -8.59 KCAL/MOL
REMARK 923 INTER-LIGAND FREE ENERGY PREDICTED BY IDOCK:   -7.89 KCAL/MOL
REMARK 924 INTRA-LIGAND FREE ENERGY PREDICTED BY IDOCK:   -0.71 KCAL/MOL
REMARK 927      BINDING AFFINITY PREDICTED BY RF-SCORE:    0.00 PKD
ROOT
HETATM    1  C   UNL     1     -11.983  10.198  71.137  1.00  0.00    -0.480 C  
HETATM    2  C   UNL     1     -11.326   9.971  69.809  1.00  0.00    -0.228 C  
HETATM    3  O   UNL     1     -10.510   9.087  69.589  1.00  0.00    -0.212 OA 
ENDROOT
BRANCH   2   4
HETATM    4  O   UNL     1     -11.739  10.904  68.909  1.00  0.00    -0.297 OA 
BRANCH   4   5
HETATM    5  C   UNL     1     -11.181  10.781  67.589  1.00  0.00    -0.299 C  
HETATM    6  C   UNL     1     -11.299  12.095  66.791  1.00  0.00    -0.398 C  
HETATM    7  C   UNL     1     -10.800  11.836  65.353  1.00  0.00    -0.295 C  
HETATM    8  C   UNL     1     -10.554  13.238  67.525  1.00  0.00    -0.251 C  
BRANCH   7   9
HETATM    9  O   UNL     1     -10.881  12.989  64.500  1.00  0.00    -0.329 OA 
BRANCH   9  10
HETATM   10  C   UNL     1     -12.047  13.185  63.830  1.00  0.00    -0.470 C  
HETATM   11  O   UNL     1     -12.533  14.274  63.566  1.00  0.00    -0.798 OA 
HETATM   12  C   UNL     1     -12.633  11.874  63.393  1.00  0.00    -0.555 C  
ENDBRANCH   9  10
ENDBRANCH   7   9
BRANCH   8  13
HETATM   13  C   UNL     1     -10.708  14.611  66.870  1.00  0.00    -0.294 C  
BRANCH  13  14
HETATM   14  N   UNL     1     -10.523  15.708  67.792  1.00  0.00    -0.267 NA 
HETATM   15  C   UNL     1     -11.184  15.896  68.975  1.00  0.00    -0.327 A  
HETATM   16  N   UNL     1     -10.849  17.038  69.542  1.00  0.00    -0.176 NA 
HETATM   17  C   UNL     1      -9.967  17.622  68.663  1.00  0.00    -0.367 A  
HETATM   18  C   UNL     1      -9.283  18.829  68.661  1.00  0.00    -0.347 A  
HETATM   19  N   UNL     1      -8.489  19.146  67.604  1.00  0.00    -0.286 NA 
HETATM   20  C   UNL     1      -8.395  18.278  66.581  1.00  0.00    -0.264 A  
HETATM   21  N   UNL     1      -8.976  17.073  66.496  1.00  0.00    -0.254 NA 
HETATM   22  N   UNL     1      -7.596  18.664  65.524  1.00  0.00    -0.441 NA 
HETATM   23  H2  UNL     1      -6.663  18.898  65.864  1.00  0.00     0.000 HD 
HETATM   24  H1  UNL     1      -7.525  18.007  64.747  1.00  0.00     0.000 HD 
HETATM   25  C   UNL     1      -9.752  16.813  67.562  1.00  0.00    -0.252 A  
ENDBRANCH  13  14
ENDBRANCH   8  13
ENDBRANCH   4   5
ENDBRANCH   2   4
TORSDOF 6
ENDMDL
MODEL       53
REMARK 921   NORMALIZED FREE ENERGY PREDICTED BY IDOCK:   -5.60 KCAL/MOL
REMARK 922        TOTAL FREE ENERGY PREDICTED BY IDOCK:   -8.58 KCAL/MOL
REMARK 923 INTER-LIGAND FREE ENERGY PREDICTED BY IDOCK:   -7.85 KCAL/MOL
REMARK 924 INTRA-LIGAND FREE ENERGY PREDICTED BY IDOCK:   -0.73 KCAL/MOL
REMARK 927      BINDING AFFINITY PREDICTED BY RF-SCORE:    0.00 PKD
ROOT
HETATM    1  C   UNL     1     -12.799  10.394  71.127  1.00  0.00    -0.511 C  
HETATM    2  C   UNL     1     -11.848  10.570  69.982  1.00  0.00    -0.308 C  
HETATM    3  O   UNL     1     -11.153   9.676  69.523  1.00  0.00    -0.229 OA 
ENDROOT
BRANCH   2   4
HETATM    4  O   UNL     1     -11.849  11.864  69.560  1.00  0.00    -0.302 OA 
BRANCH   4   5
HETATM    5  C   UNL     1     -11.314  12.086  68.243  1.00  0.00    -0.286 C  
HETATM    6  C   UNL     1     -11.292  13.584  67.877  1.00  0.00    -0.320 C  
HETATM    7  C   UNL     1     -10.831  13.718  66.409  1.00  0.00    -0.287 C  
HETATM    8  C   UNL     1     -10.422  14.371  68.890  1.00  0.00    -0.246 C  
BRANCH   7   9
HETATM    9  O   UNL     1     -10.790  15.076  65.942  1.00  0.00    -0.318 OA 
BRANCH   9  10
HETATM   10  C   UNL     1     -11.487  15.365  64.812  1.00  0.00    -0.336 C  
HETATM   11  O   UNL     1     -11.564  16.469  64.295  1.00  0.00    -0.923 OA 
HETATM   12  C   UNL     1     -12.102  14.122  64.237  1.00  0.00    -0.471 C  
ENDBRANCH   9  10
ENDBRANCH   7   9
BRANCH   8  13
HETATM   13  C   UNL     1     -10.429  15.885  68.679  1.00  0.00    -0.240 C  
BRANCH  13  14
HETATM   14  N   UNL     1      -9.109  16.473  68.715  1.00  0.00    -0.247 NA 
HETATM   15  C   UNL     1      -7.976  15.897  69.221  1.00  0.00    -0.229 A  
HETATM   16  N   UNL     1      -6.951  16.725  69.183  1.00  0.00    -0.226 NA 
HETATM   17  C   UNL     1      -7.462  17.894  68.667  1.00  0.00    -0.278 A  
HETATM   18  C   UNL     1      -6.912  19.140  68.405  1.00  0.00    -0.270 A  
HETATM   19  N   UNL     1      -7.703  20.131  67.915  1.00  0.00    -0.285 NA 
HETATM   20  C   UNL     1      -9.006  19.874  67.704  1.00  0.00    -0.335 A  
HETATM   21  N   UNL     1      -9.632  18.702  67.883  1.00  0.00    -0.301 NA 
HETATM   22  N   UNL     1      -9.767  20.925  67.230  1.00  0.00    -0.615 NA 
HETATM   23  H2  UNL     1      -9.347  21.298  66.379  1.00  0.00     0.000 HD 
HETATM   24  H1  UNL     1     -10.756  20.731  67.071  1.00  0.00     0.000 HD 
HETATM   25  C   UNL     1      -8.807  17.761  68.373  1.00  0.00    -0.285 A  
ENDBRANCH  13  14
ENDBRANCH   8  13
ENDBRANCH   4   5
ENDBRANCH   2   4
TORSDOF 6
ENDMDL
MODEL       54
REMARK 921   NORMALIZED FREE ENERGY PREDICTED BY IDOCK:   -5.60 KCAL/MOL
REMARK 922        TOTAL FREE ENERGY PREDICTED BY IDOCK:   -8.58 KCAL/MOL
REMARK 923 INTER-LIGAND FREE ENERGY PREDICTED BY IDOCK:   -7.86 KCAL/MOL
REMARK 924 INTRA-LIGAND FREE ENERGY PREDICTED BY IDOCK:   -0.72 KCAL/MOL
REMARK 927      BINDING AFFINITY PREDICTED BY RF-SCORE:    0.00 PKD
ROOT
HETATM    1  C   UNL     1     -12.475  10.449  71.174  1.00  0.00    -0.509 C  
HETATM    2  C   UNL     1     -12.759  11.919  71.247  1.00  0.00    -0.298 C  
HETATM    3  O   UNL     1     -13.513  12.434  72.059  1.00  0.00    -0.489 OA 
ENDROOT
BRANCH   2   4
HETATM    4  O   UNL     1     -12.088  12.580  70.264  1.00  0.00    -0.349 OA 
BRANCH   4   5
HETATM    5  C   UNL     1     -12.175  14.015  70.312  1.00  0.00    -0.361 C  
HETATM    6  C   UNL     1     -11.428  14.676  69.136  1.00  0.00    -0.320 C  
HETATM    7  C   UNL     1     -11.461  16.207  69.340  1.00  0.00    -0.296 C  
HETATM    8  C   UNL     1     -12.025  14.202  67.788  1.00  0.00    -0.389 C  
BRANCH   7   9
HETATM    9  O   UNL     1     -10.774  16.937  68.311  1.00  0.00    -0.351 OA 
BRANCH   9  10
HETATM   10  C   UNL     1      -9.678  17.649  68.682  1.00  0.00    -0.332 C  
HETATM   11  O   UNL     1      -8.611  17.170  69.032  1.00  0.00    -0.218 OA 
HETATM   12  C   UNL     1      -9.931  19.123  68.539  1.00  0.00    -0.496 C  
ENDBRANCH   9  10
ENDBRANCH   7   9
BRANCH   8  13
HETATM   13  C   UNL     1     -11.277  14.714  66.556  1.00  0.00    -0.346 C  
BRANCH  13  14
HETATM   14  N   UNL     1     -11.460  13.882  65.389  1.00  0.00    -0.306 NA 
HETATM   15  C   UNL     1     -12.522  13.913  64.527  1.00  0.00    -0.297 A  
HETATM   16  N   UNL     1     -12.432  12.970  63.611  1.00  0.00    -0.723 NA 
HETATM   17  C   UNL     1     -11.283  12.282  63.926  1.00  0.00    -0.421 A  
HETATM   18  C   UNL     1     -10.653  11.176  63.374  1.00  0.00    -0.270 A  
HETATM   19  N   UNL     1      -9.518  10.697  63.948  1.00  0.00    -0.256 NA 
HETATM   20  C   UNL     1      -9.039  11.309  65.046  1.00  0.00    -0.070 A  
HETATM   21  N   UNL     1      -9.540  12.403  65.637  1.00  0.00    -0.168 NA 
HETATM   22  N   UNL     1      -7.898  10.764  65.601  1.00  0.00    -0.294 NA 
HETATM   23  H2  UNL     1      -7.166  10.703  64.894  1.00  0.00     0.000 HD 
HETATM   24  H1  UNL     1      -7.535  11.227  66.434  1.00  0.00     0.000 HD 
HETATM   25  C   UNL     1     -10.663  12.830  65.034  1.00  0.00    -0.296 A  
ENDBRANCH  13  14
ENDBRANCH   8  13
ENDBRANCH   4   5
ENDBRANCH   2   4
TORSDOF 6
ENDMDL
MODEL       55
REMARK 921   NORMALIZED FREE ENERGY PREDICTED BY IDOCK:   -5.60 KCAL/MOL
REMARK 922        TOTAL FREE ENERGY PREDICTED BY IDOCK:   -8.57 KCAL/MOL
REMARK 923 INTER-LIGAND FREE ENERGY PREDICTED BY IDOCK:   -7.51 KCAL/MOL
REMARK 924 INTRA-LIGAND FREE ENERGY PREDICTED BY IDOCK:   -1.06 KCAL/MOL
REMARK 927      BINDING AFFINITY PREDICTED BY RF-SCORE:    0.00 PKD
ROOT
HETATM    1  C   UNL     1      -7.023  13.889  67.639  1.00  0.00    -0.189 C  
HETATM    2  C   UNL     1      -6.292  15.150  67.989  1.00  0.00    -0.146 C  
HETATM    3  O   UNL     1      -5.434  15.664  67.287  1.00  0.00    -0.336 OA 
ENDROOT
BRANCH   2   4
HETATM    4  O   UNL     1      -6.696  15.610  69.205  1.00  0.00    -0.136 OA 
BRANCH   4   5
HETATM    5  C   UNL     1      -7.144  16.976  69.233  1.00  0.00    -0.177 C  
HETATM    6  C   UNL     1      -8.448  17.171  68.433  1.00  0.00    -0.241 C  
HETATM    7  C   UNL     1      -8.781  18.678  68.406  1.00  0.00    -0.333 C  
HETATM    8  C   UNL     1      -9.574  16.282  69.019  1.00  0.00    -0.257 C  
BRANCH   7   9
HETATM    9  O   UNL     1      -9.971  18.990  67.666  1.00  0.00    -0.321 OA 
BRANCH   9  10
HETATM   10  C   UNL     1      -9.811  19.496  66.415  1.00  0.00    -0.418 C  
HETATM   11  O   UNL     1     -10.699  19.625  65.588  1.00  0.00    -0.503 OA 
HETATM   12  C   UNL     1      -8.393  19.945  66.203  1.00  0.00    -0.345 C  
ENDBRANCH   9  10
ENDBRANCH   7   9
BRANCH   8  13
HETATM   13  C   UNL     1     -10.879  16.318  68.223  1.00  0.00    -0.340 C  
BRANCH  13  14
HETATM   14  N   UNL     1     -10.848  15.490  67.038  1.00  0.00    -0.323 NA 
HETATM   15  C   UNL     1     -10.643  15.916  65.754  1.00  0.00    -0.355 A  
HETATM   16  N   UNL     1     -10.759  14.927  64.890  1.00  0.00    -0.416 NA 
HETATM   17  C   UNL     1     -11.092  13.832  65.652  1.00  0.00    -0.295 A  
HETATM   18  C   UNL     1     -11.375  12.509  65.345  1.00  0.00    -0.325 A  
HETATM   19  N   UNL     1     -11.714  11.649  66.342  1.00  0.00    -0.439 NA 
HETATM   20  C   UNL     1     -11.772  12.110  67.604  1.00  0.00    -0.316 A  
HETATM   21  N   UNL     1     -11.480  13.352  68.018  1.00  0.00    -0.285 NA 
HETATM   22  N   UNL     1     -12.146  11.199  68.571  1.00  0.00    -0.710 NA 
HETATM   23  H2  UNL     1     -11.536  10.383  68.531  1.00  0.00     0.000 HD 
HETATM   24  H1  UNL     1     -12.191  11.549  69.529  1.00  0.00     0.000 HD 
HETATM   25  C   UNL     1     -11.158  14.160  66.994  1.00  0.00    -0.307 A  
ENDBRANCH  13  14
ENDBRANCH   8  13
ENDBRANCH   4   5
ENDBRANCH   2   4
TORSDOF 6
ENDMDL
MODEL       56
REMARK 921   NORMALIZED FREE ENERGY PREDICTED BY IDOCK:   -5.59 KCAL/MOL
REMARK 922        TOTAL FREE ENERGY PREDICTED BY IDOCK:   -8.56 KCAL/MOL
REMARK 923 INTER-LIGAND FREE ENERGY PREDICTED BY IDOCK:   -7.80 KCAL/MOL
REMARK 924 INTRA-LIGAND FREE ENERGY PREDICTED BY IDOCK:   -0.76 KCAL/MOL
REMARK 927      BINDING AFFINITY PREDICTED BY RF-SCORE:    0.00 PKD
ROOT
HETATM    1  C   UNL     1     -13.726  13.297  72.391  1.00  0.00    -0.678 C  
HETATM    2  C   UNL     1     -12.789  14.451  72.585  1.00  0.00    -0.395 C  
HETATM    3  O   UNL     1     -12.808  15.195  73.555  1.00  0.00    -0.491 OA 
ENDROOT
BRANCH   2   4
HETATM    4  O   UNL     1     -11.952  14.567  71.518  1.00  0.00    -0.348 OA 
BRANCH   4   5
HETATM    5  C   UNL     1     -11.554  15.908  71.186  1.00  0.00    -0.432 C  
HETATM    6  C   UNL     1     -10.910  15.987  69.787  1.00  0.00    -0.337 C  
HETATM    7  C   UNL     1     -10.396  17.428  69.570  1.00  0.00    -0.011 C  
HETATM    8  C   UNL     1     -11.909  15.500  68.708  1.00  0.00    -0.335 C  
BRANCH   7   9
HETATM    9  O   UNL     1      -9.752  17.622  68.301  1.00  0.00    -0.286 OA 
BRANCH   9  10
HETATM   10  C   UNL     1     -10.042  18.766  67.627  1.00  0.00    -0.367 C  
HETATM   11  O   UNL     1     -11.143  19.290  67.568  1.00  0.00    -0.423 OA 
HETATM   12  C   UNL     1      -8.801  19.344  67.010  1.00  0.00    -0.341 C  
ENDBRANCH   9  10
ENDBRANCH   7   9
BRANCH   8  13
HETATM   13  C   UNL     1     -11.325  15.433  67.297  1.00  0.00    -0.220 C  
BRANCH  13  14
HETATM   14  N   UNL     1     -11.484  14.138  66.674  1.00  0.00    -0.350 NA 
HETATM   15  C   UNL     1     -12.426  13.794  65.744  1.00  0.00    -0.485 A  
HETATM   16  N   UNL     1     -12.360  12.514  65.436  1.00  0.00    -0.635 NA 
HETATM   17  C   UNL     1     -11.357  12.012  66.233  1.00  0.00    -0.357 A  
HETATM   18  C   UNL     1     -10.823  10.743  66.406  1.00  0.00    -0.104 A  
HETATM   19  N   UNL     1      -9.835  10.552  67.320  1.00  0.00    -0.172 NA 
HETATM   20  C   UNL     1      -9.407  11.605  68.041  1.00  0.00    -0.178 A  
HETATM   21  N   UNL     1      -9.821  12.875  67.928  1.00  0.00    -0.220 NA 
HETATM   22  N   UNL     1      -8.421  11.347  68.972  1.00  0.00    -0.371 NA 
HETATM   23  H2  UNL     1      -7.628  10.895  68.518  1.00  0.00     0.000 HD 
HETATM   24  H1  UNL     1      -8.096  12.145  69.519  1.00  0.00     0.000 HD 
HETATM   25  C   UNL     1     -10.800  13.006  67.017  1.00  0.00    -0.261 A  
ENDBRANCH  13  14
ENDBRANCH   8  13
ENDBRANCH   4   5
ENDBRANCH   2   4
TORSDOF 6
ENDMDL
MODEL       57
REMARK 921   NORMALIZED FREE ENERGY PREDICTED BY IDOCK:   -5.57 KCAL/MOL
REMARK 922        TOTAL FREE ENERGY PREDICTED BY IDOCK:   -8.53 KCAL/MOL
REMARK 923 INTER-LIGAND FREE ENERGY PREDICTED BY IDOCK:   -7.66 KCAL/MOL
REMARK 924 INTRA-LIGAND FREE ENERGY PREDICTED BY IDOCK:   -0.86 KCAL/MOL
REMARK 927      BINDING AFFINITY PREDICTED BY RF-SCORE:    0.00 PKD
ROOT
HETATM    1  C   UNL     1     -11.971  12.143  63.478  1.00  0.00    -0.619 C  
HETATM    2  C   UNL     1     -10.504  12.026  63.760  1.00  0.00    -0.429 C  
HETATM    3  O   UNL     1      -9.679  11.624  62.952  1.00  0.00    -0.382 OA 
ENDROOT
BRANCH   2   4
HETATM    4  O   UNL     1     -10.237  12.394  65.043  1.00  0.00    -0.282 OA 
BRANCH   4   5
HETATM    5  C   UNL     1     -11.085  11.807  66.045  1.00  0.00    -0.312 C  
HETATM    6  C   UNL     1     -11.083  12.626  67.351  1.00  0.00    -0.315 C  
HETATM    7  C   UNL     1     -11.908  11.857  68.407  1.00  0.00    -0.289 C  
HETATM    8  C   UNL     1     -11.582  14.067  67.081  1.00  0.00    -0.397 C  
BRANCH   7   9
HETATM    9  O   UNL     1     -11.963  12.515  69.682  1.00  0.00    -0.303 OA 
BRANCH   9  10
HETATM   10  C   UNL     1     -12.296  11.755  70.759  1.00  0.00    -0.337 C  
HETATM   11  O   UNL     1     -13.043  12.101  71.661  1.00  0.00    -0.418 OA 
HETATM   12  C   UNL     1     -11.671  10.394  70.659  1.00  0.00    -0.444 C  
ENDBRANCH   9  10
ENDBRANCH   7   9
BRANCH   8  13
HETATM   13  C   UNL     1     -11.509  14.994  68.296  1.00  0.00    -0.332 C  
BRANCH  13  14
HETATM   14  N   UNL     1     -10.249  15.693  68.406  1.00  0.00    -0.219 NA 
HETATM   15  C   UNL     1      -9.184  15.329  69.183  1.00  0.00    -0.234 A  
HETATM   16  N   UNL     1      -8.215  16.222  69.128  1.00  0.00    -0.239 NA 
HETATM   17  C   UNL     1      -8.700  17.217  68.311  1.00  0.00    -0.251 A  
HETATM   18  C   UNL     1      -8.186  18.432  67.882  1.00  0.00    -0.260 A  
HETATM   19  N   UNL     1      -8.941  19.234  67.085  1.00  0.00    -0.290 NA 
HETATM   20  C   UNL     1     -10.175  18.826  66.739  1.00  0.00    -0.393 A  
HETATM   21  N   UNL     1     -10.754  17.660  67.061  1.00  0.00    -0.241 NA 
HETATM   22  N   UNL     1     -10.906  19.691  65.950  1.00  0.00    -0.403 NA 
HETATM   23  H2  UNL     1     -10.375  19.927  65.113  1.00  0.00     0.000 HD 
HETATM   24  H1  UNL     1     -11.843  19.383  65.689  1.00  0.00     0.000 HD 
HETATM   25  C   UNL     1      -9.969  16.911  67.853  1.00  0.00    -0.274 A  
ENDBRANCH  13  14
ENDBRANCH   8  13
ENDBRANCH   4   5
ENDBRANCH   2   4
TORSDOF 6
ENDMDL
MODEL       58
REMARK 921   NORMALIZED FREE ENERGY PREDICTED BY IDOCK:   -5.56 KCAL/MOL
REMARK 922        TOTAL FREE ENERGY PREDICTED BY IDOCK:   -8.52 KCAL/MOL
REMARK 923 INTER-LIGAND FREE ENERGY PREDICTED BY IDOCK:   -8.13 KCAL/MOL
REMARK 924 INTRA-LIGAND FREE ENERGY PREDICTED BY IDOCK:   -0.39 KCAL/MOL
REMARK 927      BINDING AFFINITY PREDICTED BY RF-SCORE:    0.00 PKD
ROOT
HETATM    1  C   UNL     1      -9.290  20.271  66.705  1.00  0.00    -0.489 C  
HETATM    2  C   UNL     1     -10.241  19.396  65.946  1.00  0.00    -0.391 C  
HETATM    3  O   UNL     1     -11.198  19.813  65.309  1.00  0.00    -0.329 OA 
ENDROOT
BRANCH   2   4
HETATM    4  O   UNL     1      -9.905  18.086  66.099  1.00  0.00    -0.443 OA 
BRANCH   4   5
HETATM    5  C   UNL     1     -10.783  17.144  65.459  1.00  0.00    -0.117 C  
HETATM    6  C   UNL     1     -10.353  15.687  65.724  1.00  0.00    -0.386 C  
HETATM    7  C   UNL     1     -11.265  14.753  64.898  1.00  0.00    -0.406 C  
HETATM    8  C   UNL     1     -10.357  15.394  67.246  1.00  0.00    -0.271 C  
BRANCH   7   9
HETATM    9  O   UNL     1     -10.946  13.361  65.046  1.00  0.00    -0.293 OA 
BRANCH   9  10
HETATM   10  C   UNL     1     -11.746  12.469  64.405  1.00  0.00    -0.368 C  
HETATM   11  O   UNL     1     -12.954  12.374  64.551  1.00  0.00    -0.770 OA 
HETATM   12  C   UNL     1     -10.949  11.649  63.431  1.00  0.00    -0.442 C  
ENDBRANCH   9  10
ENDBRANCH   7   9
BRANCH   8  13
HETATM   13  C   UNL     1      -9.834  14.007  67.619  1.00  0.00    -0.233 C  
BRANCH  13  14
HETATM   14  N   UNL     1     -10.693  13.302  68.544  1.00  0.00    -0.257 NA 
HETATM   15  C   UNL     1     -11.186  12.035  68.392  1.00  0.00    -0.262 A  
HETATM   16  N   UNL     1     -12.008  11.713  69.371  1.00  0.00    -0.323 NA 
HETATM   17  C   UNL     1     -12.073  12.838  70.160  1.00  0.00    -0.298 A  
HETATM   18  C   UNL     1     -12.778  13.152  71.313  1.00  0.00    -0.306 A  
HETATM   19  N   UNL     1     -12.656  14.394  71.853  1.00  0.00    -0.341 NA 
HETATM   20  C   UNL     1     -11.857  15.290  71.245  1.00  0.00    -0.361 A  
HETATM   21  N   UNL     1     -11.103  15.082  70.156  1.00  0.00    -0.251 NA 
HETATM   22  N   UNL     1     -11.792  16.542  71.823  1.00  0.00    -0.652 NA 
HETATM   23  H2  UNL     1     -11.529  16.456  72.804  1.00  0.00     0.000 HD 
HETATM   24  H1  UNL     1     -11.187  17.221  71.362  1.00  0.00     0.000 HD 
HETATM   25  C   UNL     1     -11.265  13.843  69.661  1.00  0.00    -0.140 A  
ENDBRANCH  13  14
ENDBRANCH   8  13
ENDBRANCH   4   5
ENDBRANCH   2   4
TORSDOF 6
ENDMDL
MODEL       59
REMARK 921   NORMALIZED FREE ENERGY PREDICTED BY IDOCK:   -5.54 KCAL/MOL
REMARK 922        TOTAL FREE ENERGY PREDICTED BY IDOCK:   -8.50 KCAL/MOL
REMARK 923 INTER-LIGAND FREE ENERGY PREDICTED BY IDOCK:   -8.02 KCAL/MOL
REMARK 924 INTRA-LIGAND FREE ENERGY PREDICTED BY IDOCK:   -0.48 KCAL/MOL
REMARK 927      BINDING AFFINITY PREDICTED BY RF-SCORE:    0.00 PKD
ROOT
HETATM    1  C   UNL     1      -9.956  16.492  65.955  1.00  0.00    -0.359 C  
HETATM    2  C   UNL     1     -11.099  16.058  65.087  1.00  0.00    -0.283 C  
HETATM    3  O   UNL     1     -11.367  16.559  64.005  1.00  0.00    -1.064 OA 
ENDROOT
BRANCH   2   4
HETATM    4  O   UNL     1     -11.803  15.064  65.692  1.00  0.00    -0.212 OA 
BRANCH   4   5
HETATM    5  C   UNL     1     -11.701  13.769  65.075  1.00  0.00    -0.345 C  
HETATM    6  C   UNL     1     -10.933  12.768  65.962  1.00  0.00    -0.306 C  
HETATM    7  C   UNL     1     -10.757  11.453  65.171  1.00  0.00    -0.269 C  
HETATM    8  C   UNL     1     -11.652  12.597  67.324  1.00  0.00    -0.428 C  
BRANCH   7   9
HETATM    9  O   UNL     1     -10.033  10.443  65.889  1.00  0.00    -0.228 OA 
BRANCH   9  10
HETATM   10  C   UNL     1      -8.731  10.252  65.550  1.00  0.00    -0.162 C  
HETATM   11  O   UNL     1      -8.337   9.849  64.467  1.00  0.00    -0.145 OA 
HETATM   12  C   UNL     1      -7.824  10.671  66.672  1.00  0.00    -0.135 C  
ENDBRANCH   9  10
ENDBRANCH   7   9
BRANCH   8  13
HETATM   13  C   UNL     1     -10.905  11.710  68.320  1.00  0.00    -0.219 C  
BRANCH  13  14
HETATM   14  N   UNL     1     -11.590  11.569  69.586  1.00  0.00    -0.309 NA 
HETATM   15  C   UNL     1     -11.886  10.395  70.222  1.00  0.00    -0.312 A  
HETATM   16  N   UNL     1     -12.592  10.602  71.317  1.00  0.00    -0.394 NA 
HETATM   17  C   UNL     1     -12.788  11.963  71.357  1.00  0.00    -0.307 A  
HETATM   18  C   UNL     1     -13.467  12.801  72.230  1.00  0.00    -0.490 A  
HETATM   19  N   UNL     1     -13.511  14.136  71.976  1.00  0.00    -0.391 NA 
HETATM   20  C   UNL     1     -12.897  14.606  70.875  1.00  0.00    -0.365 A  
HETATM   21  N   UNL     1     -12.182  13.897  69.990  1.00  0.00    -0.339 NA 
HETATM   22  N   UNL     1     -12.996  15.965  70.654  1.00  0.00    -0.686 NA 
HETATM   23  H2  UNL     1     -12.668  16.473  71.475  1.00  0.00     0.000 HD 
HETATM   24  H1  UNL     1     -12.532  16.323  69.819  1.00  0.00     0.000 HD 
HETATM   25  C   UNL     1     -12.176  12.586  70.285  1.00  0.00    -0.267 A  
ENDBRANCH  13  14
ENDBRANCH   8  13
ENDBRANCH   4   5
ENDBRANCH   2   4
TORSDOF 6
ENDMDL
MODEL       60
REMARK 921   NORMALIZED FREE ENERGY PREDICTED BY IDOCK:   -5.54 KCAL/MOL
REMARK 922        TOTAL FREE ENERGY PREDICTED BY IDOCK:   -8.49 KCAL/MOL
REMARK 923 INTER-LIGAND FREE ENERGY PREDICTED BY IDOCK:   -8.34 KCAL/MOL
REMARK 924 INTRA-LIGAND FREE ENERGY PREDICTED BY IDOCK:   -0.15 KCAL/MOL
REMARK 927      BINDING AFFINITY PREDICTED BY RF-SCORE:    0.00 PKD
ROOT
HETATM    1  C   UNL     1     -10.477   7.678  67.327  1.00  0.00    -0.396 C  
HETATM    2  C   UNL     1     -10.650   8.318  68.672  1.00  0.00    -0.108 C  
HETATM    3  O   UNL     1     -10.756   7.697  69.719  1.00  0.00    -0.243 OA 
ENDROOT
BRANCH   2   4
HETATM    4  O   UNL     1     -10.705   9.672  68.548  1.00  0.00    -0.219 OA 
BRANCH   4   5
HETATM    5  C   UNL     1     -10.447  10.185  67.230  1.00  0.00    -0.256 C  
HETATM    6  C   UNL     1     -11.023  11.603  67.042  1.00  0.00    -0.338 C  
HETATM    7  C   UNL     1     -10.818  12.019  65.569  1.00  0.00    -0.292 C  
HETATM    8  C   UNL     1     -10.394  12.578  68.069  1.00  0.00    -0.226 C  
BRANCH   7   9
HETATM    9  O   UNL     1     -11.336  13.323  65.262  1.00  0.00    -0.292 OA 
BRANCH   9  10
HETATM   10  C   UNL     1     -12.146  13.430  64.177  1.00  0.00    -0.433 C  
HETATM   11  O   UNL     1     -12.572  14.478  63.717  1.00  0.00    -0.825 OA 
HETATM   12  C   UNL     1     -12.398  12.081  63.569  1.00  0.00    -0.661 C  
ENDBRANCH   9  10
ENDBRANCH   7   9
BRANCH   8  13
HETATM   13  C   UNL     1     -10.985  13.988  68.039  1.00  0.00    -0.251 C  
BRANCH  13  14
HETATM   14  N   UNL     1     -11.788  14.297  69.202  1.00  0.00    -0.312 NA 
HETATM   15  C   UNL     1     -12.091  15.545  69.671  1.00  0.00    -0.328 A  
HETATM   16  N   UNL     1     -12.771  15.487  70.799  1.00  0.00    -0.456 NA 
HETATM   17  C   UNL     1     -12.870  14.145  71.082  1.00  0.00    -0.360 A  
HETATM   18  C   UNL     1     -13.434  13.432  72.130  1.00  0.00    -0.552 A  
HETATM   19  N   UNL     1     -13.336  12.076  72.145  1.00  0.00    -0.439 NA 
HETATM   20  C   UNL     1     -12.685  11.462  71.140  1.00  0.00    -0.377 A  
HETATM   21  N   UNL     1     -12.140  12.045  70.063  1.00  0.00    -0.303 NA 
HETATM   22  N   UNL     1     -12.594  10.087  71.221  1.00  0.00    -0.360 NA 
HETATM   23  H2  UNL     1     -13.526   9.685  71.323  1.00  0.00     0.000 HD 
HETATM   24  H1  UNL     1     -12.100   9.621  70.460  1.00  0.00     0.000 HD 
HETATM   25  C   UNL     1     -12.260  13.383  70.102  1.00  0.00    -0.315 A  
ENDBRANCH  13  14
ENDBRANCH   8  13
ENDBRANCH   4   5
ENDBRANCH   2   4
TORSDOF 6
ENDMDL
MODEL       61
REMARK 921   NORMALIZED FREE ENERGY PREDICTED BY IDOCK:   -5.53 KCAL/MOL
REMARK 922        TOTAL FREE ENERGY PREDICTED BY IDOCK:   -8.48 KCAL/MOL
REMARK 923 INTER-LIGAND FREE ENERGY PREDICTED BY IDOCK:   -7.71 KCAL/MOL
REMARK 924 INTRA-LIGAND FREE ENERGY PREDICTED BY IDOCK:   -0.77 KCAL/MOL
REMARK 927      BINDING AFFINITY PREDICTED BY RF-SCORE:    0.00 PKD
ROOT
HETATM    1  C   UNL     1      -9.614   7.853  71.037  1.00  0.00    -0.177 C  
HETATM    2  C   UNL     1     -10.839   8.476  71.635  1.00  0.00    -0.286 C  
HETATM    3  O   UNL     1     -11.284   8.194  72.739  1.00  0.00    -0.389 OA 
ENDROOT
BRANCH   2   4
HETATM    4  O   UNL     1     -11.394   9.362  70.764  1.00  0.00    -0.261 OA 
BRANCH   4   5
HETATM    5  C   UNL     1     -12.370  10.255  71.326  1.00  0.00    -0.403 C  
HETATM    6  C   UNL     1     -12.164  11.707  70.848  1.00  0.00    -0.401 C  
HETATM    7  C   UNL     1     -13.165  12.612  71.600  1.00  0.00    -0.298 C  
HETATM    8  C   UNL     1     -12.273  11.784  69.305  1.00  0.00    -0.202 C  
BRANCH   7   9
HETATM    9  O   UNL     1     -13.055  14.001  71.253  1.00  0.00    -0.328 OA 
BRANCH   9  10
HETATM   10  C   UNL     1     -12.287  14.783  72.056  1.00  0.00    -0.341 C  
HETATM   11  O   UNL     1     -11.272  15.366  71.709  1.00  0.00    -0.398 OA 
HETATM   12  C   UNL     1     -12.894  14.892  73.425  1.00  0.00    -0.638 C  
ENDBRANCH   9  10
ENDBRANCH   7   9
BRANCH   8  13
HETATM   13  C   UNL     1     -11.970  13.165  68.723  1.00  0.00    -0.280 C  
BRANCH  13  14
HETATM   14  N   UNL     1     -10.942  13.144  67.707  1.00  0.00    -0.245 NA 
HETATM   15  C   UNL     1      -9.631  13.497  67.871  1.00  0.00    -0.218 A  
HETATM   16  N   UNL     1      -8.970  13.449  66.731  1.00  0.00    -0.216 NA 
HETATM   17  C   UNL     1      -9.910  13.089  65.794  1.00  0.00    -0.209 A  
HETATM   18  C   UNL     1      -9.860  12.897  64.420  1.00  0.00     0.002 A  
HETATM   19  N   UNL     1     -10.996  12.569  63.750  1.00  0.00    -0.419 NA 
HETATM   20  C   UNL     1     -12.144  12.447  64.440  1.00  0.00    -0.426 A  
HETATM   21  N   UNL     1     -12.299  12.568  65.767  1.00  0.00    -0.626 NA 
HETATM   22  N   UNL     1     -13.271  12.138  63.705  1.00  0.00    -0.664 NA 
HETATM   23  H2  UNL     1     -13.105  11.292  63.159  1.00  0.00     0.000 HD 
HETATM   24  H1  UNL     1     -14.141  12.045  64.228  1.00  0.00     0.000 HD 
HETATM   25  C   UNL     1     -11.148  12.898  66.379  1.00  0.00    -0.285 A  
ENDBRANCH  13  14
ENDBRANCH   8  13
ENDBRANCH   4   5
ENDBRANCH   2   4
TORSDOF 6
ENDMDL
MODEL       62
REMARK 921   NORMALIZED FREE ENERGY PREDICTED BY IDOCK:   -5.51 KCAL/MOL
REMARK 922        TOTAL FREE ENERGY PREDICTED BY IDOCK:   -8.44 KCAL/MOL
REMARK 923 INTER-LIGAND FREE ENERGY PREDICTED BY IDOCK:   -7.69 KCAL/MOL
REMARK 924 INTRA-LIGAND FREE ENERGY PREDICTED BY IDOCK:   -0.75 KCAL/MOL
REMARK 927      BINDING AFFINITY PREDICTED BY RF-SCORE:    0.00 PKD
ROOT
HETATM    1  C   UNL     1      -8.176   7.738  64.858  1.00  0.00    -0.111 C  
HETATM    2  C   UNL     1      -8.856   8.087  66.147  1.00  0.00    -0.166 C  
HETATM    3  O   UNL     1      -9.677   7.374  66.706  1.00  0.00    -0.185 OA 
ENDROOT
BRANCH   2   4
HETATM    4  O   UNL     1      -8.456   9.315  66.577  1.00  0.00    -0.123 OA 
BRANCH   4   5
HETATM    5  C   UNL     1      -8.676  10.396  65.655  1.00  0.00    -0.171 C  
HETATM    6  C   UNL     1      -9.858  11.288  66.086  1.00  0.00    -0.262 C  
HETATM    7  C   UNL     1     -10.104  12.336  64.978  1.00  0.00    -0.253 C  
HETATM    8  C   UNL     1      -9.588  11.896  67.485  1.00  0.00    -0.175 C  
BRANCH   7   9
HETATM    9  O   UNL     1     -11.202  13.218  65.256  1.00  0.00    -0.292 OA 
BRANCH   9  10
HETATM   10  C   UNL     1     -12.094  13.437  64.254  1.00  0.00    -0.424 C  
HETATM   11  O   UNL     1     -12.527  14.529  63.921  1.00  0.00    -0.814 OA 
HETATM   12  C   UNL     1     -12.430  12.150  63.555  1.00  0.00    -0.666 C  
ENDBRANCH   9  10
ENDBRANCH   7   9
BRANCH   8  13
HETATM   13  C   UNL     1     -10.754  12.707  68.051  1.00  0.00    -0.226 C  
BRANCH  13  14
HETATM   14  N   UNL     1     -11.324  12.131  69.249  1.00  0.00    -0.268 NA 
HETATM   15  C   UNL     1     -11.263  10.817  69.626  1.00  0.00    -0.291 A  
HETATM   16  N   UNL     1     -11.954  10.596  70.727  1.00  0.00    -0.349 NA 
HETATM   17  C   UNL     1     -12.511  11.814  71.042  1.00  0.00    -0.309 A  
HETATM   18  C   UNL     1     -13.358  12.239  72.056  1.00  0.00    -0.386 A  
HETATM   19  N   UNL     1     -13.774  13.533  72.081  1.00  0.00    -0.528 NA 
HETATM   20  C   UNL     1     -13.357  14.366  71.111  1.00  0.00    -0.331 A  
HETATM   21  N   UNL     1     -12.511  14.075  70.112  1.00  0.00    -0.341 NA 
HETATM   22  N   UNL     1     -13.832  15.661  71.172  1.00  0.00    -0.724 NA 
HETATM   23  H2  UNL     1     -13.622  16.063  72.085  1.00  0.00     0.000 HD 
HETATM   24  H1  UNL     1     -13.516  16.293  70.436  1.00  0.00     0.000 HD 
HETATM   25  C   UNL     1     -12.136  12.784  70.132  1.00  0.00    -0.298 A  
ENDBRANCH  13  14
ENDBRANCH   8  13
ENDBRANCH   4   5
ENDBRANCH   2   4
TORSDOF 6
ENDMDL
MODEL       63
REMARK 921   NORMALIZED FREE ENERGY PREDICTED BY IDOCK:   -5.49 KCAL/MOL
REMARK 922        TOTAL FREE ENERGY PREDICTED BY IDOCK:   -8.42 KCAL/MOL
REMARK 923 INTER-LIGAND FREE ENERGY PREDICTED BY IDOCK:   -8.36 KCAL/MOL
REMARK 924 INTRA-LIGAND FREE ENERGY PREDICTED BY IDOCK:   -0.06 KCAL/MOL
REMARK 927      BINDING AFFINITY PREDICTED BY RF-SCORE:    0.00 PKD
ROOT
HETATM    1  C   UNL     1      -7.511  20.247  67.159  1.00  0.00    -0.337 C  
HETATM    2  C   UNL     1      -8.929  19.921  67.518  1.00  0.00    -0.339 C  
HETATM    3  O   UNL     1      -9.881  20.654  67.292  1.00  0.00    -0.471 OA 
ENDROOT
BRANCH   2   4
HETATM    4  O   UNL     1      -8.993  18.721  68.157  1.00  0.00    -0.291 OA 
BRANCH   4   5
HETATM    5  C   UNL     1      -8.341  17.628  67.487  1.00  0.00    -0.218 C  
HETATM    6  C   UNL     1      -8.701  16.269  68.121  1.00  0.00    -0.182 C  
HETATM    7  C   UNL     1      -7.860  15.173  67.429  1.00  0.00    -0.198 C  
HETATM    8  C   UNL     1     -10.231  16.033  68.051  1.00  0.00    -0.245 C  
BRANCH   7   9
HETATM    9  O   UNL     1      -8.093  13.856  67.952  1.00  0.00    -0.131 OA 
BRANCH   9  10
HETATM   10  C   UNL     1      -7.198  12.888  67.619  1.00  0.00    -0.147 C  
HETATM   11  O   UNL     1      -6.110  13.083  67.101  1.00  0.00    -0.307 OA 
HETATM   12  C   UNL     1      -7.700  11.537  68.038  1.00  0.00    -0.119 C  
ENDBRANCH   9  10
ENDBRANCH   7   9
BRANCH   8  13
HETATM   13  C   UNL     1     -10.702  14.761  68.757  1.00  0.00    -0.253 C  
BRANCH  13  14
HETATM   14  N   UNL     1     -11.263  13.781  67.854  1.00  0.00    -0.263 NA 
HETATM   15  C   UNL     1     -11.431  12.447  68.106  1.00  0.00    -0.318 A  
HETATM   16  N   UNL     1     -11.891  11.808  67.049  1.00  0.00    -0.607 NA 
HETATM   17  C   UNL     1     -11.982  12.769  66.069  1.00  0.00    -0.432 A  
HETATM   18  C   UNL     1     -12.365  12.736  64.736  1.00  0.00    -0.478 A  
HETATM   19  N   UNL     1     -12.313  13.876  63.997  1.00  0.00    -0.683 NA 
HETATM   20  C   UNL     1     -11.881  15.008  64.581  1.00  0.00    -0.375 A  
HETATM   21  N   UNL     1     -11.526  15.162  65.865  1.00  0.00    -0.229 NA 
HETATM   22  N   UNL     1     -11.823  16.128  63.777  1.00  0.00    -1.368 NA 
HETATM   23  H2  UNL     1     -12.733  16.289  63.345  1.00  0.00     0.000 HD 
HETATM   24  H1  UNL     1     -11.495  16.986  64.219  1.00  0.00     0.000 HD 
HETATM   25  C   UNL     1     -11.590  14.006  66.547  1.00  0.00    -0.374 A  
ENDBRANCH  13  14
ENDBRANCH   8  13
ENDBRANCH   4   5
ENDBRANCH   2   4
TORSDOF 6
ENDMDL
MODEL       64
REMARK 921   NORMALIZED FREE ENERGY PREDICTED BY IDOCK:   -5.48 KCAL/MOL
REMARK 922        TOTAL FREE ENERGY PREDICTED BY IDOCK:   -8.41 KCAL/MOL
REMARK 923 INTER-LIGAND FREE ENERGY PREDICTED BY IDOCK:   -7.71 KCAL/MOL
REMARK 924 INTRA-LIGAND FREE ENERGY PREDICTED BY IDOCK:   -0.69 KCAL/MOL
REMARK 927      BINDING AFFINITY PREDICTED BY RF-SCORE:    0.00 PKD
ROOT
HETATM    1  C   UNL     1      -6.146  12.417  67.346  1.00  0.00    -0.158 C  
HETATM    2  C   UNL     1      -6.248  13.768  67.988  1.00  0.00    -0.141 C  
HETATM    3  O   UNL     1      -5.769  14.048  69.078  1.00  0.00    -0.085 OA 
ENDROOT
BRANCH   2   4
HETATM    4  O   UNL     1      -6.973  14.611  67.204  1.00  0.00    -0.207 OA 
BRANCH   4   5
HETATM    5  C   UNL     1      -6.891  16.004  67.552  1.00  0.00    -0.176 C  
HETATM    6  C   UNL     1      -8.255  16.566  68.002  1.00  0.00    -0.172 C  
HETATM    7  C   UNL     1      -8.103  18.086  68.227  1.00  0.00    -0.291 C  
HETATM    8  C   UNL     1      -8.773  15.790  69.239  1.00  0.00    -0.261 C  
BRANCH   7   9
HETATM    9  O   UNL     1      -9.321  18.731  68.631  1.00  0.00    -0.337 OA 
BRANCH   9  10
HETATM   10  C   UNL     1     -10.007  19.417  67.679  1.00  0.00    -0.371 C  
HETATM   11  O   UNL     1     -11.175  19.229  67.380  1.00  0.00    -0.344 OA 
HETATM   12  C   UNL     1      -9.148  20.494  67.082  1.00  0.00    -0.452 C  
ENDBRANCH   9  10
ENDBRANCH   7   9
BRANCH   8  13
HETATM   13  C   UNL     1     -10.175  16.198  69.693  1.00  0.00    -0.243 C  
BRANCH  13  14
HETATM   14  N   UNL     1     -11.020  15.071  70.020  1.00  0.00    -0.257 NA 
HETATM   15  C   UNL     1     -11.263  13.982  69.229  1.00  0.00    -0.261 A  
HETATM   16  N   UNL     1     -12.145  13.171  69.779  1.00  0.00    -0.298 NA 
HETATM   17  C   UNL     1     -12.510  13.790  70.952  1.00  0.00    -0.377 A  
HETATM   18  C   UNL     1     -13.409  13.469  71.959  1.00  0.00    -0.475 A  
HETATM   19  N   UNL     1     -13.577  14.324  73.003  1.00  0.00    -0.600 NA 
HETATM   20  C   UNL     1     -12.867  15.466  73.026  1.00  0.00    -0.463 A  
HETATM   21  N   UNL     1     -11.945  15.855  72.133  1.00  0.00    -0.470 NA 
HETATM   22  N   UNL     1     -13.096  16.307  74.096  1.00  0.00    -0.942 NA 
HETATM   23  H2  UNL     1     -12.960  15.799  74.969  1.00  0.00     0.000 HD 
HETATM   24  H1  UNL     1     -12.558  17.174  74.114  1.00  0.00     0.000 HD 
HETATM   25  C   UNL     1     -11.824  14.979  71.121  1.00  0.00    -0.333 A  
ENDBRANCH  13  14
ENDBRANCH   8  13
ENDBRANCH   4   5
ENDBRANCH   2   4
TORSDOF 6
ENDMDL
MODEL       65
REMARK 921   NORMALIZED FREE ENERGY PREDICTED BY IDOCK:   -5.47 KCAL/MOL
REMARK 922        TOTAL FREE ENERGY PREDICTED BY IDOCK:   -8.39 KCAL/MOL
REMARK 923 INTER-LIGAND FREE ENERGY PREDICTED BY IDOCK:   -7.66 KCAL/MOL
REMARK 924 INTRA-LIGAND FREE ENERGY PREDICTED BY IDOCK:   -0.74 KCAL/MOL
REMARK 927      BINDING AFFINITY PREDICTED BY RF-SCORE:    0.00 PKD
ROOT
HETATM    1  C   UNL     1     -10.484  18.906  66.913  1.00  0.00    -0.496 C  
HETATM    2  C   UNL     1      -9.793  17.895  66.050  1.00  0.00    -0.170 C  
HETATM    3  O   UNL     1      -8.579  17.783  65.960  1.00  0.00    -0.497 OA 
ENDROOT
BRANCH   2   4
HETATM    4  O   UNL     1     -10.706  17.154  65.364  1.00  0.00    -0.562 OA 
BRANCH   4   5
HETATM    5  C   UNL     1     -10.321  15.797  65.088  1.00  0.00    -0.299 C  
HETATM    6  C   UNL     1     -10.240  14.950  66.374  1.00  0.00    -0.292 C  
HETATM    7  C   UNL     1      -9.695  13.553  66.002  1.00  0.00    -0.218 C  
HETATM    8  C   UNL     1     -11.614  14.926  67.088  1.00  0.00    -0.327 C  
BRANCH   7   9
HETATM    9  O   UNL     1      -9.553  12.674  67.129  1.00  0.00    -0.198 OA 
BRANCH   9  10
HETATM   10  C   UNL     1      -8.831  11.538  66.943  1.00  0.00    -0.182 C  
HETATM   11  O   UNL     1      -7.776  11.275  67.498  1.00  0.00    -0.113 OA 
HETATM   12  C   UNL     1      -9.543  10.606  66.004  1.00  0.00    -0.244 C  
ENDBRANCH   9  10
ENDBRANCH   7   9
BRANCH   8  13
HETATM   13  C   UNL     1     -11.608  14.204  68.437  1.00  0.00    -0.318 C  
BRANCH  13  14
HETATM   14  N   UNL     1     -11.659  15.104  69.567  1.00  0.00    -0.298 NA 
HETATM   15  C   UNL     1     -10.989  16.290  69.691  1.00  0.00    -0.346 A  
HETATM   16  N   UNL     1     -11.180  16.833  70.878  1.00  0.00     0.087 NA 
HETATM   17  C   UNL     1     -11.973  15.934  71.552  1.00  0.00    -0.471 A  
HETATM   18  C   UNL     1     -12.497  15.903  72.837  1.00  0.00    -0.479 A  
HETATM   19  N   UNL     1     -13.235  14.832  73.232  1.00  0.00    -0.566 NA 
HETATM   20  C   UNL     1     -13.430  13.824  72.363  1.00  0.00    -0.571 A  
HETATM   21  N   UNL     1     -13.008  13.767  71.092  1.00  0.00    -0.319 NA 
HETATM   22  N   UNL     1     -14.165  12.751  72.828  1.00  0.00    -0.456 NA 
HETATM   23  H2  UNL     1     -15.063  13.077  73.185  1.00  0.00     0.000 HD 
HETATM   24  H1  UNL     1     -14.313  11.986  72.169  1.00  0.00     0.000 HD 
HETATM   25  C   UNL     1     -12.280  14.846  70.756  1.00  0.00    -0.325 A  
ENDBRANCH  13  14
ENDBRANCH   8  13
ENDBRANCH   4   5
ENDBRANCH   2   4
TORSDOF 6
ENDMDL
MODEL       66
REMARK 921   NORMALIZED FREE ENERGY PREDICTED BY IDOCK:   -5.46 KCAL/MOL
REMARK 922        TOTAL FREE ENERGY PREDICTED BY IDOCK:   -8.38 KCAL/MOL
REMARK 923 INTER-LIGAND FREE ENERGY PREDICTED BY IDOCK:   -7.45 KCAL/MOL
REMARK 924 INTRA-LIGAND FREE ENERGY PREDICTED BY IDOCK:   -0.93 KCAL/MOL
REMARK 927      BINDING AFFINITY PREDICTED BY RF-SCORE:    0.00 PKD
ROOT
HETATM    1  C   UNL     1     -12.034  13.028  63.532  1.00  0.00    -0.615 C  
HETATM    2  C   UNL     1     -11.062  11.919  63.803  1.00  0.00    -0.436 C  
HETATM    3  O   UNL     1     -10.790  11.035  63.004  1.00  0.00    -0.042 OA 
ENDROOT
BRANCH   2   4
HETATM    4  O   UNL     1     -10.564  12.023  65.065  1.00  0.00    -0.268 OA 
BRANCH   4   5
HETATM    5  C   UNL     1     -11.509  12.424  66.073  1.00  0.00    -0.382 C  
HETATM    6  C   UNL     1     -10.834  13.216  67.211  1.00  0.00    -0.270 C  
HETATM    7  C   UNL     1     -11.890  13.489  68.304  1.00  0.00    -0.366 C  
HETATM    8  C   UNL     1     -10.159  14.492  66.648  1.00  0.00    -0.275 C  
BRANCH   7   9
HETATM    9  O   UNL     1     -11.373  14.208  69.435  1.00  0.00    -0.254 OA 
BRANCH   9  10
HETATM   10  C   UNL     1     -12.261  14.578  70.395  1.00  0.00    -0.329 C  
HETATM   11  O   UNL     1     -12.687  15.710  70.561  1.00  0.00    -0.447 OA 
HETATM   12  C   UNL     1     -12.706  13.386  71.192  1.00  0.00    -0.411 C  
ENDBRANCH   9  10
ENDBRANCH   7   9
BRANCH   8  13
HETATM   13  C   UNL     1      -9.364  15.289  67.683  1.00  0.00    -0.199 C  
BRANCH  13  14
HETATM   14  N   UNL     1      -9.642  16.707  67.650  1.00  0.00    -0.237 NA 
HETATM   15  C   UNL     1     -10.748  17.330  68.159  1.00  0.00    -0.363 A  
HETATM   16  N   UNL     1     -10.743  18.622  67.893  1.00  0.00    -0.350 NA 
HETATM   17  C   UNL     1      -9.604  18.823  67.148  1.00  0.00    -0.300 A  
HETATM   18  C   UNL     1      -9.047  19.940  66.543  1.00  0.00    -0.379 A  
HETATM   19  N   UNL     1      -7.901  19.810  65.825  1.00  0.00    -0.391 NA 
HETATM   20  C   UNL     1      -7.339  18.593  65.715  1.00  0.00    -0.156 A  
HETATM   21  N   UNL     1      -7.767  17.458  66.288  1.00  0.00    -0.334 NA 
HETATM   22  N   UNL     1      -6.191  18.515  64.953  1.00  0.00    -0.398 NA 
HETATM   23  H2  UNL     1      -5.502  19.182  65.300  1.00  0.00     0.000 HD 
HETATM   24  H1  UNL     1      -5.765  17.592  64.869  1.00  0.00     0.000 HD 
HETATM   25  C   UNL     1      -8.905  17.642  66.979  1.00  0.00    -0.246 A  
ENDBRANCH  13  14
ENDBRANCH   8  13
ENDBRANCH   4   5
ENDBRANCH   2   4
TORSDOF 6
ENDMDL
MODEL       67
REMARK 921   NORMALIZED FREE ENERGY PREDICTED BY IDOCK:   -5.45 KCAL/MOL
REMARK 922        TOTAL FREE ENERGY PREDICTED BY IDOCK:   -8.36 KCAL/MOL
REMARK 923 INTER-LIGAND FREE ENERGY PREDICTED BY IDOCK:   -7.27 KCAL/MOL
REMARK 924 INTRA-LIGAND FREE ENERGY PREDICTED BY IDOCK:   -1.09 KCAL/MOL
REMARK 927      BINDING AFFINITY PREDICTED BY RF-SCORE:    0.00 PKD
ROOT
HETATM    1  C   UNL     1      -8.012   8.700  64.436  1.00  0.00    -0.146 C  
HETATM    2  C   UNL     1      -8.035  10.034  63.752  1.00  0.00    -0.153 C  
HETATM    3  O   UNL     1      -7.328  10.329  62.800  1.00  0.00    -0.138 OA 
ENDROOT
BRANCH   2   4
HETATM    4  O   UNL     1      -8.921  10.865  64.366  1.00  0.00    -0.179 OA 
BRANCH   4   5
HETATM    5  C   UNL     1      -9.711  10.268  65.408  1.00  0.00    -0.278 C  
HETATM    6  C   UNL     1     -10.540  11.319  66.175  1.00  0.00    -0.312 C  
HETATM    7  C   UNL     1     -11.249  10.613  67.352  1.00  0.00    -0.205 C  
HETATM    8  C   UNL     1     -11.498  12.056  65.207  1.00  0.00    -0.358 C  
BRANCH   7   9
HETATM    9  O   UNL     1     -12.041  11.498  68.159  1.00  0.00    -0.604 OA 
BRANCH   9  10
HETATM   10  C   UNL     1     -11.774  11.530  69.491  1.00  0.00    -0.346 C  
HETATM   11  O   UNL     1     -12.203  12.361  70.276  1.00  0.00    -0.327 OA 
HETATM   12  C   UNL     1     -10.928  10.355  69.889  1.00  0.00    -0.364 C  
ENDBRANCH   9  10
ENDBRANCH   7   9
BRANCH   8  13
HETATM   13  C   UNL     1     -12.284  13.199  65.851  1.00  0.00    -0.436 C  
BRANCH  13  14
HETATM   14  N   UNL     1     -11.519  14.419  65.978  1.00  0.00    -0.343 NA 
HETATM   15  C   UNL     1     -10.772  15.014  64.999  1.00  0.00    -0.427 A  
HETATM   16  N   UNL     1     -10.126  16.069  65.455  1.00  0.00    -0.461 NA 
HETATM   17  C   UNL     1     -10.444  16.125  66.793  1.00  0.00    -0.294 A  
HETATM   18  C   UNL     1     -10.071  16.972  67.826  1.00  0.00    -0.302 A  
HETATM   19  N   UNL     1     -10.538  16.742  69.081  1.00  0.00    -0.335 NA 
HETATM   20  C   UNL     1     -11.348  15.689  69.288  1.00  0.00    -0.345 A  
HETATM   21  N   UNL     1     -11.804  14.833  68.361  1.00  0.00    -0.309 NA 
HETATM   22  N   UNL     1     -11.771  15.488  70.587  1.00  0.00    -0.322 NA 
HETATM   23  H2  UNL     1     -12.213  16.337  70.940  1.00  0.00     0.000 HD 
HETATM   24  H1  UNL     1     -12.386  14.689  70.744  1.00  0.00     0.000 HD 
HETATM   25  C   UNL     1     -11.308  15.103  67.142  1.00  0.00    -0.290 A  
ENDBRANCH  13  14
ENDBRANCH   8  13
ENDBRANCH   4   5
ENDBRANCH   2   4
TORSDOF 6
ENDMDL
MODEL       68
REMARK 921   NORMALIZED FREE ENERGY PREDICTED BY IDOCK:   -5.43 KCAL/MOL
REMARK 922        TOTAL FREE ENERGY PREDICTED BY IDOCK:   -8.34 KCAL/MOL
REMARK 923 INTER-LIGAND FREE ENERGY PREDICTED BY IDOCK:   -7.58 KCAL/MOL
REMARK 924 INTRA-LIGAND FREE ENERGY PREDICTED BY IDOCK:   -0.76 KCAL/MOL
REMARK 927      BINDING AFFINITY PREDICTED BY RF-SCORE:    0.00 PKD
ROOT
HETATM    1  C   UNL     1      -9.029   8.960  69.101  1.00  0.00    -0.140 C  
HETATM    2  C   UNL     1      -8.660  10.409  68.988  1.00  0.00    -0.157 C  
HETATM    3  O   UNL     1      -7.636  10.894  69.447  1.00  0.00    -0.142 OA 
ENDROOT
BRANCH   2   4
HETATM    4  O   UNL     1      -9.639  11.098  68.341  1.00  0.00    -0.178 OA 
BRANCH   4   5
HETATM    5  C   UNL     1      -9.601  11.026  66.905  1.00  0.00    -0.182 C  
HETATM    6  C   UNL     1     -10.121  12.322  66.251  1.00  0.00    -0.253 C  
HETATM    7  C   UNL     1     -10.169  12.109  64.722  1.00  0.00    -0.281 C  
HETATM    8  C   UNL     1      -9.260  13.531  66.696  1.00  0.00    -0.221 C  
BRANCH   7   9
HETATM    9  O   UNL     1     -10.661  13.247  63.998  1.00  0.00    -0.373 OA 
BRANCH   9  10
HETATM   10  C   UNL     1     -12.003  13.327  63.803  1.00  0.00    -0.491 C  
HETATM   11  O   UNL     1     -12.652  14.361  63.786  1.00  0.00    -0.829 OA 
HETATM   12  C   UNL     1     -12.581  11.966  63.542  1.00  0.00    -0.579 C  
ENDBRANCH   9  10
ENDBRANCH   7   9
BRANCH   8  13
HETATM   13  C   UNL     1      -9.766  14.882  66.189  1.00  0.00    -0.306 C  
BRANCH  13  14
HETATM   14  N   UNL     1     -10.019  15.832  67.250  1.00  0.00    -0.235 NA 
HETATM   15  C   UNL     1     -10.681  15.585  68.421  1.00  0.00    -0.263 A  
HETATM   16  N   UNL     1     -10.819  16.680  69.140  1.00  0.00    -0.327 NA 
HETATM   17  C   UNL     1     -10.256  17.676  68.377  1.00  0.00    -0.381 A  
HETATM   18  C   UNL     1     -10.109  19.045  68.555  1.00  0.00    -0.400 A  
HETATM   19  N   UNL     1      -9.524  19.786  67.577  1.00  0.00    -0.328 NA 
HETATM   20  C   UNL     1      -9.109  19.170  66.456  1.00  0.00    -0.341 A  
HETATM   21  N   UNL     1      -9.163  17.855  66.197  1.00  0.00    -0.501 NA 
HETATM   22  N   UNL     1      -8.546  19.976  65.487  1.00  0.00    -0.413 NA 
HETATM   23  H2  UNL     1      -7.778  20.513  65.890  1.00  0.00     0.000 HD 
HETATM   24  H1  UNL     1      -8.231  19.509  64.637  1.00  0.00     0.000 HD 
HETATM   25  C   UNL     1      -9.755  17.171  67.191  1.00  0.00    -0.261 A  
ENDBRANCH  13  14
ENDBRANCH   8  13
ENDBRANCH   4   5
ENDBRANCH   2   4
TORSDOF 6
ENDMDL
MODEL       69
REMARK 921   NORMALIZED FREE ENERGY PREDICTED BY IDOCK:   -5.42 KCAL/MOL
REMARK 922        TOTAL FREE ENERGY PREDICTED BY IDOCK:   -8.34 KCAL/MOL
REMARK 923 INTER-LIGAND FREE ENERGY PREDICTED BY IDOCK:   -7.51 KCAL/MOL
REMARK 924 INTRA-LIGAND FREE ENERGY PREDICTED BY IDOCK:   -0.83 KCAL/MOL
REMARK 927      BINDING AFFINITY PREDICTED BY RF-SCORE:    0.00 PKD
ROOT
HETATM    1  C   UNL     1     -13.417  15.433  71.716  1.00  0.00    -0.581 C  
HETATM    2  C   UNL     1     -12.554  14.866  70.629  1.00  0.00    -0.363 C  
HETATM    3  O   UNL     1     -12.197  13.698  70.576  1.00  0.00    -0.339 OA 
ENDROOT
BRANCH   2   4
HETATM    4  O   UNL     1     -12.205  15.839  69.745  1.00  0.00    -0.344 OA 
BRANCH   4   5
HETATM    5  C   UNL     1     -10.842  16.290  69.827  1.00  0.00    -0.356 C  
HETATM    6  C   UNL     1      -9.998  15.791  68.637  1.00  0.00    -0.208 C  
HETATM    7  C   UNL     1      -8.530  16.208  68.874  1.00  0.00    -0.241 C  
HETATM    8  C   UNL     1     -10.596  16.305  67.303  1.00  0.00    -0.298 C  
BRANCH   7   9
HETATM    9  O   UNL     1      -7.636  15.778  67.835  1.00  0.00    -0.122 OA 
BRANCH   9  10
HETATM   10  C   UNL     1      -6.766  14.779  68.139  1.00  0.00    -0.129 C  
HETATM   11  O   UNL     1      -6.032  14.218  67.341  1.00  0.00    -0.346 OA 
HETATM   12  C   UNL     1      -6.777  14.497  69.614  1.00  0.00    -0.155 C  
ENDBRANCH   9  10
ENDBRANCH   7   9
BRANCH   8  13
HETATM   13  C   UNL     1      -9.895  15.769  66.054  1.00  0.00    -0.337 C  
BRANCH  13  14
HETATM   14  N   UNL     1     -10.800  15.151  65.111  1.00  0.00    -0.393 NA 
HETATM   15  C   UNL     1     -11.831  15.764  64.454  1.00  0.00    -0.148 A  
HETATM   16  N   UNL     1     -12.522  14.907  63.728  1.00  0.00    -0.698 NA 
HETATM   17  C   UNL     1     -11.929  13.688  63.965  1.00  0.00    -0.431 A  
HETATM   18  C   UNL     1     -12.197  12.398  63.528  1.00  0.00    -0.563 A  
HETATM   19  N   UNL     1     -11.433  11.368  63.978  1.00  0.00    -0.248 NA 
HETATM   20  C   UNL     1     -10.437  11.630  64.844  1.00  0.00    -0.288 A  
HETATM   21  N   UNL     1     -10.065  12.836  65.298  1.00  0.00    -0.274 NA 
HETATM   22  N   UNL     1      -9.710  10.543  65.287  1.00  0.00    -0.247 NA 
HETATM   23  H2  UNL     1      -9.345  10.024  64.489  1.00  0.00     0.000 HD 
HETATM   24  H1  UNL     1      -8.956  10.741  65.944  1.00  0.00     0.000 HD 
HETATM   25  C   UNL     1     -10.856  13.815  64.828  1.00  0.00    -0.401 A  
ENDBRANCH  13  14
ENDBRANCH   8  13
ENDBRANCH   4   5
ENDBRANCH   2   4
TORSDOF 6
ENDMDL
MODEL       70
REMARK 921   NORMALIZED FREE ENERGY PREDICTED BY IDOCK:   -5.42 KCAL/MOL
REMARK 922        TOTAL FREE ENERGY PREDICTED BY IDOCK:   -8.33 KCAL/MOL
REMARK 923 INTER-LIGAND FREE ENERGY PREDICTED BY IDOCK:   -7.66 KCAL/MOL
REMARK 924 INTRA-LIGAND FREE ENERGY PREDICTED BY IDOCK:   -0.67 KCAL/MOL
REMARK 927      BINDING AFFINITY PREDICTED BY RF-SCORE:    0.00 PKD
ROOT
HETATM    1  C   UNL     1      -9.995  16.056  65.666  1.00  0.00    -0.346 C  
HETATM    2  C   UNL     1     -11.225  15.792  64.852  1.00  0.00    -0.350 C  
HETATM    3  O   UNL     1     -11.556  16.448  63.875  1.00  0.00    -1.100 OA 
ENDROOT
BRANCH   2   4
HETATM    4  O   UNL     1     -11.927  14.752  65.378  1.00  0.00    -0.310 OA 
BRANCH   4   5
HETATM    5  C   UNL     1     -11.507  13.444  64.952  1.00  0.00    -0.325 C  
HETATM    6  C   UNL     1     -10.731  12.701  66.058  1.00  0.00    -0.295 C  
HETATM    7  C   UNL     1     -10.208  11.370  65.474  1.00  0.00    -0.264 C  
HETATM    8  C   UNL     1     -11.617  12.536  67.318  1.00  0.00    -0.434 C  
BRANCH   7   9
HETATM    9  O   UNL     1      -9.445  10.593  66.410  1.00  0.00    -0.164 OA 
BRANCH   9  10
HETATM   10  C   UNL     1      -9.659   9.251  66.423  1.00  0.00    -0.238 C  
HETATM   11  O   UNL     1     -10.560   8.688  67.024  1.00  0.00    -0.294 OA 
HETATM   12  C   UNL     1      -8.670   8.549  65.538  1.00  0.00    -0.208 C  
ENDBRANCH   9  10
ENDBRANCH   7   9
BRANCH   8  13
HETATM   13  C   UNL     1     -10.898  11.911  68.513  1.00  0.00    -0.221 C  
BRANCH  13  14
HETATM   14  N   UNL     1     -11.746  11.756  69.674  1.00  0.00    -0.321 NA 
HETATM   15  C   UNL     1     -12.389  12.756  70.350  1.00  0.00    -0.247 A  
HETATM   16  N   UNL     1     -13.016  12.297  71.415  1.00  0.00    -0.327 NA 
HETATM   17  C   UNL     1     -12.727  10.952  71.441  1.00  0.00    -0.434 A  
HETATM   18  C   UNL     1     -13.057   9.924  72.311  1.00  0.00    -0.327 A  
HETATM   19  N   UNL     1     -12.577   8.673  72.081  1.00  0.00    -0.368 NA 
HETATM   20  C   UNL     1     -11.786   8.469  71.013  1.00  0.00    -0.275 A  
HETATM   21  N   UNL     1     -11.437   9.375  70.088  1.00  0.00    -0.192 NA 
HETATM   22  N   UNL     1     -11.307   7.185  70.843  1.00  0.00    -0.275 NA 
HETATM   23  H2  UNL     1     -12.085   6.527  70.826  1.00  0.00     0.000 HD 
HETATM   24  H1  UNL     1     -10.706   7.030  70.033  1.00  0.00     0.000 HD 
HETATM   25  C   UNL     1     -11.932  10.593  70.367  1.00  0.00    -0.346 A  
ENDBRANCH  13  14
ENDBRANCH   8  13
ENDBRANCH   4   5
ENDBRANCH   2   4
TORSDOF 6
ENDMDL
MODEL       71
REMARK 921   NORMALIZED FREE ENERGY PREDICTED BY IDOCK:   -5.42 KCAL/MOL
REMARK 922        TOTAL FREE ENERGY PREDICTED BY IDOCK:   -8.33 KCAL/MOL
REMARK 923 INTER-LIGAND FREE ENERGY PREDICTED BY IDOCK:   -7.65 KCAL/MOL
REMARK 924 INTRA-LIGAND FREE ENERGY PREDICTED BY IDOCK:   -0.67 KCAL/MOL
REMARK 927      BINDING AFFINITY PREDICTED BY RF-SCORE:    0.00 PKD
ROOT
HETATM    1  C   UNL     1     -10.874  10.339  68.788  1.00  0.00    -0.265 C  
HETATM    2  C   UNL     1     -10.649  11.132  67.536  1.00  0.00    -0.221 C  
HETATM    3  O   UNL     1     -10.463  10.637  66.434  1.00  0.00    -0.242 OA 
ENDROOT
BRANCH   2   4
HETATM    4  O   UNL     1     -10.645  12.465  67.813  1.00  0.00    -0.210 OA 
BRANCH   4   5
HETATM    5  C   UNL     1     -11.711  12.924  68.662  1.00  0.00    -0.324 C  
HETATM    6  C   UNL     1     -11.377  14.276  69.324  1.00  0.00    -0.322 C  
HETATM    7  C   UNL     1     -12.510  14.626  70.313  1.00  0.00    -0.346 C  
HETATM    8  C   UNL     1     -11.124  15.355  68.241  1.00  0.00    -0.309 C  
BRANCH   7   9
HETATM    9  O   UNL     1     -12.301  15.863  71.012  1.00  0.00    -0.421 OA 
BRANCH   9  10
HETATM   10  C   UNL     1     -12.383  15.831  72.368  1.00  0.00    -0.456 C  
HETATM   11  O   UNL     1     -11.979  16.706  73.118  1.00  0.00    -0.500 OA 
HETATM   12  C   UNL     1     -13.103  14.596  72.826  1.00  0.00    -0.580 C  
ENDBRANCH   9  10
ENDBRANCH   7   9
BRANCH   8  13
HETATM   13  C   UNL     1     -10.673  16.707  68.796  1.00  0.00    -0.342 C  
BRANCH  13  14
HETATM   14  N   UNL     1     -10.261  17.637  67.769  1.00  0.00    -0.337 NA 
HETATM   15  C   UNL     1     -10.741  17.701  66.490  1.00  0.00    -0.097 A  
HETATM   16  N   UNL     1     -10.100  18.604  65.775  1.00  0.00    -0.517 NA 
HETATM   17  C   UNL     1      -9.142  19.110  66.624  1.00  0.00    -0.335 A  
HETATM   18  C   UNL     1      -8.140  20.057  66.473  1.00  0.00    -0.311 A  
HETATM   19  N   UNL     1      -7.308  20.322  67.514  1.00  0.00    -0.291 NA 
HETATM   20  C   UNL     1      -7.476  19.647  68.666  1.00  0.00    -0.333 A  
HETATM   21  N   UNL     1      -8.431  18.745  68.935  1.00  0.00    -0.254 NA 
HETATM   22  N   UNL     1      -6.586  19.938  69.680  1.00  0.00    -0.351 NA 
HETATM   23  H2  UNL     1      -6.589  20.941  69.865  1.00  0.00     0.000 HD 
HETATM   24  H1  UNL     1      -6.713  19.427  70.553  1.00  0.00     0.000 HD 
HETATM   25  C   UNL     1      -9.221  18.518  67.871  1.00  0.00    -0.290 A  
ENDBRANCH  13  14
ENDBRANCH   8  13
ENDBRANCH   4   5
ENDBRANCH   2   4
TORSDOF 6
ENDMDL
MODEL       72
REMARK 921   NORMALIZED FREE ENERGY PREDICTED BY IDOCK:   -5.40 KCAL/MOL
REMARK 922        TOTAL FREE ENERGY PREDICTED BY IDOCK:   -8.30 KCAL/MOL
REMARK 923 INTER-LIGAND FREE ENERGY PREDICTED BY IDOCK:   -7.53 KCAL/MOL
REMARK 924 INTRA-LIGAND FREE ENERGY PREDICTED BY IDOCK:   -0.77 KCAL/MOL
REMARK 927      BINDING AFFINITY PREDICTED BY RF-SCORE:    0.00 PKD
ROOT
HETATM    1  C   UNL     1     -13.140  10.418  71.673  1.00  0.00    -0.553 C  
HETATM    2  C   UNL     1     -12.894  11.845  71.286  1.00  0.00    -0.290 C  
HETATM    3  O   UNL     1     -13.327  12.808  71.902  1.00  0.00    -0.463 OA 
ENDROOT
BRANCH   2   4
HETATM    4  O   UNL     1     -12.158  11.906  70.143  1.00  0.00    -0.317 OA 
BRANCH   4   5
HETATM    5  C   UNL     1     -11.560  10.667  69.725  1.00  0.00    -0.309 C  
HETATM    6  C   UNL     1     -11.218  10.672  68.221  1.00  0.00    -0.362 C  
HETATM    7  C   UNL     1     -10.708   9.267  67.834  1.00  0.00    -0.188 C  
HETATM    8  C   UNL     1     -10.226  11.818  67.901  1.00  0.00    -0.203 C  
BRANCH   7   9
HETATM    9  O   UNL     1     -10.375   9.140  66.443  1.00  0.00    -0.258 OA 
BRANCH   9  10
HETATM   10  C   UNL     1      -9.154   8.626  66.141  1.00  0.00    -0.201 C  
HETATM   11  O   UNL     1      -8.402   8.083  66.934  1.00  0.00    -0.113 OA 
HETATM   12  C   UNL     1      -8.874   8.757  64.671  1.00  0.00    -0.054 C  
ENDBRANCH   9  10
ENDBRANCH   7   9
BRANCH   8  13
HETATM   13  C   UNL     1      -9.912  11.979  66.413  1.00  0.00    -0.219 C  
BRANCH  13  14
HETATM   14  N   UNL     1     -10.899  12.760  65.702  1.00  0.00    -0.269 NA 
HETATM   15  C   UNL     1     -12.001  12.278  65.051  1.00  0.00    -0.354 A  
HETATM   16  N   UNL     1     -12.657  13.239  64.429  1.00  0.00    -0.649 NA 
HETATM   17  C   UNL     1     -11.918  14.376  64.662  1.00  0.00    -0.464 A  
HETATM   18  C   UNL     1     -12.055  15.698  64.264  1.00  0.00    -0.063 A  
HETATM   19  N   UNL     1     -11.116  16.608  64.636  1.00  0.00    -0.853 NA 
HETATM   20  C   UNL     1     -10.073  16.197  65.379  1.00  0.00    -0.186 A  
HETATM   21  N   UNL     1      -9.864  14.960  65.852  1.00  0.00    -0.314 NA 
HETATM   22  N   UNL     1      -9.139  17.159  65.706  1.00  0.00    -0.512 NA 
HETATM   23  H2  UNL     1      -9.599  17.945  66.165  1.00  0.00     0.000 HD 
HETATM   24  H1  UNL     1      -8.347  16.847  66.269  1.00  0.00     0.000 HD 
HETATM   25  C   UNL     1     -10.815  14.100  65.449  1.00  0.00    -0.337 A  
ENDBRANCH  13  14
ENDBRANCH   8  13
ENDBRANCH   4   5
ENDBRANCH   2   4
TORSDOF 6
ENDMDL
MODEL       73
REMARK 921   NORMALIZED FREE ENERGY PREDICTED BY IDOCK:   -5.38 KCAL/MOL
REMARK 922        TOTAL FREE ENERGY PREDICTED BY IDOCK:   -8.27 KCAL/MOL
REMARK 923 INTER-LIGAND FREE ENERGY PREDICTED BY IDOCK:   -7.49 KCAL/MOL
REMARK 924 INTRA-LIGAND FREE ENERGY PREDICTED BY IDOCK:   -0.79 KCAL/MOL
REMARK 927      BINDING AFFINITY PREDICTED BY RF-SCORE:    0.00 PKD
ROOT
HETATM    1  C   UNL     1     -10.526   8.575  69.345  1.00  0.00    -0.223 C  
HETATM    2  C   UNL     1     -10.597   9.533  70.496  1.00  0.00    -0.297 C  
HETATM    3  O   UNL     1     -10.427   9.217  71.664  1.00  0.00    -0.331 OA 
ENDROOT
BRANCH   2   4
HETATM    4  O   UNL     1     -10.911  10.781  70.054  1.00  0.00    -0.271 OA 
BRANCH   4   5
HETATM    5  C   UNL     1     -12.081  11.372  70.647  1.00  0.00    -0.372 C  
HETATM    6  C   UNL     1     -12.128  12.898  70.431  1.00  0.00    -0.385 C  
HETATM    7  C   UNL     1     -13.337  13.462  71.208  1.00  0.00    -0.109 C  
HETATM    8  C   UNL     1     -12.138  13.224  68.916  1.00  0.00    -0.260 C  
BRANCH   7   9
HETATM    9  O   UNL     1     -13.475  14.887  71.100  1.00  0.00    -0.386 OA 
BRANCH   9  10
HETATM   10  C   UNL     1     -13.139  15.628  72.189  1.00  0.00    -0.458 C  
HETATM   11  O   UNL     1     -13.872  15.858  73.138  1.00  0.00    -0.548 OA 
HETATM   12  C   UNL     1     -11.709  16.077  72.102  1.00  0.00    -0.587 C  
ENDBRANCH   9  10
ENDBRANCH   7   9
BRANCH   8  13
HETATM   13  C   UNL     1     -12.069  14.718  68.596  1.00  0.00    -0.188 C  
BRANCH  13  14
HETATM   14  N   UNL     1     -10.899  15.085  67.830  1.00  0.00    -0.272 NA 
HETATM   15  C   UNL     1     -10.106  14.240  67.103  1.00  0.00    -0.254 A  
HETATM   16  N   UNL     1      -9.069  14.870  66.589  1.00  0.00    -0.268 NA 
HETATM   17  C   UNL     1      -9.184  16.164  67.041  1.00  0.00    -0.211 A  
HETATM   18  C   UNL     1      -8.405  17.302  66.881  1.00  0.00    -0.227 A  
HETATM   19  N   UNL     1      -8.773  18.455  67.499  1.00  0.00    -0.256 NA 
HETATM   20  C   UNL     1      -9.883  18.459  68.257  1.00  0.00    -0.359 A  
HETATM   21  N   UNL     1     -10.728  17.435  68.447  1.00  0.00    -0.340 NA 
HETATM   22  N   UNL     1     -10.194  19.651  68.881  1.00  0.00    -0.599 NA 
HETATM   23  H2  UNL     1     -10.247  20.398  68.189  1.00  0.00     0.000 HD 
HETATM   24  H1  UNL     1     -11.036  19.654  69.456  1.00  0.00     0.000 HD 
HETATM   25  C   UNL     1     -10.315  16.320  67.821  1.00  0.00    -0.287 A  
ENDBRANCH  13  14
ENDBRANCH   8  13
ENDBRANCH   4   5
ENDBRANCH   2   4
TORSDOF 6
ENDMDL
MODEL       74
REMARK 921   NORMALIZED FREE ENERGY PREDICTED BY IDOCK:   -5.36 KCAL/MOL
REMARK 922        TOTAL FREE ENERGY PREDICTED BY IDOCK:   -8.25 KCAL/MOL
REMARK 923 INTER-LIGAND FREE ENERGY PREDICTED BY IDOCK:   -7.32 KCAL/MOL
REMARK 924 INTRA-LIGAND FREE ENERGY PREDICTED BY IDOCK:   -0.93 KCAL/MOL
REMARK 927      BINDING AFFINITY PREDICTED BY RF-SCORE:    0.00 PKD
ROOT
HETATM    1  C   UNL     1      -9.351  19.901  67.464  1.00  0.00    -0.465 C  
HETATM    2  C   UNL     1     -10.069  19.447  66.229  1.00  0.00    -0.456 C  
HETATM    3  O   UNL     1     -10.839  20.146  65.586  1.00  0.00    -0.322 OA 
ENDROOT
BRANCH   2   4
HETATM    4  O   UNL     1      -9.768  18.148  65.956  1.00  0.00    -0.497 OA 
BRANCH   4   5
HETATM    5  C   UNL     1     -10.845  17.363  65.416  1.00  0.00     0.020 C  
HETATM    6  C   UNL     1     -10.442  15.886  65.228  1.00  0.00    -0.403 C  
HETATM    7  C   UNL     1     -11.604  15.152  64.525  1.00  0.00    -0.329 C  
HETATM    8  C   UNL     1     -10.027  15.266  66.585  1.00  0.00    -0.264 C  
BRANCH   7   9
HETATM    9  O   UNL     1     -11.337  13.763  64.274  1.00  0.00    -0.376 OA 
BRANCH   9  10
HETATM   10  C   UNL     1     -12.353  12.886  64.490  1.00  0.00    -0.417 C  
HETATM   11  O   UNL     1     -13.236  13.021  65.322  1.00  0.00    -0.636 OA 
HETATM   12  C   UNL     1     -12.285  11.748  63.513  1.00  0.00    -0.489 C  
ENDBRANCH   9  10
ENDBRANCH   7   9
BRANCH   8  13
HETATM   13  C   UNL     1      -9.500  13.834  66.486  1.00  0.00    -0.269 C  
BRANCH  13  14
HETATM   14  N   UNL     1     -10.245  12.894  67.294  1.00  0.00    -0.233 NA 
HETATM   15  C   UNL     1     -10.960  13.181  68.424  1.00  0.00    -0.262 A  
HETATM   16  N   UNL     1     -11.454  12.091  68.976  1.00  0.00    -0.276 NA 
HETATM   17  C   UNL     1     -11.001  11.060  68.185  1.00  0.00    -0.247 A  
HETATM   18  C   UNL     1     -11.144   9.681  68.244  1.00  0.00    -0.046 A  
HETATM   19  N   UNL     1     -10.530   8.905  67.312  1.00  0.00    -0.282 NA 
HETATM   20  C   UNL     1      -9.792   9.500  66.358  1.00  0.00    -0.253 A  
HETATM   21  N   UNL     1      -9.619  10.818  66.183  1.00  0.00    -0.187 NA 
HETATM   22  N   UNL     1      -9.171   8.662  65.454  1.00  0.00    -0.426 NA 
HETATM   23  H2  UNL     1      -9.862   8.048  65.022  1.00  0.00     0.000 HD 
HETATM   24  H1  UNL     1      -8.611   9.112  64.730  1.00  0.00     0.000 HD 
HETATM   25  C   UNL     1     -10.241  11.537  67.133  1.00  0.00    -0.204 A  
ENDBRANCH  13  14
ENDBRANCH   8  13
ENDBRANCH   4   5
ENDBRANCH   2   4
TORSDOF 6
ENDMDL
MODEL       75
REMARK 921   NORMALIZED FREE ENERGY PREDICTED BY IDOCK:   -5.35 KCAL/MOL
REMARK 922        TOTAL FREE ENERGY PREDICTED BY IDOCK:   -8.24 KCAL/MOL
REMARK 923 INTER-LIGAND FREE ENERGY PREDICTED BY IDOCK:   -7.28 KCAL/MOL
REMARK 924 INTRA-LIGAND FREE ENERGY PREDICTED BY IDOCK:   -0.96 KCAL/MOL
REMARK 927      BINDING AFFINITY PREDICTED BY RF-SCORE:    0.00 PKD
ROOT
HETATM    1  C   UNL     1     -12.394  12.599  65.141  1.00  0.00    -0.547 C  
HETATM    2  C   UNL     1     -10.924  12.313  65.215  1.00  0.00    -0.307 C  
HETATM    3  O   UNL     1     -10.270  11.840  64.297  1.00  0.00    -0.266 OA 
ENDROOT
BRANCH   2   4
HETATM    4  O   UNL     1     -10.443  12.620  66.450  1.00  0.00    -0.244 OA 
BRANCH   4   5
HETATM    5  C   UNL     1     -11.338  12.360  67.545  1.00  0.00    -0.315 C  
HETATM    6  C   UNL     1     -11.221  13.429  68.650  1.00  0.00    -0.304 C  
HETATM    7  C   UNL     1     -12.113  13.001  69.836  1.00  0.00    -0.277 C  
HETATM    8  C   UNL     1     -11.554  14.830  68.078  1.00  0.00    -0.367 C  
BRANCH   7   9
HETATM    9  O   UNL     1     -12.071  13.914  70.944  1.00  0.00    -0.340 OA 
BRANCH   9  10
HETATM   10  C   UNL     1     -13.163  13.960  71.753  1.00  0.00    -0.376 C  
HETATM   11  O   UNL     1     -13.492  13.088  72.542  1.00  0.00    -0.554 OA 
HETATM   12  C   UNL     1     -13.883  15.268  71.597  1.00  0.00    -0.615 C  
ENDBRANCH   9  10
ENDBRANCH   7   9
BRANCH   8  13
HETATM   13  C   UNL     1     -11.355  15.976  69.071  1.00  0.00    -0.363 C  
BRANCH  13  14
HETATM   14  N   UNL     1     -10.278  16.868  68.705  1.00  0.00    -0.291 NA 
HETATM   15  C   UNL     1     -10.400  18.064  68.053  1.00  0.00    -0.387 A  
HETATM   16  N   UNL     1      -9.222  18.597  67.792  1.00  0.00    -0.282 NA 
HETATM   17  C   UNL     1      -8.310  17.681  68.263  1.00  0.00    -0.274 A  
HETATM   18  C   UNL     1      -6.923  17.634  68.266  1.00  0.00    -0.220 A  
HETATM   19  N   UNL     1      -6.293  16.548  68.787  1.00  0.00    -0.139 NA 
HETATM   20  C   UNL     1      -7.036  15.542  69.281  1.00  0.00    -0.186 A  
HETATM   21  N   UNL     1      -8.374  15.500  69.366  1.00  0.00    -0.254 NA 
HETATM   22  N   UNL     1      -6.343  14.454  69.774  1.00  0.00    -0.136 NA 
HETATM   23  H2  UNL     1      -5.672  14.763  70.476  1.00  0.00     0.000 HD 
HETATM   24  H1  UNL     1      -6.907  13.691  70.148  1.00  0.00     0.000 HD 
HETATM   25  C   UNL     1      -8.946  16.592  68.832  1.00  0.00    -0.239 A  
ENDBRANCH  13  14
ENDBRANCH   8  13
ENDBRANCH   4   5
ENDBRANCH   2   4
TORSDOF 6
ENDMDL
MODEL       76
REMARK 921   NORMALIZED FREE ENERGY PREDICTED BY IDOCK:   -5.35 KCAL/MOL
REMARK 922        TOTAL FREE ENERGY PREDICTED BY IDOCK:   -8.23 KCAL/MOL
REMARK 923 INTER-LIGAND FREE ENERGY PREDICTED BY IDOCK:   -7.93 KCAL/MOL
REMARK 924 INTRA-LIGAND FREE ENERGY PREDICTED BY IDOCK:   -0.30 KCAL/MOL
REMARK 927      BINDING AFFINITY PREDICTED BY RF-SCORE:    0.00 PKD
ROOT
HETATM    1  C   UNL     1     -11.179  15.537  64.714  1.00  0.00    -0.399 C  
HETATM    2  C   UNL     1     -11.911  14.356  65.275  1.00  0.00    -0.382 C  
HETATM    3  O   UNL     1     -13.012  13.986  64.894  1.00  0.00    -0.707 OA 
ENDROOT
BRANCH   2   4
HETATM    4  O   UNL     1     -11.193  13.787  66.281  1.00  0.00    -0.300 OA 
BRANCH   4   5
HETATM    5  C   UNL     1     -11.231  14.483  67.539  1.00  0.00    -0.321 C  
HETATM    6  C   UNL     1     -11.981  13.679  68.619  1.00  0.00    -0.395 C  
HETATM    7  C   UNL     1     -12.088  14.552  69.889  1.00  0.00    -0.336 C  
HETATM    8  C   UNL     1     -11.290  12.311  68.846  1.00  0.00    -0.337 C  
BRANCH   7   9
HETATM    9  O   UNL     1     -12.791  13.914  70.967  1.00  0.00    -0.328 OA 
BRANCH   9  10
HETATM   10  C   UNL     1     -12.862  14.587  72.145  1.00  0.00    -0.339 C  
HETATM   11  O   UNL     1     -13.635  14.333  73.056  1.00  0.00    -0.643 OA 
HETATM   12  C   UNL     1     -11.809  15.655  72.210  1.00  0.00    -0.578 C  
ENDBRANCH   9  10
ENDBRANCH   7   9
BRANCH   8  13
HETATM   13  C   UNL     1     -12.026  11.390  69.820  1.00  0.00    -0.353 C  
BRANCH  13  14
HETATM   14  N   UNL     1     -11.357  10.125  70.027  1.00  0.00    -0.270 NA 
HETATM   15  C   UNL     1     -11.099   9.531  71.232  1.00  0.00    -0.379 A  
HETATM   16  N   UNL     1     -10.398   8.423  71.086  1.00  0.00    -0.204 NA 
HETATM   17  C   UNL     1     -10.165   8.330  69.734  1.00  0.00    -0.204 A  
HETATM   18  C   UNL     1      -9.471   7.421  68.948  1.00  0.00    -0.144 A  
HETATM   19  N   UNL     1      -9.388   7.624  67.606  1.00  0.00    -0.141 NA 
HETATM   20  C   UNL     1      -9.978   8.711  67.078  1.00  0.00    -0.249 A  
HETATM   21  N   UNL     1     -10.705   9.628  67.734  1.00  0.00    -0.267 NA 
HETATM   22  N   UNL     1      -9.839   8.880  65.715  1.00  0.00    -0.465 NA 
HETATM   23  H2  UNL     1     -10.161   8.043  65.229  1.00  0.00     0.000 HD 
HETATM   24  H1  UNL     1     -10.286   9.705  65.313  1.00  0.00     0.000 HD 
HETATM   25  C   UNL     1     -10.749   9.383  69.054  1.00  0.00    -0.187 A  
ENDBRANCH  13  14
ENDBRANCH   8  13
ENDBRANCH   4   5
ENDBRANCH   2   4
TORSDOF 6
ENDMDL
MODEL       77
REMARK 921   NORMALIZED FREE ENERGY PREDICTED BY IDOCK:   -5.34 KCAL/MOL
REMARK 922        TOTAL FREE ENERGY PREDICTED BY IDOCK:   -8.23 KCAL/MOL
REMARK 923 INTER-LIGAND FREE ENERGY PREDICTED BY IDOCK:   -7.49 KCAL/MOL
REMARK 924 INTRA-LIGAND FREE ENERGY PREDICTED BY IDOCK:   -0.74 KCAL/MOL
REMARK 927      BINDING AFFINITY PREDICTED BY RF-SCORE:    0.00 PKD
ROOT
HETATM    1  C   UNL     1      -7.722   8.832  68.164  1.00  0.00    -0.101 C  
HETATM    2  C   UNL     1      -6.712   9.069  67.082  1.00  0.00    -0.066 C  
HETATM    3  O   UNL     1      -5.904   8.234  66.703  1.00  0.00    -0.042 OA 
ENDROOT
BRANCH   2   4
HETATM    4  O   UNL     1      -6.805  10.345  66.619  1.00  0.00    -0.088 OA 
BRANCH   4   5
HETATM    5  C   UNL     1      -7.892  10.597  65.712  1.00  0.00    -0.141 C  
HETATM    6  C   UNL     1      -9.046  11.357  66.396  1.00  0.00    -0.201 C  
HETATM    7  C   UNL     1     -10.216  11.467  65.394  1.00  0.00    -0.270 C  
HETATM    8  C   UNL     1      -8.545  12.719  66.938  1.00  0.00    -0.140 C  
BRANCH   7   9
HETATM    9  O   UNL     1     -11.367  12.141  65.926  1.00  0.00    -0.330 OA 
BRANCH   9  10
HETATM   10  C   UNL     1     -12.262  12.641  65.034  1.00  0.00    -0.476 C  
HETATM   11  O   UNL     1     -13.111  13.482  65.284  1.00  0.00    -0.713 OA 
HETATM   12  C   UNL     1     -12.025  12.065  63.668  1.00  0.00    -0.612 C  
ENDBRANCH   9  10
ENDBRANCH   7   9
BRANCH   8  13
HETATM   13  C   UNL     1      -9.591  13.500  67.736  1.00  0.00    -0.219 C  
BRANCH  13  14
HETATM   14  N   UNL     1      -9.388  14.931  67.697  1.00  0.00    -0.190 NA 
HETATM   15  C   UNL     1      -8.800  15.694  68.667  1.00  0.00    -0.201 A  
HETATM   16  N   UNL     1      -8.843  16.978  68.367  1.00  0.00    -0.239 NA 
HETATM   17  C   UNL     1      -9.524  17.037  67.173  1.00  0.00    -0.242 A  
HETATM   18  C   UNL     1      -9.921  18.085  66.354  1.00  0.00    -0.362 A  
HETATM   19  N   UNL     1     -10.631  17.819  65.226  1.00  0.00    -0.575 NA 
HETATM   20  C   UNL     1     -10.936  16.541  64.938  1.00  0.00    -0.209 A  
HETATM   21  N   UNL     1     -10.571  15.453  65.632  1.00  0.00    -0.339 NA 
HETATM   22  N   UNL     1     -11.680  16.333  63.794  1.00  0.00    -1.488 NA 
HETATM   23  H2  UNL     1     -11.213  16.764  62.996  1.00  0.00     0.000 HD 
HETATM   24  H1  UNL     1     -11.912  15.364  63.575  1.00  0.00     0.000 HD 
HETATM   25  C   UNL     1      -9.878  15.773  66.738  1.00  0.00    -0.245 A  
ENDBRANCH  13  14
ENDBRANCH   8  13
ENDBRANCH   4   5
ENDBRANCH   2   4
TORSDOF 6
ENDMDL
MODEL       78
REMARK 921   NORMALIZED FREE ENERGY PREDICTED BY IDOCK:   -5.34 KCAL/MOL
REMARK 922        TOTAL FREE ENERGY PREDICTED BY IDOCK:   -8.22 KCAL/MOL
REMARK 923 INTER-LIGAND FREE ENERGY PREDICTED BY IDOCK:   -7.36 KCAL/MOL
REMARK 924 INTRA-LIGAND FREE ENERGY PREDICTED BY IDOCK:   -0.86 KCAL/MOL
REMARK 927      BINDING AFFINITY PREDICTED BY RF-SCORE:    0.00 PKD
ROOT
HETATM    1  C   UNL     1     -13.179   7.225  71.450  1.00  0.00    -0.404 C  
HETATM    2  C   UNL     1     -11.861   7.358  72.152  1.00  0.00    -0.286 C  
HETATM    3  O   UNL     1     -11.214   6.414  72.582  1.00  0.00    -0.255 OA 
ENDROOT
BRANCH   2   4
HETATM    4  O   UNL     1     -11.517   8.669  72.270  1.00  0.00    -0.365 OA 
BRANCH   4   5
HETATM    5  C   UNL     1     -10.208   9.012  71.784  1.00  0.00    -0.319 C  
HETATM    6  C   UNL     1     -10.198   9.217  70.255  1.00  0.00    -0.270 C  
HETATM    7  C   UNL     1      -8.739   9.449  69.806  1.00  0.00    -0.181 C  
HETATM    8  C   UNL     1     -11.172  10.356  69.861  1.00  0.00    -0.371 C  
BRANCH   7   9
HETATM    9  O   UNL     1      -8.597   9.634  68.389  1.00  0.00    -0.118 OA 
BRANCH   9  10
HETATM   10  C   UNL     1      -7.829   8.735  67.719  1.00  0.00    -0.102 C  
HETATM   11  O   UNL     1      -8.161   8.142  66.705  1.00  0.00    -0.100 OA 
HETATM   12  C   UNL     1      -6.476   8.615  68.358  1.00  0.00    -0.056 C  
ENDBRANCH   9  10
ENDBRANCH   7   9
BRANCH   8  13
HETATM   13  C   UNL     1     -11.320  10.561  68.353  1.00  0.00    -0.262 C  
BRANCH  13  14
HETATM   14  N   UNL     1     -11.556  11.939  67.984  1.00  0.00    -0.369 NA 
HETATM   15  C   UNL     1     -11.694  12.997  68.840  1.00  0.00    -0.328 A  
HETATM   16  N   UNL     1     -11.984  14.109  68.193  1.00  0.00    -0.352 NA 
HETATM   17  C   UNL     1     -12.075  13.735  66.873  1.00  0.00    -0.413 A  
HETATM   18  C   UNL     1     -12.376  14.423  65.707  1.00  0.00    -0.332 A  
HETATM   19  N   UNL     1     -12.423  13.751  64.526  1.00  0.00    -0.623 NA 
HETATM   20  C   UNL     1     -12.180  12.428  64.524  1.00  0.00    -0.431 A  
HETATM   21  N   UNL     1     -11.841  11.673  65.580  1.00  0.00    -0.195 NA 
HETATM   22  N   UNL     1     -12.267  11.792  63.302  1.00  0.00    -0.912 NA 
HETATM   23  H2  UNL     1     -11.656  12.255  62.629  1.00  0.00     0.000 HD 
HETATM   24  H1  UNL     1     -12.083  10.789  63.300  1.00  0.00     0.000 HD 
HETATM   25  C   UNL     1     -11.816  12.385  66.719  1.00  0.00    -0.315 A  
ENDBRANCH  13  14
ENDBRANCH   8  13
ENDBRANCH   4   5
ENDBRANCH   2   4
TORSDOF 6
ENDMDL
MODEL       79
REMARK 921   NORMALIZED FREE ENERGY PREDICTED BY IDOCK:   -5.34 KCAL/MOL
REMARK 922        TOTAL FREE ENERGY PREDICTED BY IDOCK:   -8.22 KCAL/MOL
REMARK 923 INTER-LIGAND FREE ENERGY PREDICTED BY IDOCK:   -7.35 KCAL/MOL
REMARK 924 INTRA-LIGAND FREE ENERGY PREDICTED BY IDOCK:   -0.87 KCAL/MOL
REMARK 927      BINDING AFFINITY PREDICTED BY RF-SCORE:    0.00 PKD
ROOT
HETATM    1  C   UNL     1      -8.394   9.130  68.013  1.00  0.00    -0.120 C  
HETATM    2  C   UNL     1      -9.440  10.104  68.466  1.00  0.00    -0.158 C  
HETATM    3  O   UNL     1     -10.616   9.818  68.638  1.00  0.00    -0.208 OA 
ENDROOT
BRANCH   2   4
HETATM    4  O   UNL     1      -8.899  11.343  68.619  1.00  0.00    -0.164 OA 
BRANCH   4   5
HETATM    5  C   UNL     1      -8.850  12.149  67.428  1.00  0.00    -0.181 C  
HETATM    6  C   UNL     1     -10.004  13.170  67.378  1.00  0.00    -0.229 C  
HETATM    7  C   UNL     1      -9.952  13.895  66.015  1.00  0.00    -0.310 C  
HETATM    8  C   UNL     1      -9.937  14.116  68.603  1.00  0.00    -0.222 C  
BRANCH   7   9
HETATM    9  O   UNL     1     -10.997  14.864  65.840  1.00  0.00    -0.324 OA 
BRANCH   9  10
HETATM   10  C   UNL     1     -10.663  16.038  65.243  1.00  0.00    -0.399 C  
HETATM   11  O   UNL     1     -11.269  16.557  64.319  1.00  0.00    -0.992 OA 
HETATM   12  C   UNL     1      -9.475  16.657  65.922  1.00  0.00    -0.218 C  
ENDBRANCH   9  10
ENDBRANCH   7   9
BRANCH   8  13
HETATM   13  C   UNL     1     -11.107  15.095  68.705  1.00  0.00    -0.271 C  
BRANCH  13  14
HETATM   14  N   UNL     1     -11.828  14.996  69.954  1.00  0.00    -0.303 NA 
HETATM   15  C   UNL     1     -12.046  16.008  70.848  1.00  0.00    -0.295 A  
HETATM   16  N   UNL     1     -12.665  15.575  71.929  1.00  0.00    -0.385 NA 
HETATM   17  C   UNL     1     -12.811  14.221  71.732  1.00  0.00    -0.348 A  
HETATM   18  C   UNL     1     -13.349  13.200  72.502  1.00  0.00    -0.421 A  
HETATM   19  N   UNL     1     -13.314  11.923  72.037  1.00  0.00    -0.441 NA 
HETATM   20  C   UNL     1     -12.749  11.684  70.840  1.00  0.00    -0.258 A  
HETATM   21  N   UNL     1     -12.237  12.595  69.999  1.00  0.00    -0.244 NA 
HETATM   22  N   UNL     1     -12.718  10.367  70.430  1.00  0.00    -0.499 NA 
HETATM   23  H2  UNL     1     -13.661   9.978  70.449  1.00  0.00     0.000 HD 
HETATM   24  H1  UNL     1     -12.289  10.185  69.522  1.00  0.00     0.000 HD 
HETATM   25  C   UNL     1     -12.292  13.837  70.510  1.00  0.00    -0.359 A  
ENDBRANCH  13  14
ENDBRANCH   8  13
ENDBRANCH   4   5
ENDBRANCH   2   4
TORSDOF 6
ENDMDL
MODEL       80
REMARK 921   NORMALIZED FREE ENERGY PREDICTED BY IDOCK:   -5.33 KCAL/MOL
REMARK 922        TOTAL FREE ENERGY PREDICTED BY IDOCK:   -8.21 KCAL/MOL
REMARK 923 INTER-LIGAND FREE ENERGY PREDICTED BY IDOCK:   -7.44 KCAL/MOL
REMARK 924 INTRA-LIGAND FREE ENERGY PREDICTED BY IDOCK:   -0.77 KCAL/MOL
REMARK 927      BINDING AFFINITY PREDICTED BY RF-SCORE:    0.00 PKD
ROOT
HETATM    1  C   UNL     1      -8.561   8.793  64.464  1.00  0.00    -0.125 C  
HETATM    2  C   UNL     1      -8.991   8.428  65.853  1.00  0.00    -0.178 C  
HETATM    3  O   UNL     1      -8.913   7.302  66.322  1.00  0.00    -0.153 OA 
ENDROOT
BRANCH   2   4
HETATM    4  O   UNL     1      -9.507   9.514  66.490  1.00  0.00    -0.159 OA 
BRANCH   4   5
HETATM    5  C   UNL     1     -10.299   9.229  67.656  1.00  0.00    -0.253 C  
HETATM    6  C   UNL     1     -10.678  10.513  68.421  1.00  0.00    -0.262 C  
HETATM    7  C   UNL     1     -11.410  10.107  69.719  1.00  0.00    -0.256 C  
HETATM    8  C   UNL     1     -11.491  11.463  67.506  1.00  0.00    -0.336 C  
BRANCH   7   9
HETATM    9  O   UNL     1     -11.797  11.224  70.534  1.00  0.00    -0.338 OA 
BRANCH   9  10
HETATM   10  C   UNL     1     -12.779  11.015  71.449  1.00  0.00    -0.429 C  
HETATM   11  O   UNL     1     -13.138   9.923  71.861  1.00  0.00    -0.404 OA 
HETATM   12  C   UNL     1     -13.328  12.322  71.944  1.00  0.00    -0.431 C  
ENDBRANCH   9  10
ENDBRANCH   7   9
BRANCH   8  13
HETATM   13  C   UNL     1     -11.817  12.817  68.138  1.00  0.00    -0.324 C  
BRANCH  13  14
HETATM   14  N   UNL     1     -10.822  13.829  67.867  1.00  0.00    -0.240 NA 
HETATM   15  C   UNL     1      -9.807  14.215  68.699  1.00  0.00    -0.206 A  
HETATM   16  N   UNL     1      -9.122  15.222  68.194  1.00  0.00    -0.173 NA 
HETATM   17  C   UNL     1      -9.752  15.517  67.008  1.00  0.00    -0.224 A  
HETATM   18  C   UNL     1      -9.540  16.479  66.031  1.00  0.00    -0.290 A  
HETATM   19  N   UNL     1     -10.378  16.541  64.962  1.00  0.00    -0.594 NA 
HETATM   20  C   UNL     1     -11.398  15.668  64.886  1.00  0.00    -0.315 A  
HETATM   21  N   UNL     1     -11.671  14.677  65.747  1.00  0.00    -0.335 NA 
HETATM   22  N   UNL     1     -12.231  15.795  63.792  1.00  0.00    -1.100 NA 
HETATM   23  H2  UNL     1     -11.681  15.757  62.934  1.00  0.00     0.000 HD 
HETATM   24  H1  UNL     1     -13.005  15.133  63.734  1.00  0.00     0.000 HD 
HETATM   25  C   UNL     1     -10.818  14.665  66.785  1.00  0.00    -0.312 A  
ENDBRANCH  13  14
ENDBRANCH   8  13
ENDBRANCH   4   5
ENDBRANCH   2   4
TORSDOF 6
ENDMDL
MODEL       81
REMARK 921   NORMALIZED FREE ENERGY PREDICTED BY IDOCK:   -5.32 KCAL/MOL
REMARK 922        TOTAL FREE ENERGY PREDICTED BY IDOCK:   -8.20 KCAL/MOL
REMARK 923 INTER-LIGAND FREE ENERGY PREDICTED BY IDOCK:   -7.38 KCAL/MOL
REMARK 924 INTRA-LIGAND FREE ENERGY PREDICTED BY IDOCK:   -0.81 KCAL/MOL
REMARK 927      BINDING AFFINITY PREDICTED BY RF-SCORE:    0.00 PKD
ROOT
HETATM    1  C   UNL     1     -12.479   7.446  71.098  1.00  0.00    -0.343 C  
HETATM    2  C   UNL     1     -11.218   7.023  70.408  1.00  0.00    -0.299 C  
HETATM    3  O   UNL     1     -11.057   5.933  69.878  1.00  0.00    -0.366 OA 
ENDROOT
BRANCH   2   4
HETATM    4  O   UNL     1     -10.279   8.005  70.491  1.00  0.00    -0.196 OA 
BRANCH   4   5
HETATM    5  C   UNL     1      -9.928   8.632  69.245  1.00  0.00    -0.195 C  
HETATM    6  C   UNL     1     -10.961   9.697  68.826  1.00  0.00    -0.153 C  
HETATM    7  C   UNL     1     -10.577  10.220  67.424  1.00  0.00    -0.270 C  
HETATM    8  C   UNL     1     -11.064  10.800  69.908  1.00  0.00    -0.339 C  
BRANCH   7   9
HETATM    9  O   UNL     1     -11.484  11.209  66.912  1.00  0.00    -0.414 OA 
BRANCH   9  10
HETATM   10  C   UNL     1     -10.951  12.216  66.172  1.00  0.00    -0.298 C  
HETATM   11  O   UNL     1      -9.941  12.132  65.491  1.00  0.00    -0.246 OA 
HETATM   12  C   UNL     1     -11.815  13.442  66.247  1.00  0.00    -0.438 C  
ENDBRANCH   9  10
ENDBRANCH   7   9
BRANCH   8  13
HETATM   13  C   UNL     1     -12.147  11.845  69.638  1.00  0.00    -0.239 C  
BRANCH  13  14
HETATM   14  N   UNL     1     -12.553  12.568  70.823  1.00  0.00    -0.267 NA 
HETATM   15  C   UNL     1     -13.370  12.105  71.817  1.00  0.00    -0.242 A  
HETATM   16  N   UNL     1     -13.616  13.036  72.716  1.00  0.00    -0.523 NA 
HETATM   17  C   UNL     1     -12.959  14.153  72.255  1.00  0.00    -0.382 A  
HETATM   18  C   UNL     1     -12.848  15.455  72.723  1.00  0.00    -0.427 A  
HETATM   19  N   UNL     1     -12.138  16.365  72.006  1.00  0.00    -0.397 NA 
HETATM   20  C   UNL     1     -11.566  15.977  70.852  1.00  0.00    -0.418 A  
HETATM   21  N   UNL     1     -11.574  14.743  70.328  1.00  0.00    -0.271 NA 
HETATM   22  N   UNL     1     -10.879  16.950  70.153  1.00  0.00    -0.285 NA 
HETATM   23  H2  UNL     1     -10.179  17.379  70.758  1.00  0.00     0.000 HD 
HETATM   24  H1  UNL     1     -10.445  16.656  69.278  1.00  0.00     0.000 HD 
HETATM   25  C   UNL     1     -12.293  13.886  71.073  1.00  0.00    -0.376 A  
ENDBRANCH  13  14
ENDBRANCH   8  13
ENDBRANCH   4   5
ENDBRANCH   2   4
TORSDOF 6
ENDMDL
MODEL       82
REMARK 921   NORMALIZED FREE ENERGY PREDICTED BY IDOCK:   -5.31 KCAL/MOL
REMARK 922        TOTAL FREE ENERGY PREDICTED BY IDOCK:   -8.19 KCAL/MOL
REMARK 923 INTER-LIGAND FREE ENERGY PREDICTED BY IDOCK:   -7.49 KCAL/MOL
REMARK 924 INTRA-LIGAND FREE ENERGY PREDICTED BY IDOCK:   -0.70 KCAL/MOL
REMARK 927      BINDING AFFINITY PREDICTED BY RF-SCORE:    0.00 PKD
ROOT
HETATM    1  C   UNL     1      -7.625  11.840  67.602  1.00  0.00    -0.132 C  
HETATM    2  C   UNL     1      -6.823  13.102  67.701  1.00  0.00    -0.158 C  
HETATM    3  O   UNL     1      -5.766  13.292  67.117  1.00  0.00    -0.323 OA 
ENDROOT
BRANCH   2   4
HETATM    4  O   UNL     1      -7.421  13.977  68.556  1.00  0.00    -0.111 OA 
BRANCH   4   5
HETATM    5  C   UNL     1      -7.563  15.321  68.065  1.00  0.00    -0.125 C  
HETATM    6  C   UNL     1      -9.044  15.716  67.891  1.00  0.00    -0.185 C  
HETATM    7  C   UNL     1      -9.100  17.116  67.241  1.00  0.00    -0.222 C  
HETATM    8  C   UNL     1      -9.789  15.616  69.246  1.00  0.00    -0.269 C  
BRANCH   7   9
HETATM    9  O   UNL     1     -10.436  17.587  67.007  1.00  0.00    -0.328 OA 
BRANCH   9  10
HETATM   10  C   UNL     1     -10.646  18.328  65.888  1.00  0.00    -0.254 C  
HETATM   11  O   UNL     1     -11.088  17.901  64.832  1.00  0.00    -0.782 OA 
HETATM   12  C   UNL     1     -10.324  19.773  66.141  1.00  0.00    -0.627 C  
ENDBRANCH   9  10
ENDBRANCH   7   9
BRANCH   8  13
HETATM   13  C   UNL     1     -11.292  15.878  69.156  1.00  0.00    -0.366 C  
BRANCH  13  14
HETATM   14  N   UNL     1     -12.049  15.232  70.205  1.00  0.00    -0.325 NA 
HETATM   15  C   UNL     1     -12.535  15.824  71.338  1.00  0.00    -0.455 A  
HETATM   16  N   UNL     1     -13.109  14.945  72.137  1.00  0.00    -0.321 NA 
HETATM   17  C   UNL     1     -12.945  13.735  71.504  1.00  0.00    -0.363 A  
HETATM   18  C   UNL     1     -13.294  12.433  71.833  1.00  0.00    -0.349 A  
HETATM   19  N   UNL     1     -12.955  11.418  70.996  1.00  0.00    -0.262 NA 
HETATM   20  C   UNL     1     -12.280  11.706  69.868  1.00  0.00    -0.239 A  
HETATM   21  N   UNL     1     -11.929  12.925  69.433  1.00  0.00    -0.295 NA 
HETATM   22  N   UNL     1     -11.940  10.633  69.069  1.00  0.00    -0.643 NA 
HETATM   23  H2  UNL     1     -12.775  10.094  68.842  1.00  0.00     0.000 HD 
HETATM   24  H1  UNL     1     -11.428  10.851  68.214  1.00  0.00     0.000 HD 
HETATM   25  C   UNL     1     -12.283  13.889  70.300  1.00  0.00    -0.358 A  
ENDBRANCH  13  14
ENDBRANCH   8  13
ENDBRANCH   4   5
ENDBRANCH   2   4
TORSDOF 6
ENDMDL
MODEL       83
REMARK 921   NORMALIZED FREE ENERGY PREDICTED BY IDOCK:   -5.30 KCAL/MOL
REMARK 922        TOTAL FREE ENERGY PREDICTED BY IDOCK:   -8.17 KCAL/MOL
REMARK 923 INTER-LIGAND FREE ENERGY PREDICTED BY IDOCK:   -7.59 KCAL/MOL
REMARK 924 INTRA-LIGAND FREE ENERGY PREDICTED BY IDOCK:   -0.57 KCAL/MOL
REMARK 927      BINDING AFFINITY PREDICTED BY RF-SCORE:    0.00 PKD
ROOT
HETATM    1  C   UNL     1     -10.594  19.350  66.862  1.00  0.00    -0.581 C  
HETATM    2  C   UNL     1      -9.722  18.381  67.601  1.00  0.00    -0.293 C  
HETATM    3  O   UNL     1      -8.576  18.620  67.955  1.00  0.00    -0.274 OA 
ENDROOT
BRANCH   2   4
HETATM    4  O   UNL     1     -10.373  17.200  67.784  1.00  0.00    -0.319 OA 
BRANCH   4   5
HETATM    5  C   UNL     1     -10.750  16.904  69.140  1.00  0.00    -0.298 C  
HETATM    6  C   UNL     1     -11.731  15.717  69.218  1.00  0.00    -0.388 C  
HETATM    7  C   UNL     1     -12.182  15.555  70.686  1.00  0.00    -0.402 C  
HETATM    8  C   UNL     1     -11.086  14.447  68.609  1.00  0.00    -0.269 C  
BRANCH   7   9
HETATM    9  O   UNL     1     -13.121  14.487  70.884  1.00  0.00    -0.355 OA 
BRANCH   9  10
HETATM   10  C   UNL     1     -13.648  14.346  72.129  1.00  0.00    -0.435 C  
HETATM   11  O   UNL     1     -14.105  13.310  72.587  1.00  0.00    -0.744 OA 
HETATM   12  C   UNL     1     -13.532  15.628  72.901  1.00  0.00    -0.657 C  
ENDBRANCH   9  10
ENDBRANCH   7   9
BRANCH   8  13
HETATM   13  C   UNL     1     -12.023  13.241  68.536  1.00  0.00    -0.304 C  
BRANCH  13  14
HETATM   14  N   UNL     1     -11.428  12.023  69.039  1.00  0.00    -0.276 NA 
HETATM   15  C   UNL     1     -11.864  11.286  70.105  1.00  0.00    -0.364 A  
HETATM   16  N   UNL     1     -11.055  10.277  70.361  1.00  0.00    -0.310 NA 
HETATM   17  C   UNL     1     -10.038  10.400  69.444  1.00  0.00    -0.229 A  
HETATM   18  C   UNL     1      -8.876   9.679  69.207  1.00  0.00    -0.164 A  
HETATM   19  N   UNL     1      -8.029  10.080  68.223  1.00  0.00    -0.096 NA 
HETATM   20  C   UNL     1      -8.340  11.176  67.507  1.00  0.00    -0.122 A  
HETATM   21  N   UNL     1      -9.449  11.921  67.622  1.00  0.00    -0.178 NA 
HETATM   22  N   UNL     1      -7.430  11.552  66.539  1.00  0.00    -0.327 NA 
HETATM   23  H2  UNL     1      -7.253  10.769  65.910  1.00  0.00     0.000 HD 
HETATM   24  H1  UNL     1      -7.665  12.383  65.996  1.00  0.00     0.000 HD 
HETATM   25  C   UNL     1     -10.246  11.485  68.612  1.00  0.00    -0.208 A  
ENDBRANCH  13  14
ENDBRANCH   8  13
ENDBRANCH   4   5
ENDBRANCH   2   4
TORSDOF 6
ENDMDL
MODEL       84
REMARK 921   NORMALIZED FREE ENERGY PREDICTED BY IDOCK:   -5.29 KCAL/MOL
REMARK 922        TOTAL FREE ENERGY PREDICTED BY IDOCK:   -8.16 KCAL/MOL
REMARK 923 INTER-LIGAND FREE ENERGY PREDICTED BY IDOCK:   -7.33 KCAL/MOL
REMARK 924 INTRA-LIGAND FREE ENERGY PREDICTED BY IDOCK:   -0.83 KCAL/MOL
REMARK 927      BINDING AFFINITY PREDICTED BY RF-SCORE:    0.00 PKD
ROOT
HETATM    1  C   UNL     1     -11.930  16.107  72.607  1.00  0.00    -0.653 C  
HETATM    2  C   UNL     1     -13.383  15.765  72.469  1.00  0.00    -0.495 C  
HETATM    3  O   UNL     1     -14.254  16.147  73.237  1.00  0.00    -0.305 OA 
ENDROOT
BRANCH   2   4
HETATM    4  O   UNL     1     -13.578  14.949  71.398  1.00  0.00    -0.383 OA 
BRANCH   4   5
HETATM    5  C   UNL     1     -12.949  13.658  71.480  1.00  0.00    -0.360 C  
HETATM    6  C   UNL     1     -12.514  13.142  70.094  1.00  0.00    -0.192 C  
HETATM    7  C   UNL     1     -11.973  11.705  70.260  1.00  0.00    -0.358 C  
HETATM    8  C   UNL     1     -11.509  14.127  69.446  1.00  0.00    -0.337 C  
BRANCH   7   9
HETATM    9  O   UNL     1     -11.552  11.104  69.025  1.00  0.00    -0.267 OA 
BRANCH   9  10
HETATM   10  C   UNL     1     -11.010   9.860  69.093  1.00  0.00    -0.200 C  
HETATM   11  O   UNL     1     -11.093   9.106  70.049  1.00  0.00    -0.235 OA 
HETATM   12  C   UNL     1     -10.342   9.502  67.796  1.00  0.00    -0.291 C  
ENDBRANCH   9  10
ENDBRANCH   7   9
BRANCH   8  13
HETATM   13  C   UNL     1     -11.103  13.761  68.018  1.00  0.00    -0.261 C  
BRANCH  13  14
HETATM   14  N   UNL     1      -9.787  14.237  67.658  1.00  0.00    -0.222 NA 
HETATM   15  C   UNL     1      -8.596  13.628  67.946  1.00  0.00    -0.181 A  
HETATM   16  N   UNL     1      -7.571  14.358  67.553  1.00  0.00    -0.183 NA 
HETATM   17  C   UNL     1      -8.132  15.500  67.028  1.00  0.00    -0.237 A  
HETATM   18  C   UNL     1      -7.599  16.657  66.481  1.00  0.00    -0.292 A  
HETATM   19  N   UNL     1      -8.433  17.649  66.071  1.00  0.00    -0.528 NA 
HETATM   20  C   UNL     1      -9.760  17.481  66.217  1.00  0.00    -0.258 A  
HETATM   21  N   UNL     1     -10.383  16.392  66.692  1.00  0.00    -0.290 NA 
HETATM   22  N   UNL     1     -10.558  18.530  65.808  1.00  0.00    -0.584 NA 
HETATM   23  H2  UNL     1     -10.345  18.768  64.839  1.00  0.00     0.000 HD 
HETATM   24  H1  UNL     1     -11.564  18.403  65.918  1.00  0.00     0.000 HD 
HETATM   25  C   UNL     1      -9.512  15.448  67.087  1.00  0.00    -0.213 A  
ENDBRANCH  13  14
ENDBRANCH   8  13
ENDBRANCH   4   5
ENDBRANCH   2   4
TORSDOF 6
ENDMDL
MODEL       85
REMARK 921   NORMALIZED FREE ENERGY PREDICTED BY IDOCK:   -5.27 KCAL/MOL
REMARK 922        TOTAL FREE ENERGY PREDICTED BY IDOCK:   -8.13 KCAL/MOL
REMARK 923 INTER-LIGAND FREE ENERGY PREDICTED BY IDOCK:   -7.29 KCAL/MOL
REMARK 924 INTRA-LIGAND FREE ENERGY PREDICTED BY IDOCK:   -0.84 KCAL/MOL
REMARK 927      BINDING AFFINITY PREDICTED BY RF-SCORE:    0.00 PKD
ROOT
HETATM    1  C   UNL     1     -11.069  12.065  63.693  1.00  0.00    -0.525 C  
HETATM    2  C   UNL     1     -12.543  12.169  63.945  1.00  0.00    -0.438 C  
HETATM    3  O   UNL     1     -13.402  11.882  63.124  1.00  0.00    -0.470 OA 
ENDROOT
BRANCH   2   4
HETATM    4  O   UNL     1     -12.778  12.659  65.193  1.00  0.00    -0.646 OA 
BRANCH   4   5
HETATM    5  C   UNL     1     -12.054  13.854  65.534  1.00  0.00    -0.407 C  
HETATM    6  C   UNL     1     -11.923  14.030  67.061  1.00  0.00    -0.472 C  
HETATM    7  C   UNL     1     -11.254  15.394  67.337  1.00  0.00    -0.287 C  
HETATM    8  C   UNL     1     -11.175  12.821  67.677  1.00  0.00    -0.323 C  
BRANCH   7   9
HETATM    9  O   UNL     1     -11.095  15.684  68.734  1.00  0.00    -0.269 OA 
BRANCH   9  10
HETATM   10  C   UNL     1     -10.110  16.553  69.081  1.00  0.00    -0.287 C  
HETATM   11  O   UNL     1     -10.268  17.742  69.309  1.00  0.00    -0.312 OA 
HETATM   12  C   UNL     1      -8.796  15.839  69.214  1.00  0.00    -0.262 C  
ENDBRANCH   9  10
ENDBRANCH   7   9
BRANCH   8  13
HETATM   13  C   UNL     1     -11.094  12.846  69.204  1.00  0.00    -0.190 C  
BRANCH  13  14
HETATM   14  N   UNL     1     -11.528  11.612  69.820  1.00  0.00    -0.282 NA 
HETATM   15  C   UNL     1     -12.624  11.445  70.620  1.00  0.00    -0.271 A  
HETATM   16  N   UNL     1     -12.697  10.216  71.093  1.00  0.00    -0.365 NA 
HETATM   17  C   UNL     1     -11.576   9.584  70.605  1.00  0.00    -0.283 A  
HETATM   18  C   UNL     1     -11.062   8.305  70.758  1.00  0.00    -0.258 A  
HETATM   19  N   UNL     1      -9.884   7.982  70.162  1.00  0.00    -0.184 NA 
HETATM   20  C   UNL     1      -9.243   8.921  69.442  1.00  0.00    -0.146 A  
HETATM   21  N   UNL     1      -9.666  10.170  69.196  1.00  0.00    -0.204 NA 
HETATM   22  N   UNL     1      -8.039   8.546  68.881  1.00  0.00    -0.117 NA 
HETATM   23  H2  UNL     1      -8.169   7.707  68.315  1.00  0.00     0.000 HD 
HETATM   24  H1  UNL     1      -7.553   9.258  68.336  1.00  0.00     0.000 HD 
HETATM   25  C   UNL     1     -10.830  10.437  69.812  1.00  0.00    -0.292 A  
ENDBRANCH  13  14
ENDBRANCH   8  13
ENDBRANCH   4   5
ENDBRANCH   2   4
TORSDOF 6
ENDMDL
MODEL       86
REMARK 921   NORMALIZED FREE ENERGY PREDICTED BY IDOCK:   -5.26 KCAL/MOL
REMARK 922        TOTAL FREE ENERGY PREDICTED BY IDOCK:   -8.12 KCAL/MOL
REMARK 923 INTER-LIGAND FREE ENERGY PREDICTED BY IDOCK:   -7.27 KCAL/MOL
REMARK 924 INTRA-LIGAND FREE ENERGY PREDICTED BY IDOCK:   -0.85 KCAL/MOL
REMARK 927      BINDING AFFINITY PREDICTED BY RF-SCORE:    0.00 PKD
ROOT
HETATM    1  C   UNL     1      -7.526   9.029  67.056  1.00  0.00    -0.087 C  
HETATM    2  C   UNL     1      -7.046  10.440  67.215  1.00  0.00    -0.088 C  
HETATM    3  O   UNL     1      -6.156  10.942  66.544  1.00  0.00    -0.095 OA 
ENDROOT
BRANCH   2   4
HETATM    4  O   UNL     1      -7.716  11.057  68.226  1.00  0.00    -0.102 OA 
BRANCH   4   5
HETATM    5  C   UNL     1      -8.778  10.293  68.822  1.00  0.00    -0.144 C  
HETATM    6  C   UNL     1     -10.076  11.116  68.951  1.00  0.00    -0.199 C  
HETATM    7  C   UNL     1     -11.115  10.267  69.716  1.00  0.00    -0.287 C  
HETATM    8  C   UNL     1     -10.550  11.592  67.555  1.00  0.00    -0.245 C  
BRANCH   7   9
HETATM    9  O   UNL     1     -12.368  10.939  69.918  1.00  0.00    -0.326 OA 
BRANCH   9  10
HETATM   10  C   UNL     1     -12.817  11.045  71.197  1.00  0.00    -0.392 C  
HETATM   11  O   UNL     1     -13.135  12.086  71.748  1.00  0.00    -0.445 OA 
HETATM   12  C   UNL     1     -12.936   9.688  71.830  1.00  0.00    -0.514 C  
ENDBRANCH   9  10
ENDBRANCH   7   9
BRANCH   8  13
HETATM   13  C   UNL     1     -11.770  12.514  67.587  1.00  0.00    -0.361 C  
BRANCH  13  14
HETATM   14  N   UNL     1     -11.955  13.260  66.362  1.00  0.00    -0.403 NA 
HETATM   15  C   UNL     1     -12.478  12.783  65.192  1.00  0.00    -0.501 A  
HETATM   16  N   UNL     1     -12.434  13.690  64.236  1.00  0.00    -0.655 NA 
HETATM   17  C   UNL     1     -11.819  14.778  64.811  1.00  0.00    -0.423 A  
HETATM   18  C   UNL     1     -11.454  16.028  64.333  1.00  0.00    -0.242 A  
HETATM   19  N   UNL     1     -10.812  16.898  65.157  1.00  0.00    -0.597 NA 
HETATM   20  C   UNL     1     -10.541  16.515  66.418  1.00  0.00    -0.221 A  
HETATM   21  N   UNL     1     -10.881  15.353  66.995  1.00  0.00    -0.319 NA 
HETATM   22  N   UNL     1      -9.864  17.428  67.202  1.00  0.00    -0.269 NA 
HETATM   23  H2  UNL     1     -10.368  18.314  67.212  1.00  0.00     0.000 HD 
HETATM   24  H1  UNL     1      -9.658  17.138  68.158  1.00  0.00     0.000 HD 
HETATM   25  C   UNL     1     -11.507  14.531  66.135  1.00  0.00    -0.357 A  
ENDBRANCH  13  14
ENDBRANCH   8  13
ENDBRANCH   4   5
ENDBRANCH   2   4
TORSDOF 6
ENDMDL
MODEL       87
REMARK 921   NORMALIZED FREE ENERGY PREDICTED BY IDOCK:   -5.20 KCAL/MOL
REMARK 922        TOTAL FREE ENERGY PREDICTED BY IDOCK:   -8.04 KCAL/MOL
REMARK 923 INTER-LIGAND FREE ENERGY PREDICTED BY IDOCK:   -7.36 KCAL/MOL
REMARK 924 INTRA-LIGAND FREE ENERGY PREDICTED BY IDOCK:   -0.68 KCAL/MOL
REMARK 927      BINDING AFFINITY PREDICTED BY RF-SCORE:    0.00 PKD
ROOT
HETATM    1  C   UNL     1     -10.530  14.683  65.428  1.00  0.00    -0.400 C  
HETATM    2  C   UNL     1     -11.825  13.928  65.452  1.00  0.00    -0.355 C  
HETATM    3  O   UNL     1     -12.836  14.281  64.862  1.00  0.00    -0.680 OA 
ENDROOT
BRANCH   2   4
HETATM    4  O   UNL     1     -11.718  12.828  66.246  1.00  0.00    -0.360 OA 
BRANCH   4   5
HETATM    5  C   UNL     1     -11.715  13.084  67.661  1.00  0.00    -0.366 C  
HETATM    6  C   UNL     1     -11.812  11.782  68.481  1.00  0.00    -0.365 C  
HETATM    7  C   UNL     1     -11.935  12.156  69.974  1.00  0.00    -0.315 C  
HETATM    8  C   UNL     1     -10.616  10.852  68.156  1.00  0.00    -0.233 C  
BRANCH   7   9
HETATM    9  O   UNL     1     -12.055  11.019  70.843  1.00  0.00    -0.342 OA 
BRANCH   9  10
HETATM   10  C   UNL     1     -13.050  11.047  71.769  1.00  0.00    -0.449 C  
HETATM   11  O   UNL     1     -13.523  10.069  72.325  1.00  0.00    -0.417 OA 
HETATM   12  C   UNL     1     -13.451  12.462  72.072  1.00  0.00    -0.460 C  
ENDBRANCH   9  10
ENDBRANCH   7   9
BRANCH   8  13
HETATM   13  C   UNL     1     -10.683   9.484  68.835  1.00  0.00    -0.195 C  
BRANCH  13  14
HETATM   14  N   UNL     1      -9.709   9.322  69.891  1.00  0.00    -0.188 NA 
HETATM   15  C   UNL     1      -8.434   9.817  69.903  1.00  0.00    -0.201 A  
HETATM   16  N   UNL     1      -7.771   9.423  70.973  1.00  0.00    -0.323 NA 
HETATM   17  C   UNL     1      -8.648   8.609  71.651  1.00  0.00    -0.189 A  
HETATM   18  C   UNL     1      -8.551   7.870  72.821  1.00  0.00    -0.170 A  
HETATM   19  N   UNL     1      -9.608   7.116  73.225  1.00  0.00    -0.176 NA 
HETATM   20  C   UNL     1     -10.721   7.102  72.470  1.00  0.00    -0.250 A  
HETATM   21  N   UNL     1     -10.938   7.806  71.349  1.00  0.00    -0.233 NA 
HETATM   22  N   UNL     1     -11.752   6.299  72.915  1.00  0.00    -0.492 NA 
HETATM   23  H2  UNL     1     -11.990   6.545  73.876  1.00  0.00     0.000 HD 
HETATM   24  H1  UNL     1     -12.596   6.289  72.343  1.00  0.00     0.000 HD 
HETATM   25  C   UNL     1      -9.862   8.527  70.992  1.00  0.00    -0.195 A  
ENDBRANCH  13  14
ENDBRANCH   8  13
ENDBRANCH   4   5
ENDBRANCH   2   4
TORSDOF 6
ENDMDL
MODEL       88
REMARK 921   NORMALIZED FREE ENERGY PREDICTED BY IDOCK:   -5.20 KCAL/MOL
REMARK 922        TOTAL FREE ENERGY PREDICTED BY IDOCK:   -8.04 KCAL/MOL
REMARK 923 INTER-LIGAND FREE ENERGY PREDICTED BY IDOCK:   -7.22 KCAL/MOL
REMARK 924 INTRA-LIGAND FREE ENERGY PREDICTED BY IDOCK:   -0.82 KCAL/MOL
REMARK 927      BINDING AFFINITY PREDICTED BY RF-SCORE:    0.00 PKD
ROOT
HETATM    1  C   UNL     1     -10.782   6.138  69.419  1.00  0.00    -0.385 C  
HETATM    2  C   UNL     1     -10.879   7.056  68.238  1.00  0.00    -0.141 C  
HETATM    3  O   UNL     1     -11.156   6.690  67.105  1.00  0.00    -0.392 OA 
ENDROOT
BRANCH   2   4
HETATM    4  O   UNL     1     -10.582   8.332  68.604  1.00  0.00    -0.192 OA 
BRANCH   4   5
HETATM    5  C   UNL     1      -9.828   9.092  67.644  1.00  0.00    -0.172 C  
HETATM    6  C   UNL     1     -10.619  10.311  67.127  1.00  0.00    -0.320 C  
HETATM    7  C   UNL     1      -9.792  10.988  66.011  1.00  0.00    -0.229 C  
HETATM    8  C   UNL     1     -10.986  11.250  68.303  1.00  0.00    -0.275 C  
BRANCH   7   9
HETATM    9  O   UNL     1     -10.439  12.132  65.431  1.00  0.00    -0.254 OA 
BRANCH   9  10
HETATM   10  C   UNL     1     -11.031  11.964  64.220  1.00  0.00    -0.353 C  
HETATM   11  O   UNL     1     -12.188  12.250  63.956  1.00  0.00    -0.426 OA 
HETATM   12  C   UNL     1     -10.046  11.435  63.218  1.00  0.00    -0.424 C  
ENDBRANCH   9  10
ENDBRANCH   7   9
BRANCH   8  13
HETATM   13  C   UNL     1     -11.871  12.433  67.908  1.00  0.00    -0.308 C  
BRANCH  13  14
HETATM   14  N   UNL     1     -11.430  13.690  68.469  1.00  0.00    -0.288 NA 
HETATM   15  C   UNL     1     -10.514  14.546  67.923  1.00  0.00    -0.242 A  
HETATM   16  N   UNL     1     -10.266  15.565  68.721  1.00  0.00    -0.206 NA 
HETATM   17  C   UNL     1     -11.027  15.327  69.842  1.00  0.00    -0.290 A  
HETATM   18  C   UNL     1     -11.189  16.002  71.044  1.00  0.00    -0.302 A  
HETATM   19  N   UNL     1     -12.008  15.482  71.997  1.00  0.00    -0.387 NA 
HETATM   20  C   UNL     1     -12.635  14.319  71.748  1.00  0.00    -0.337 A  
HETATM   21  N   UNL     1     -12.584  13.607  70.612  1.00  0.00    -0.319 NA 
HETATM   22  N   UNL     1     -13.433  13.826  72.760  1.00  0.00    -0.666 NA 
HETATM   23  H2  UNL     1     -14.115  14.532  73.037  1.00  0.00     0.000 HD 
HETATM   24  H1  UNL     1     -13.909  12.943  72.572  1.00  0.00     0.000 HD 
HETATM   25  C   UNL     1     -11.757  14.161  69.709  1.00  0.00    -0.311 A  
ENDBRANCH  13  14
ENDBRANCH   8  13
ENDBRANCH   4   5
ENDBRANCH   2   4
TORSDOF 6
ENDMDL
MODEL       89
REMARK 921   NORMALIZED FREE ENERGY PREDICTED BY IDOCK:   -5.19 KCAL/MOL
REMARK 922        TOTAL FREE ENERGY PREDICTED BY IDOCK:   -8.02 KCAL/MOL
REMARK 923 INTER-LIGAND FREE ENERGY PREDICTED BY IDOCK:   -7.13 KCAL/MOL
REMARK 924 INTRA-LIGAND FREE ENERGY PREDICTED BY IDOCK:   -0.88 KCAL/MOL
REMARK 927      BINDING AFFINITY PREDICTED BY RF-SCORE:    0.00 PKD
ROOT
HETATM    1  C   UNL     1     -12.637  11.973  63.393  1.00  0.00    -0.592 C  
HETATM    2  C   UNL     1     -12.273  13.257  64.075  1.00  0.00    -0.410 C  
HETATM    3  O   UNL     1     -12.464  14.366  63.597  1.00  0.00    -0.805 OA 
ENDROOT
BRANCH   2   4
HETATM    4  O   UNL     1     -11.674  13.006  65.271  1.00  0.00    -0.323 OA 
BRANCH   4   5
HETATM    5  C   UNL     1     -11.078  11.704  65.403  1.00  0.00    -0.239 C  
HETATM    6  C   UNL     1     -10.426  11.508  66.787  1.00  0.00    -0.275 C  
HETATM    7  C   UNL     1      -9.701  10.144  66.794  1.00  0.00    -0.187 C  
HETATM    8  C   UNL     1     -11.485  11.670  67.906  1.00  0.00    -0.381 C  
BRANCH   7   9
HETATM    9  O   UNL     1      -9.033   9.856  68.031  1.00  0.00    -0.122 OA 
BRANCH   9  10
HETATM   10  C   UNL     1      -7.684  10.018  68.061  1.00  0.00    -0.089 C  
HETATM   11  O   UNL     1      -6.897   9.526  67.269  1.00  0.00    -0.081 OA 
HETATM   12  C   UNL     1      -7.288  10.949  69.171  1.00  0.00    -0.126 C  
ENDBRANCH   9  10
ENDBRANCH   7   9
BRANCH   8  13
HETATM   13  C   UNL     1     -10.914  11.606  69.324  1.00  0.00    -0.192 C  
BRANCH  13  14
HETATM   14  N   UNL     1     -11.910  11.308  70.328  1.00  0.00    -0.341 NA 
HETATM   15  C   UNL     1     -12.608  12.216  71.075  1.00  0.00    -0.263 A  
HETATM   16  N   UNL     1     -13.380  11.622  71.964  1.00  0.00    -0.429 NA 
HETATM   17  C   UNL     1     -13.134  10.279  71.802  1.00  0.00    -0.465 A  
HETATM   18  C   UNL     1     -13.603   9.141  72.443  1.00  0.00    -0.483 A  
HETATM   19  N   UNL     1     -13.132   7.922  72.070  1.00  0.00    -0.270 NA 
HETATM   20  C   UNL     1     -12.214   7.854  71.089  1.00  0.00    -0.255 A  
HETATM   21  N   UNL     1     -11.723   8.879  70.378  1.00  0.00    -0.115 NA 
HETATM   22  N   UNL     1     -11.753   6.593  70.770  1.00  0.00    -0.374 NA 
HETATM   23  H2  UNL     1     -12.540   5.984  70.547  1.00  0.00     0.000 HD 
HETATM   24  H1  UNL     1     -11.056   6.541  70.026  1.00  0.00     0.000 HD 
HETATM   25  C   UNL     1     -12.217  10.059  70.791  1.00  0.00    -0.315 A  
ENDBRANCH  13  14
ENDBRANCH   8  13
ENDBRANCH   4   5
ENDBRANCH   2   4
TORSDOF 6
ENDMDL
MODEL       90
REMARK 921   NORMALIZED FREE ENERGY PREDICTED BY IDOCK:   -5.15 KCAL/MOL
REMARK 922        TOTAL FREE ENERGY PREDICTED BY IDOCK:   -7.97 KCAL/MOL
REMARK 923 INTER-LIGAND FREE ENERGY PREDICTED BY IDOCK:   -7.14 KCAL/MOL
REMARK 924 INTRA-LIGAND FREE ENERGY PREDICTED BY IDOCK:   -0.83 KCAL/MOL
REMARK 927      BINDING AFFINITY PREDICTED BY RF-SCORE:    0.00 PKD
ROOT
HETATM    1  C   UNL     1     -12.537  12.080  63.600  1.00  0.00    -0.605 C  
HETATM    2  C   UNL     1     -12.479  12.889  64.861  1.00  0.00    -0.478 C  
HETATM    3  O   UNL     1     -12.953  14.009  64.981  1.00  0.00    -0.728 OA 
ENDROOT
BRANCH   2   4
HETATM    4  O   UNL     1     -11.796  12.214  65.825  1.00  0.00    -0.469 OA 
BRANCH   4   5
HETATM    5  C   UNL     1     -10.853  11.238  65.349  1.00  0.00    -0.188 C  
HETATM    6  C   UNL     1      -9.922  10.741  66.473  1.00  0.00    -0.260 C  
HETATM    7  C   UNL     1      -8.866   9.803  65.850  1.00  0.00    -0.150 C  
HETATM    8  C   UNL     1     -10.752  10.096  67.611  1.00  0.00    -0.339 C  
BRANCH   7   9
HETATM    9  O   UNL     1      -7.920   9.290  66.801  1.00  0.00    -0.106 OA 
BRANCH   9  10
HETATM   10  C   UNL     1      -7.646   7.960  66.749  1.00  0.00    -0.098 C  
HETATM   11  O   UNL     1      -6.594   7.443  67.092  1.00  0.00    -0.057 OA 
HETATM   12  C   UNL     1      -8.844   7.191  66.271  1.00  0.00    -0.166 C  
ENDBRANCH   9  10
ENDBRANCH   7   9
BRANCH   8  13
HETATM   13  C   UNL     1      -9.926   9.674  68.827  1.00  0.00    -0.173 C  
BRANCH  13  14
HETATM   14  N   UNL     1     -10.635   8.784  69.719  1.00  0.00    -0.223 NA 
HETATM   15  C   UNL     1     -10.590   7.417  69.708  1.00  0.00    -0.236 A  
HETATM   16  N   UNL     1     -11.416   6.897  70.594  1.00  0.00    -0.316 NA 
HETATM   17  C   UNL     1     -12.045   7.978  71.166  1.00  0.00    -0.265 A  
HETATM   18  C   UNL     1     -13.032   8.104  72.133  1.00  0.00    -0.261 A  
HETATM   19  N   UNL     1     -13.483   9.341  72.470  1.00  0.00    -0.453 NA 
HETATM   20  C   UNL     1     -12.962  10.413  71.848  1.00  0.00    -0.450 A  
HETATM   21  N   UNL     1     -11.982  10.411  70.933  1.00  0.00    -0.348 NA 
HETATM   22  N   UNL     1     -13.477  11.641  72.211  1.00  0.00    -0.536 NA 
HETATM   23  H2  UNL     1     -13.403  11.760  73.222  1.00  0.00     0.000 HD 
HETATM   24  H1  UNL     1     -13.082  12.455  71.739  1.00  0.00     0.000 HD 
HETATM   25  C   UNL     1     -11.577   9.165  70.632  1.00  0.00    -0.235 A  
ENDBRANCH  13  14
ENDBRANCH   8  13
ENDBRANCH   4   5
ENDBRANCH   2   4
TORSDOF 6
ENDMDL
MODEL       91
REMARK 921   NORMALIZED FREE ENERGY PREDICTED BY IDOCK:   -5.15 KCAL/MOL
REMARK 922        TOTAL FREE ENERGY PREDICTED BY IDOCK:   -7.97 KCAL/MOL
REMARK 923 INTER-LIGAND FREE ENERGY PREDICTED BY IDOCK:   -7.16 KCAL/MOL
REMARK 924 INTRA-LIGAND FREE ENERGY PREDICTED BY IDOCK:   -0.80 KCAL/MOL
REMARK 927      BINDING AFFINITY PREDICTED BY RF-SCORE:    0.00 PKD
ROOT
HETATM    1  C   UNL     1     -11.050  12.264  63.371  1.00  0.00    -0.487 C  
HETATM    2  C   UNL     1      -9.944  11.280  63.605  1.00  0.00    -0.359 C  
HETATM    3  O   UNL     1      -9.465  10.566  62.735  1.00  0.00    -0.291 OA 
ENDROOT
BRANCH   2   4
HETATM    4  O   UNL     1      -9.584  11.274  64.917  1.00  0.00    -0.228 OA 
BRANCH   4   5
HETATM    5  C   UNL     1      -9.951  10.095  65.655  1.00  0.00    -0.279 C  
HETATM    6  C   UNL     1     -10.329  10.425  67.113  1.00  0.00    -0.290 C  
HETATM    7  C   UNL     1     -10.578   9.097  67.861  1.00  0.00    -0.214 C  
HETATM    8  C   UNL     1     -11.526  11.407  67.148  1.00  0.00    -0.268 C  
BRANCH   7   9
HETATM    9  O   UNL     1     -10.920   9.273  69.245  1.00  0.00    -0.191 OA 
BRANCH   9  10
HETATM   10  C   UNL     1     -10.083   8.728  70.166  1.00  0.00    -0.187 C  
HETATM   11  O   UNL     1      -9.049   8.130  69.912  1.00  0.00    -0.149 OA 
HETATM   12  C   UNL     1     -10.568   9.017  71.558  1.00  0.00    -0.415 C  
ENDBRANCH   9  10
ENDBRANCH   7   9
BRANCH   8  13
HETATM   13  C   UNL     1     -11.905  11.885  68.550  1.00  0.00    -0.297 C  
BRANCH  13  14
HETATM   14  N   UNL     1     -11.526  13.256  68.809  1.00  0.00    -0.283 NA 
HETATM   15  C   UNL     1     -10.664  14.014  68.066  1.00  0.00    -0.246 A  
HETATM   16  N   UNL     1     -10.463  15.197  68.613  1.00  0.00    -0.228 NA 
HETATM   17  C   UNL     1     -11.197  15.176  69.776  1.00  0.00    -0.279 A  
HETATM   18  C   UNL     1     -11.383  16.092  70.801  1.00  0.00    -0.398 A  
HETATM   19  N   UNL     1     -12.162  15.757  71.864  1.00  0.00    -0.415 NA 
HETATM   20  C   UNL     1     -12.728  14.537  71.893  1.00  0.00    -0.338 A  
HETATM   21  N   UNL     1     -12.651  13.594  70.943  1.00  0.00    -0.353 NA 
HETATM   22  N   UNL     1     -13.488  14.242  73.007  1.00  0.00    -0.635 NA 
HETATM   23  H2  UNL     1     -14.203  14.957  73.136  1.00  0.00     0.000 HD 
HETATM   24  H1  UNL     1     -13.917  13.317  73.030  1.00  0.00     0.000 HD 
HETATM   25  C   UNL     1     -11.865  13.974  69.921  1.00  0.00    -0.329 A  
ENDBRANCH  13  14
ENDBRANCH   8  13
ENDBRANCH   4   5
ENDBRANCH   2   4
TORSDOF 6
ENDMDL
MODEL       92
REMARK 921   NORMALIZED FREE ENERGY PREDICTED BY IDOCK:   -5.13 KCAL/MOL
REMARK 922        TOTAL FREE ENERGY PREDICTED BY IDOCK:   -7.94 KCAL/MOL
REMARK 923 INTER-LIGAND FREE ENERGY PREDICTED BY IDOCK:   -7.02 KCAL/MOL
REMARK 924 INTRA-LIGAND FREE ENERGY PREDICTED BY IDOCK:   -0.92 KCAL/MOL
REMARK 927      BINDING AFFINITY PREDICTED BY RF-SCORE:    0.00 PKD
ROOT
HETATM    1  C   UNL     1      -8.241  11.978  68.213  1.00  0.00    -0.161 C  
HETATM    2  C   UNL     1      -8.260  13.242  67.408  1.00  0.00    -0.183 C  
HETATM    3  O   UNL     1      -7.337  14.043  67.366  1.00  0.00    -0.177 OA 
ENDROOT
BRANCH   2   4
HETATM    4  O   UNL     1      -9.453  13.379  66.769  1.00  0.00    -0.247 OA 
BRANCH   4   5
HETATM    5  C   UNL     1     -10.611  13.425  67.621  1.00  0.00    -0.243 C  
HETATM    6  C   UNL     1     -10.666  14.727  68.446  1.00  0.00    -0.243 C  
HETATM    7  C   UNL     1     -11.859  14.632  69.423  1.00  0.00    -0.329 C  
HETATM    8  C   UNL     1     -10.712  15.957  67.505  1.00  0.00    -0.318 C  
BRANCH   7   9
HETATM    9  O   UNL     1     -12.003  15.785  70.267  1.00  0.00    -0.357 OA 
BRANCH   9  10
HETATM   10  C   UNL     1     -12.152  15.565  71.599  1.00  0.00    -0.401 C  
HETATM   11  O   UNL     1     -11.710  16.279  72.485  1.00  0.00    -0.501 OA 
HETATM   12  C   UNL     1     -12.998  14.349  71.843  1.00  0.00    -0.426 C  
ENDBRANCH   9  10
ENDBRANCH   7   9
BRANCH   8  13
HETATM   13  C   UNL     1     -10.653  17.302  68.229  1.00  0.00    -0.383 C  
BRANCH  13  14
HETATM   14  N   UNL     1     -10.022  18.343  67.450  1.00  0.00    -0.320 NA 
HETATM   15  C   UNL     1     -10.624  19.468  66.957  1.00  0.00    -0.492 A  
HETATM   16  N   UNL     1      -9.796  20.177  66.216  1.00  0.00    -0.441 NA 
HETATM   17  C   UNL     1      -8.627  19.452  66.202  1.00  0.00    -0.284 A  
HETATM   18  C   UNL     1      -7.398  19.639  65.587  1.00  0.00    -0.251 A  
HETATM   19  N   UNL     1      -6.425  18.702  65.739  1.00  0.00    -0.238 NA 
HETATM   20  C   UNL     1      -6.686  17.611  66.482  1.00  0.00    -0.233 A  
HETATM   21  N   UNL     1      -7.818  17.349  67.152  1.00  0.00    -0.196 NA 
HETATM   22  N   UNL     1      -5.670  16.681  66.581  1.00  0.00    -0.336 NA 
HETATM   23  H2  UNL     1      -4.821  17.133  66.920  1.00  0.00     0.000 HD 
HETATM   24  H1  UNL     1      -5.868  15.853  67.143  1.00  0.00     0.000 HD 
HETATM   25  C   UNL     1      -8.746  18.302  66.961  1.00  0.00    -0.263 A  
ENDBRANCH  13  14
ENDBRANCH   8  13
ENDBRANCH   4   5
ENDBRANCH   2   4
TORSDOF 6
ENDMDL
MODEL       93
REMARK 921   NORMALIZED FREE ENERGY PREDICTED BY IDOCK:   -5.11 KCAL/MOL
REMARK 922        TOTAL FREE ENERGY PREDICTED BY IDOCK:   -7.91 KCAL/MOL
REMARK 923 INTER-LIGAND FREE ENERGY PREDICTED BY IDOCK:   -7.26 KCAL/MOL
REMARK 924 INTRA-LIGAND FREE ENERGY PREDICTED BY IDOCK:   -0.65 KCAL/MOL
REMARK 927      BINDING AFFINITY PREDICTED BY RF-SCORE:    0.00 PKD
ROOT
HETATM    1  C   UNL     1      -6.647  17.322  68.971  1.00  0.00    -0.230 C  
HETATM    2  C   UNL     1      -7.094  16.625  67.722  1.00  0.00    -0.135 C  
HETATM    3  O   UNL     1      -6.374  15.911  67.039  1.00  0.00    -0.309 OA 
ENDROOT
BRANCH   2   4
HETATM    4  O   UNL     1      -8.391  16.930  67.447  1.00  0.00    -0.181 OA 
BRANCH   4   5
HETATM    5  C   UNL     1      -8.932  16.325  66.260  1.00  0.00    -0.331 C  
HETATM    6  C   UNL     1      -9.659  15.001  66.569  1.00  0.00    -0.299 C  
HETATM    7  C   UNL     1     -10.088  14.359  65.232  1.00  0.00    -0.356 C  
HETATM    8  C   UNL     1     -10.826  15.248  67.558  1.00  0.00    -0.304 C  
BRANCH   7   9
HETATM    9  O   UNL     1     -10.762  13.100  65.390  1.00  0.00    -0.283 OA 
BRANCH   9  10
HETATM   10  C   UNL     1     -10.880  12.316  64.286  1.00  0.00    -0.348 C  
HETATM   11  O   UNL     1     -11.351  12.671  63.217  1.00  0.00    -0.460 OA 
HETATM   12  C   UNL     1     -10.286  10.960  64.534  1.00  0.00    -0.417 C  
ENDBRANCH   9  10
ENDBRANCH   7   9
BRANCH   8  13
HETATM   13  C   UNL     1     -11.539  13.976  68.017  1.00  0.00    -0.337 C  
BRANCH  13  14
HETATM   14  N   UNL     1     -12.162  14.106  69.315  1.00  0.00    -0.317 NA 
HETATM   15  C   UNL     1     -12.386  15.271  69.995  1.00  0.00    -0.328 A  
HETATM   16  N   UNL     1     -12.895  15.045  71.190  1.00  0.00    -0.342 NA 
HETATM   17  C   UNL     1     -12.961  13.675  71.291  1.00  0.00    -0.322 A  
HETATM   18  C   UNL     1     -13.372  12.813  72.298  1.00  0.00    -0.458 A  
HETATM   19  N   UNL     1     -13.282  11.471  72.106  1.00  0.00    -0.404 NA 
HETATM   20  C   UNL     1     -12.788  11.014  70.942  1.00  0.00    -0.301 A  
HETATM   21  N   UNL     1     -12.401  11.751  69.890  1.00  0.00    -0.183 NA 
HETATM   22  N   UNL     1     -12.696   9.642  70.812  1.00  0.00    -0.519 NA 
HETATM   23  H2  UNL     1     -13.606   9.218  70.990  1.00  0.00     0.000 HD 
HETATM   24  H1  UNL     1     -12.321   9.296  69.930  1.00  0.00     0.000 HD 
HETATM   25  C   UNL     1     -12.505  13.068  70.136  1.00  0.00    -0.096 A  
ENDBRANCH  13  14
ENDBRANCH   8  13
ENDBRANCH   4   5
ENDBRANCH   2   4
TORSDOF 6
ENDMDL
MODEL       94
REMARK 921   NORMALIZED FREE ENERGY PREDICTED BY IDOCK:   -5.11 KCAL/MOL
REMARK 922        TOTAL FREE ENERGY PREDICTED BY IDOCK:   -7.90 KCAL/MOL
REMARK 923 INTER-LIGAND FREE ENERGY PREDICTED BY IDOCK:   -7.55 KCAL/MOL
REMARK 924 INTRA-LIGAND FREE ENERGY PREDICTED BY IDOCK:   -0.36 KCAL/MOL
REMARK 927      BINDING AFFINITY PREDICTED BY RF-SCORE:    0.00 PKD
ROOT
HETATM    1  C   UNL     1      -6.622   8.402  66.620  1.00  0.00    -0.056 C  
HETATM    2  C   UNL     1      -7.545   8.799  65.508  1.00  0.00    -0.087 C  
HETATM    3  O   UNL     1      -7.237   8.796  64.325  1.00  0.00    -0.088 OA 
ENDROOT
BRANCH   2   4
HETATM    4  O   UNL     1      -8.748   9.193  66.008  1.00  0.00    -0.138 OA 
BRANCH   4   5
HETATM    5  C   UNL     1      -9.095   8.643  67.291  1.00  0.00    -0.133 C  
HETATM    6  C   UNL     1      -9.843   9.664  68.171  1.00  0.00    -0.172 C  
HETATM    7  C   UNL     1     -10.058   9.037  69.566  1.00  0.00    -0.197 C  
HETATM    8  C   UNL     1     -11.149  10.119  67.473  1.00  0.00    -0.251 C  
BRANCH   7   9
HETATM    9  O   UNL     1     -10.731   9.907  70.489  1.00  0.00    -0.288 OA 
BRANCH   9  10
HETATM   10  C   UNL     1     -11.499   9.322  71.447  1.00  0.00    -0.369 C  
HETATM   11  O   UNL     1     -11.249   8.264  72.001  1.00  0.00    -0.278 OA 
HETATM   12  C   UNL     1     -12.674  10.193  71.786  1.00  0.00    -0.534 C  
ENDBRANCH   9  10
ENDBRANCH   7   9
BRANCH   8  13
HETATM   13  C   UNL     1     -11.907  11.220  68.216  1.00  0.00    -0.229 C  
BRANCH  13  14
HETATM   14  N   UNL     1     -11.827  12.508  67.566  1.00  0.00    -0.450 NA 
HETATM   15  C   UNL     1     -11.762  13.727  68.184  1.00  0.00    -0.357 A  
HETATM   16  N   UNL     1     -11.783  14.715  67.311  1.00  0.00    -0.392 NA 
HETATM   17  C   UNL     1     -11.908  14.100  66.087  1.00  0.00    -0.407 A  
HETATM   18  C   UNL     1     -12.014  14.577  64.788  1.00  0.00    -0.442 A  
HETATM   19  N   UNL     1     -12.165  13.698  63.763  1.00  0.00    -0.654 NA 
HETATM   20  C   UNL     1     -12.215  12.382  64.040  1.00  0.00    -0.490 A  
HETATM   21  N   UNL     1     -12.082  11.811  65.246  1.00  0.00    -0.208 NA 
HETATM   22  N   UNL     1     -12.395  11.537  62.963  1.00  0.00    -0.935 NA 
HETATM   23  H2  UNL     1     -11.676  11.715  62.262  1.00  0.00     0.000 HD 
HETATM   24  H1  UNL     1     -12.433  10.540  63.173  1.00  0.00     0.000 HD 
HETATM   25  C   UNL     1     -11.942  12.725  66.222  1.00  0.00    -0.395 A  
ENDBRANCH  13  14
ENDBRANCH   8  13
ENDBRANCH   4   5
ENDBRANCH   2   4
TORSDOF 6
ENDMDL
MODEL       95
REMARK 921   NORMALIZED FREE ENERGY PREDICTED BY IDOCK:   -5.09 KCAL/MOL
REMARK 922        TOTAL FREE ENERGY PREDICTED BY IDOCK:   -7.89 KCAL/MOL
REMARK 923 INTER-LIGAND FREE ENERGY PREDICTED BY IDOCK:   -6.74 KCAL/MOL
REMARK 924 INTRA-LIGAND FREE ENERGY PREDICTED BY IDOCK:   -1.15 KCAL/MOL
REMARK 927      BINDING AFFINITY PREDICTED BY RF-SCORE:    0.00 PKD
ROOT
HETATM    1  C   UNL     1     -10.507  15.864  69.826  1.00  0.00    -0.311 C  
HETATM    2  C   UNL     1     -11.740  15.069  70.132  1.00  0.00    -0.299 C  
HETATM    3  O   UNL     1     -12.870  15.535  70.152  1.00  0.00    -0.299 OA 
ENDROOT
BRANCH   2   4
HETATM    4  O   UNL     1     -11.414  13.778  70.416  1.00  0.00    -0.133 OA 
BRANCH   4   5
HETATM    5  C   UNL     1     -11.928  12.794  69.502  1.00  0.00    -0.276 C  
HETATM    6  C   UNL     1     -11.156  12.790  68.168  1.00  0.00    -0.288 C  
HETATM    7  C   UNL     1     -11.854  11.804  67.206  1.00  0.00    -0.108 C  
HETATM    8  C   UNL     1      -9.658  12.481  68.416  1.00  0.00    -0.176 C  
BRANCH   7   9
HETATM    9  O   UNL     1     -11.234  11.727  65.912  1.00  0.00    -0.324 OA 
BRANCH   9  10
HETATM   10  C   UNL     1     -11.893  12.302  64.872  1.00  0.00    -0.358 C  
HETATM   11  O   UNL     1     -13.071  12.624  64.876  1.00  0.00    -0.850 OA 
HETATM   12  C   UNL     1     -10.956  12.555  63.727  1.00  0.00    -0.496 C  
ENDBRANCH   9  10
ENDBRANCH   7   9
BRANCH   8  13
HETATM   13  C   UNL     1      -8.784  12.566  67.164  1.00  0.00    -0.200 C  
BRANCH  13  14
HETATM   14  N   UNL     1      -7.960  13.753  67.122  1.00  0.00    -0.106 NA 
HETATM   15  C   UNL     1      -6.713  13.896  67.664  1.00  0.00    -0.175 A  
HETATM   16  N   UNL     1      -6.263  15.128  67.528  1.00  0.00    -0.312 NA 
HETATM   17  C   UNL     1      -7.285  15.809  66.908  1.00  0.00    -0.093 A  
HETATM   18  C   UNL     1      -7.448  17.130  66.516  1.00  0.00    -0.283 A  
HETATM   19  N   UNL     1      -8.619  17.517  65.943  1.00  0.00    -0.533 NA 
HETATM   20  C   UNL     1      -9.593  16.605  65.779  1.00  0.00    -0.116 A  
HETATM   21  N   UNL     1      -9.529  15.300  66.082  1.00  0.00    -0.306 NA 
HETATM   22  N   UNL     1     -10.768  17.060  65.216  1.00  0.00    -0.617 NA 
HETATM   23  H2  UNL     1     -10.570  17.516  64.326  1.00  0.00     0.000 HD 
HETATM   24  H1  UNL     1     -11.508  16.368  65.092  1.00  0.00     0.000 HD 
HETATM   25  C   UNL     1      -8.355  14.973  66.650  1.00  0.00    -0.080 A  
ENDBRANCH  13  14
ENDBRANCH   8  13
ENDBRANCH   4   5
ENDBRANCH   2   4
TORSDOF 6
ENDMDL
MODEL       96
REMARK 921   NORMALIZED FREE ENERGY PREDICTED BY IDOCK:   -5.08 KCAL/MOL
REMARK 922        TOTAL FREE ENERGY PREDICTED BY IDOCK:   -7.86 KCAL/MOL
REMARK 923 INTER-LIGAND FREE ENERGY PREDICTED BY IDOCK:   -7.08 KCAL/MOL
REMARK 924 INTRA-LIGAND FREE ENERGY PREDICTED BY IDOCK:   -0.79 KCAL/MOL
REMARK 927      BINDING AFFINITY PREDICTED BY RF-SCORE:    0.00 PKD
ROOT
HETATM    1  C   UNL     1     -10.494  19.361  66.311  1.00  0.00    -0.586 C  
HETATM    2  C   UNL     1      -9.030  19.336  66.633  1.00  0.00    -0.338 C  
HETATM    3  O   UNL     1      -8.513  19.994  67.524  1.00  0.00    -0.321 OA 
ENDROOT
BRANCH   2   4
HETATM    4  O   UNL     1      -8.370  18.512  65.775  1.00  0.00    -0.471 OA 
BRANCH   4   5
HETATM    5  C   UNL     1      -7.455  17.586  66.387  1.00  0.00    -0.299 C  
HETATM    6  C   UNL     1      -8.194  16.472  67.157  1.00  0.00    -0.207 C  
HETATM    7  C   UNL     1      -7.143  15.607  67.886  1.00  0.00    -0.138 C  
HETATM    8  C   UNL     1      -9.116  15.678  66.198  1.00  0.00    -0.378 C  
BRANCH   7   9
HETATM    9  O   UNL     1      -7.715  14.541  68.661  1.00  0.00    -0.124 OA 
BRANCH   9  10
HETATM   10  C   UNL     1      -7.218  13.292  68.461  1.00  0.00    -0.110 C  
HETATM   11  O   UNL     1      -7.888  12.276  68.358  1.00  0.00    -0.143 OA 
HETATM   12  C   UNL     1      -5.725  13.334  68.314  1.00  0.00    -0.095 C  
ENDBRANCH   9  10
ENDBRANCH   7   9
BRANCH   8  13
HETATM   13  C   UNL     1      -9.980  14.623  66.890  1.00  0.00    -0.253 C  
BRANCH  13  14
HETATM   14  N   UNL     1     -11.084  14.165  66.076  1.00  0.00    -0.310 NA 
HETATM   15  C   UNL     1     -12.411  14.415  66.292  1.00  0.00    -0.301 A  
HETATM   16  N   UNL     1     -13.172  13.786  65.419  1.00  0.00    -0.662 NA 
HETATM   17  C   UNL     1     -12.294  13.071  64.638  1.00  0.00    -0.422 A  
HETATM   18  C   UNL     1     -12.461  12.196  63.574  1.00  0.00    -0.555 A  
HETATM   19  N   UNL     1     -11.371  11.605  63.018  1.00  0.00    -0.042 NA 
HETATM   20  C   UNL     1     -10.155  11.881  63.522  1.00  0.00    -0.441 A  
HETATM   21  N   UNL     1      -9.875  12.738  64.516  1.00  0.00    -0.105 NA 
HETATM   22  N   UNL     1      -9.087  11.233  62.935  1.00  0.00    -0.465 NA 
HETATM   23  H2  UNL     1      -9.090  11.404  61.930  1.00  0.00     0.000 HD 
HETATM   24  H1  UNL     1      -8.165  11.442  63.318  1.00  0.00     0.000 HD 
HETATM   25  C   UNL     1     -10.986  13.289  65.032  1.00  0.00    -0.313 A  
ENDBRANCH  13  14
ENDBRANCH   8  13
ENDBRANCH   4   5
ENDBRANCH   2   4
TORSDOF 6
ENDMDL
MODEL       97
REMARK 921   NORMALIZED FREE ENERGY PREDICTED BY IDOCK:   -5.08 KCAL/MOL
REMARK 922        TOTAL FREE ENERGY PREDICTED BY IDOCK:   -7.86 KCAL/MOL
REMARK 923 INTER-LIGAND FREE ENERGY PREDICTED BY IDOCK:   -7.06 KCAL/MOL
REMARK 924 INTRA-LIGAND FREE ENERGY PREDICTED BY IDOCK:   -0.81 KCAL/MOL
REMARK 927      BINDING AFFINITY PREDICTED BY RF-SCORE:    0.00 PKD
ROOT
HETATM    1  C   UNL     1     -10.360  18.634  66.138  1.00  0.00    -0.481 C  
HETATM    2  C   UNL     1      -9.401  17.504  66.365  1.00  0.00    -0.246 C  
HETATM    3  O   UNL     1      -8.314  17.405  65.815  1.00  0.00    -0.538 OA 
ENDROOT
BRANCH   2   4
HETATM    4  O   UNL     1      -9.930  16.602  67.236  1.00  0.00    -0.258 OA 
BRANCH   4   5
HETATM    5  C   UNL     1     -11.139  15.956  66.800  1.00  0.00    -0.064 C  
HETATM    6  C   UNL     1     -10.956  14.432  66.653  1.00  0.00    -0.318 C  
HETATM    7  C   UNL     1     -12.254  13.843  66.059  1.00  0.00    -0.462 C  
HETATM    8  C   UNL     1     -10.539  13.809  68.009  1.00  0.00    -0.258 C  
BRANCH   7   9
HETATM    9  O   UNL     1     -12.199  12.423  65.854  1.00  0.00    -0.629 OA 
BRANCH   9  10
HETATM   10  C   UNL     1     -11.604  11.982  64.715  1.00  0.00    -0.281 C  
HETATM   11  O   UNL     1     -10.708  11.154  64.662  1.00  0.00    -0.325 OA 
HETATM   12  C   UNL     1     -12.244  12.606  63.508  1.00  0.00    -0.638 C  
ENDBRANCH   9  10
ENDBRANCH   7   9
BRANCH   8  13
HETATM   13  C   UNL     1     -10.222  12.314  67.941  1.00  0.00    -0.200 C  
BRANCH  13  14
HETATM   14  N   UNL     1     -10.790  11.559  69.035  1.00  0.00    -0.214 NA 
HETATM   15  C   UNL     1     -11.893  11.899  69.770  1.00  0.00    -0.340 A  
HETATM   16  N   UNL     1     -12.104  11.044  70.751  1.00  0.00    -0.359 NA 
HETATM   17  C   UNL     1     -11.067  10.144  70.662  1.00  0.00    -0.322 A  
HETATM   18  C   UNL     1     -10.703   9.034  71.412  1.00  0.00    -0.331 A  
HETATM   19  N   UNL     1      -9.574   8.350  71.087  1.00  0.00    -0.166 NA 
HETATM   20  C   UNL     1      -8.835   8.775  70.047  1.00  0.00    -0.146 A  
HETATM   21  N   UNL     1      -9.112   9.805  69.233  1.00  0.00    -0.172 NA 
HETATM   22  N   UNL     1      -7.686   8.058  69.780  1.00  0.00    -0.099 NA 
HETATM   23  H2  UNL     1      -7.916   7.072  69.658  1.00  0.00     0.000 HD 
HETATM   24  H1  UNL     1      -7.125   8.380  68.991  1.00  0.00     0.000 HD 
HETATM   25  C   UNL     1     -10.233  10.448  69.602  1.00  0.00    -0.209 A  
ENDBRANCH  13  14
ENDBRANCH   8  13
ENDBRANCH   4   5
ENDBRANCH   2   4
TORSDOF 6
ENDMDL
MODEL       98
REMARK 921   NORMALIZED FREE ENERGY PREDICTED BY IDOCK:   -5.07 KCAL/MOL
REMARK 922        TOTAL FREE ENERGY PREDICTED BY IDOCK:   -7.85 KCAL/MOL
REMARK 923 INTER-LIGAND FREE ENERGY PREDICTED BY IDOCK:   -7.17 KCAL/MOL
REMARK 924 INTRA-LIGAND FREE ENERGY PREDICTED BY IDOCK:   -0.69 KCAL/MOL
REMARK 927      BINDING AFFINITY PREDICTED BY RF-SCORE:    0.00 PKD
ROOT
HETATM    1  C   UNL     1      -9.379   7.571  73.504  1.00  0.00    -0.316 C  
HETATM    2  C   UNL     1     -10.469   6.728  72.914  1.00  0.00    -0.234 C  
HETATM    3  O   UNL     1     -11.034   5.822  73.509  1.00  0.00    -0.262 OA 
ENDROOT
BRANCH   2   4
HETATM    4  O   UNL     1     -10.706   7.093  71.625  1.00  0.00    -0.213 OA 
BRANCH   4   5
HETATM    5  C   UNL     1      -9.745   7.997  71.051  1.00  0.00    -0.160 C  
HETATM    6  C   UNL     1     -10.417   9.059  70.158  1.00  0.00    -0.240 C  
HETATM    7  C   UNL     1      -9.309   9.897  69.483  1.00  0.00    -0.220 C  
HETATM    8  C   UNL     1     -11.429   9.892  70.984  1.00  0.00    -0.466 C  
BRANCH   7   9
HETATM    9  O   UNL     1      -9.814  10.914  68.603  1.00  0.00    -0.176 OA 
BRANCH   9  10
HETATM   10  C   UNL     1     -10.363  10.503  67.430  1.00  0.00    -0.224 C  
HETATM   11  O   UNL     1     -11.421  10.902  66.969  1.00  0.00    -0.392 OA 
HETATM   12  C   UNL     1      -9.455   9.532  66.732  1.00  0.00    -0.217 C  
ENDBRANCH   9  10
ENDBRANCH   7   9
BRANCH   8  13
HETATM   13  C   UNL     1     -12.232  10.899  70.160  1.00  0.00    -0.343 C  
BRANCH  13  14
HETATM   14  N   UNL     1     -12.650  12.056  70.921  1.00  0.00    -0.311 NA 
HETATM   15  C   UNL     1     -13.400  12.049  72.064  1.00  0.00    -0.341 A  
HETATM   16  N   UNL     1     -13.682  13.273  72.467  1.00  0.00    -0.695 NA 
HETATM   17  C   UNL     1     -13.120  14.094  71.517  1.00  0.00    -0.353 A  
HETATM   18  C   UNL     1     -13.086  15.471  71.348  1.00  0.00    -0.507 A  
HETATM   19  N   UNL     1     -12.466  15.996  70.259  1.00  0.00    -0.211 NA 
HETATM   20  C   UNL     1     -11.904  15.160  69.367  1.00  0.00    -0.330 A  
HETATM   21  N   UNL     1     -11.842  13.823  69.450  1.00  0.00    -0.320 NA 
HETATM   22  N   UNL     1     -11.311  15.747  68.268  1.00  0.00    -0.358 NA 
HETATM   23  H2  UNL     1     -10.623  16.435  68.574  1.00  0.00     0.000 HD 
HETATM   24  H1  UNL     1     -10.886  15.113  67.591  1.00  0.00     0.000 HD 
HETATM   25  C   UNL     1     -12.476  13.357  70.540  1.00  0.00    -0.279 A  
ENDBRANCH  13  14
ENDBRANCH   8  13
ENDBRANCH   4   5
ENDBRANCH   2   4
TORSDOF 6
ENDMDL
MODEL       99
REMARK 921   NORMALIZED FREE ENERGY PREDICTED BY IDOCK:   -5.05 KCAL/MOL
REMARK 922        TOTAL FREE ENERGY PREDICTED BY IDOCK:   -7.83 KCAL/MOL
REMARK 923 INTER-LIGAND FREE ENERGY PREDICTED BY IDOCK:   -7.72 KCAL/MOL
REMARK 924 INTRA-LIGAND FREE ENERGY PREDICTED BY IDOCK:   -0.11 KCAL/MOL
REMARK 927      BINDING AFFINITY PREDICTED BY RF-SCORE:    0.00 PKD
ROOT
HETATM    1  C   UNL     1     -10.158  20.299  66.532  1.00  0.00    -0.518 C  
HETATM    2  C   UNL     1      -8.998  19.361  66.384  1.00  0.00    -0.363 C  
HETATM    3  O   UNL     1      -7.917  19.676  65.909  1.00  0.00    -0.338 OA 
ENDROOT
BRANCH   2   4
HETATM    4  O   UNL     1      -9.336  18.117  66.819  1.00  0.00    -0.269 OA 
BRANCH   4   5
HETATM    5  C   UNL     1     -10.398  17.474  66.092  1.00  0.00    -0.329 C  
HETATM    6  C   UNL     1     -10.048  16.016  65.732  1.00  0.00    -0.393 C  
HETATM    7  C   UNL     1     -11.179  15.451  64.846  1.00  0.00    -0.403 C  
HETATM    8  C   UNL     1      -9.780  15.196  67.019  1.00  0.00    -0.237 C  
BRANCH   7   9
HETATM    9  O   UNL     1     -10.956  14.096  64.425  1.00  0.00    -0.347 OA 
BRANCH   9  10
HETATM   10  C   UNL     1     -12.043  13.378  64.040  1.00  0.00    -0.449 C  
HETATM   11  O   UNL     1     -12.532  13.385  62.921  1.00  0.00    -0.563 OA 
HETATM   12  C   UNL     1     -12.531  12.511  65.165  1.00  0.00    -0.451 C  
ENDBRANCH   9  10
ENDBRANCH   7   9
BRANCH   8  13
HETATM   13  C   UNL     1      -9.313  13.763  66.762  1.00  0.00    -0.266 C  
BRANCH  13  14
HETATM   14  N   UNL     1      -9.889  12.801  67.676  1.00  0.00    -0.209 NA 
HETATM   15  C   UNL     1      -9.715  11.445  67.644  1.00  0.00    -0.172 A  
HETATM   16  N   UNL     1     -10.443  10.841  68.563  1.00  0.00    -0.176 NA 
HETATM   17  C   UNL     1     -11.141  11.853  69.180  1.00  0.00    -0.228 A  
HETATM   18  C   UNL     1     -12.085  11.876  70.196  1.00  0.00    -0.302 A  
HETATM   19  N   UNL     1     -12.634  13.062  70.572  1.00  0.00    -0.204 NA 
HETATM   20  C   UNL     1     -12.249  14.184  69.939  1.00  0.00    -0.359 A  
HETATM   21  N   UNL     1     -11.320  14.283  68.976  1.00  0.00    -0.256 NA 
HETATM   22  N   UNL     1     -12.858  15.355  70.344  1.00  0.00    -0.631 NA 
HETATM   23  H2  UNL     1     -12.745  15.471  71.351  1.00  0.00     0.000 HD 
HETATM   24  H1  UNL     1     -12.566  16.206  69.864  1.00  0.00     0.000 HD 
HETATM   25  C   UNL     1     -10.815  13.084  68.640  1.00  0.00    -0.259 A  
ENDBRANCH  13  14
ENDBRANCH   8  13
ENDBRANCH   4   5
ENDBRANCH   2   4
TORSDOF 6
ENDMDL
MODEL      100
REMARK 921   NORMALIZED FREE ENERGY PREDICTED BY IDOCK:   -5.04 KCAL/MOL
REMARK 922        TOTAL FREE ENERGY PREDICTED BY IDOCK:   -7.81 KCAL/MOL
REMARK 923 INTER-LIGAND FREE ENERGY PREDICTED BY IDOCK:   -6.98 KCAL/MOL
REMARK 924 INTRA-LIGAND FREE ENERGY PREDICTED BY IDOCK:   -0.83 KCAL/MOL
REMARK 927      BINDING AFFINITY PREDICTED BY RF-SCORE:    0.00 PKD
ROOT
HETATM    1  C   UNL     1     -13.693  15.337  71.876  1.00  0.00    -0.601 C  
HETATM    2  C   UNL     1     -12.209  15.205  72.033  1.00  0.00    -0.364 C  
HETATM    3  O   UNL     1     -11.621  15.287  73.101  1.00  0.00    -0.402 OA 
ENDROOT
BRANCH   2   4
HETATM    4  O   UNL     1     -11.619  15.018  70.820  1.00  0.00    -0.283 OA 
BRANCH   4   5
HETATM    5  C   UNL     1     -11.486  16.198  70.008  1.00  0.00    -0.288 C  
HETATM    6  C   UNL     1     -10.915  15.874  68.613  1.00  0.00    -0.320 C  
HETATM    7  C   UNL     1     -10.684  17.204  67.863  1.00  0.00    -0.355 C  
HETATM    8  C   UNL     1     -11.843  14.880  67.871  1.00  0.00    -0.286 C  
BRANCH   7   9
HETATM    9  O   UNL     1     -10.129  17.033  66.549  1.00  0.00    -0.289 OA 
BRANCH   9  10
HETATM   10  C   UNL     1     -10.732  17.699  65.529  1.00  0.00    -0.037 C  
HETATM   11  O   UNL     1     -11.149  17.187  64.502  1.00  0.00    -1.105 OA 
HETATM   12  C   UNL     1     -10.880  19.156  65.863  1.00  0.00    -0.316 C  
ENDBRANCH   9  10
ENDBRANCH   7   9
BRANCH   8  13
HETATM   13  C   UNL     1     -11.304  14.408  66.520  1.00  0.00    -0.350 C  
BRANCH  13  14
HETATM   14  N   UNL     1     -10.574  13.162  66.600  1.00  0.00    -0.277 NA 
HETATM   15  C   UNL     1     -11.097  11.905  66.472  1.00  0.00    -0.306 A  
HETATM   16  N   UNL     1     -10.184  10.976  66.681  1.00  0.00    -0.226 NA 
HETATM   17  C   UNL     1      -9.040  11.672  66.994  1.00  0.00    -0.179 A  
HETATM   18  C   UNL     1      -7.754  11.283  67.341  1.00  0.00    -0.128 A  
HETATM   19  N   UNL     1      -6.826  12.231  67.636  1.00  0.00    -0.109 NA 
HETATM   20  C   UNL     1      -7.185  13.526  67.590  1.00  0.00    -0.168 A  
HETATM   21  N   UNL     1      -8.381  14.015  67.229  1.00  0.00    -0.200 NA 
HETATM   22  N   UNL     1      -6.209  14.444  67.924  1.00  0.00    -0.151 NA 
HETATM   23  H2  UNL     1      -5.383  14.295  67.345  1.00  0.00     0.000 HD 
HETATM   24  H1  UNL     1      -6.481  15.426  67.890  1.00  0.00     0.000 HD 
HETATM   25  C   UNL     1      -9.260  13.036  66.955  1.00  0.00    -0.236 A  
ENDBRANCH  13  14
ENDBRANCH   8  13
ENDBRANCH   4   5
ENDBRANCH   2   4
TORSDOF 6
ENDMDL
MODEL      101
REMARK 921   NORMALIZED FREE ENERGY PREDICTED BY IDOCK:   -5.02 KCAL/MOL
REMARK 922        TOTAL FREE ENERGY PREDICTED BY IDOCK:   -7.79 KCAL/MOL
REMARK 923 INTER-LIGAND FREE ENERGY PREDICTED BY IDOCK:   -6.92 KCAL/MOL
REMARK 924 INTRA-LIGAND FREE ENERGY PREDICTED BY IDOCK:   -0.87 KCAL/MOL
REMARK 927      BINDING AFFINITY PREDICTED BY RF-SCORE:    0.00 PKD
ROOT
HETATM    1  C   UNL     1      -9.753   9.442  71.401  1.00  0.00    -0.126 C  
HETATM    2  C   UNL     1     -10.723   9.499  70.260  1.00  0.00    -0.265 C  
HETATM    3  O   UNL     1     -11.405   8.554  69.891  1.00  0.00    -0.114 OA 
ENDROOT
BRANCH   2   4
HETATM    4  O   UNL     1     -10.704  10.731  69.682  1.00  0.00    -0.240 OA 
BRANCH   4   5
HETATM    5  C   UNL     1     -11.350  10.823  68.400  1.00  0.00    -0.302 C  
HETATM    6  C   UNL     1     -10.914  12.085  67.627  1.00  0.00    -0.287 C  
HETATM    7  C   UNL     1     -11.749  12.172  66.331  1.00  0.00    -0.324 C  
HETATM    8  C   UNL     1      -9.382  12.070  67.396  1.00  0.00    -0.178 C  
BRANCH   7   9
HETATM    9  O   UNL     1     -11.447  13.325  65.530  1.00  0.00    -0.303 OA 
BRANCH   9  10
HETATM   10  C   UNL     1     -11.655  13.224  64.191  1.00  0.00    -0.405 C  
HETATM   11  O   UNL     1     -12.319  13.999  63.520  1.00  0.00    -0.748 OA 
HETATM   12  C   UNL     1     -10.897  12.058  63.624  1.00  0.00    -0.510 C  
ENDBRANCH   9  10
ENDBRANCH   7   9
BRANCH   8  13
HETATM   13  C   UNL     1      -8.835  13.336  66.736  1.00  0.00    -0.129 C  
BRANCH  13  14
HETATM   14  N   UNL     1      -8.971  14.515  67.561  1.00  0.00    -0.180 NA 
HETATM   15  C   UNL     1      -8.677  14.612  68.893  1.00  0.00    -0.138 A  
HETATM   16  N   UNL     1      -8.990  15.799  69.374  1.00  0.00    -0.264 NA 
HETATM   17  C   UNL     1      -9.544  16.474  68.311  1.00  0.00    -0.223 A  
HETATM   18  C   UNL     1     -10.093  17.741  68.170  1.00  0.00    -0.362 A  
HETATM   19  N   UNL     1     -10.606  18.116  66.968  1.00  0.00    -0.363 NA 
HETATM   20  C   UNL     1     -10.573  17.241  65.947  1.00  0.00    -0.204 A  
HETATM   21  N   UNL     1     -10.033  16.013  65.961  1.00  0.00    -0.316 NA 
HETATM   22  N   UNL     1     -11.131  17.666  64.758  1.00  0.00    -0.717 NA 
HETATM   23  H2  UNL     1     -10.702  18.546  64.472  1.00  0.00     0.000 HD 
HETATM   24  H1  UNL     1     -11.106  17.003  63.984  1.00  0.00     0.000 HD 
HETATM   25  C   UNL     1      -9.547  15.691  67.172  1.00  0.00    -0.218 A  
ENDBRANCH  13  14
ENDBRANCH   8  13
ENDBRANCH   4   5
ENDBRANCH   2   4
TORSDOF 6
ENDMDL
MODEL      102
REMARK 921   NORMALIZED FREE ENERGY PREDICTED BY IDOCK:   -4.99 KCAL/MOL
REMARK 922        TOTAL FREE ENERGY PREDICTED BY IDOCK:   -7.75 KCAL/MOL
REMARK 923 INTER-LIGAND FREE ENERGY PREDICTED BY IDOCK:   -6.96 KCAL/MOL
REMARK 924 INTRA-LIGAND FREE ENERGY PREDICTED BY IDOCK:   -0.79 KCAL/MOL
REMARK 927      BINDING AFFINITY PREDICTED BY RF-SCORE:    0.00 PKD
ROOT
HETATM    1  C   UNL     1      -7.081   8.822  71.205  1.00  0.00    -0.096 C  
HETATM    2  C   UNL     1      -8.191   8.476  72.150  1.00  0.00    -0.112 C  
HETATM    3  O   UNL     1      -8.125   8.605  73.364  1.00  0.00    -0.411 OA 
ENDROOT
BRANCH   2   4
HETATM    4  O   UNL     1      -9.255   7.971  71.468  1.00  0.00    -0.135 OA 
BRANCH   4   5
HETATM    5  C   UNL     1     -10.513   8.624  71.709  1.00  0.00    -0.324 C  
HETATM    6  C   UNL     1     -10.757   9.783  70.722  1.00  0.00    -0.393 C  
HETATM    7  C   UNL     1     -12.058  10.506  71.136  1.00  0.00    -0.370 C  
HETATM    8  C   UNL     1     -10.760   9.256  69.265  1.00  0.00    -0.211 C  
BRANCH   7   9
HETATM    9  O   UNL     1     -12.383  11.627  70.298  1.00  0.00    -0.301 OA 
BRANCH   9  10
HETATM   10  C   UNL     1     -12.483  12.842  70.897  1.00  0.00    -0.283 C  
HETATM   11  O   UNL     1     -11.953  13.868  70.503  1.00  0.00    -0.323 OA 
HETATM   12  C   UNL     1     -13.398  12.772  72.086  1.00  0.00    -0.593 C  
ENDBRANCH   9  10
ENDBRANCH   7   9
BRANCH   8  13
HETATM   13  C   UNL     1     -10.882  10.349  68.203  1.00  0.00    -0.264 C  
BRANCH  13  14
HETATM   14  N   UNL     1     -10.327   9.967  66.924  1.00  0.00    -0.235 NA 
HETATM   15  C   UNL     1      -9.557   8.867  66.669  1.00  0.00    -0.219 A  
HETATM   16  N   UNL     1      -9.137   8.847  65.419  1.00  0.00    -0.194 NA 
HETATM   17  C   UNL     1      -9.629  10.007  64.865  1.00  0.00    -0.310 A  
HETATM   18  C   UNL     1      -9.519  10.582  63.607  1.00  0.00    -0.304 A  
HETATM   19  N   UNL     1     -10.105  11.785  63.369  1.00  0.00    -0.424 NA 
HETATM   20  C   UNL     1     -10.771  12.390  64.368  1.00  0.00    -0.339 A  
HETATM   21  N   UNL     1     -10.974  11.910  65.604  1.00  0.00    -0.297 NA 
HETATM   22  N   UNL     1     -11.323  13.622  64.077  1.00  0.00    -0.593 NA 
HETATM   23  H2  UNL     1     -11.926  13.544  63.258  1.00  0.00     0.000 HD 
HETATM   24  H1  UNL     1     -11.828  14.081  64.835  1.00  0.00     0.000 HD 
HETATM   25  C   UNL     1     -10.370  10.723  65.786  1.00  0.00    -0.230 A  
ENDBRANCH  13  14
ENDBRANCH   8  13
ENDBRANCH   4   5
ENDBRANCH   2   4
TORSDOF 6
ENDMDL
MODEL      103
REMARK 921   NORMALIZED FREE ENERGY PREDICTED BY IDOCK:   -4.98 KCAL/MOL
REMARK 922        TOTAL FREE ENERGY PREDICTED BY IDOCK:   -7.74 KCAL/MOL
REMARK 923 INTER-LIGAND FREE ENERGY PREDICTED BY IDOCK:   -7.37 KCAL/MOL
REMARK 924 INTRA-LIGAND FREE ENERGY PREDICTED BY IDOCK:   -0.37 KCAL/MOL
REMARK 927      BINDING AFFINITY PREDICTED BY RF-SCORE:    0.00 PKD
ROOT
HETATM    1  C   UNL     1      -7.769   8.013  70.364  1.00  0.00    -0.085 C  
HETATM    2  C   UNL     1      -9.242   8.131  70.615  1.00  0.00    -0.154 C  
HETATM    3  O   UNL     1      -9.916   7.274  71.168  1.00  0.00    -0.186 OA 
ENDROOT
BRANCH   2   4
HETATM    4  O   UNL     1      -9.717   9.303  70.110  1.00  0.00    -0.187 OA 
BRANCH   4   5
HETATM    5  C   UNL     1     -10.911   9.807  70.732  1.00  0.00    -0.336 C  
HETATM    6  C   UNL     1     -11.318  11.182  70.164  1.00  0.00    -0.295 C  
HETATM    7  C   UNL     1     -12.524  11.704  70.976  1.00  0.00    -0.334 C  
HETATM    8  C   UNL     1     -11.577  11.078  68.640  1.00  0.00    -0.385 C  
BRANCH   7   9
HETATM    9  O   UNL     1     -12.985  12.996  70.552  1.00  0.00     0.006 OA 
BRANCH   9  10
HETATM   10  C   UNL     1     -13.218  13.921  71.520  1.00  0.00    -0.352 C  
HETATM   11  O   UNL     1     -13.503  13.670  72.681  1.00  0.00    -0.550 OA 
HETATM   12  C   UNL     1     -13.013  15.309  70.986  1.00  0.00    -0.526 C  
ENDBRANCH   9  10
ENDBRANCH   7   9
BRANCH   8  13
HETATM   13  C   UNL     1     -11.877  12.415  67.962  1.00  0.00    -0.316 C  
BRANCH  13  14
HETATM   14  N   UNL     1     -10.704  13.242  67.785  1.00  0.00    -0.240 NA 
HETATM   15  C   UNL     1      -9.619  13.301  68.616  1.00  0.00    -0.048 A  
HETATM   16  N   UNL     1      -8.755  14.216  68.221  1.00  0.00    -0.176 NA 
HETATM   17  C   UNL     1      -9.334  14.792  67.114  1.00  0.00    -0.224 A  
HETATM   18  C   UNL     1      -8.951  15.820  66.266  1.00  0.00    -0.345 A  
HETATM   19  N   UNL     1      -9.776  16.194  65.252  1.00  0.00    -0.365 NA 
HETATM   20  C   UNL     1     -10.951  15.556  65.105  1.00  0.00    -0.409 A  
HETATM   21  N   UNL     1     -11.402  14.527  65.837  1.00  0.00    -0.338 NA 
HETATM   22  N   UNL     1     -11.760  15.995  64.076  1.00  0.00    -1.249 NA 
HETATM   23  H2  UNL     1     -11.243  15.971  63.197  1.00  0.00     0.000 HD 
HETATM   24  H1  UNL     1     -12.652  15.511  63.964  1.00  0.00     0.000 HD 
HETATM   25  C   UNL     1     -10.552  14.203  66.826  1.00  0.00    -0.277 A  
ENDBRANCH  13  14
ENDBRANCH   8  13
ENDBRANCH   4   5
ENDBRANCH   2   4
TORSDOF 6
ENDMDL
MODEL      104
REMARK 921   NORMALIZED FREE ENERGY PREDICTED BY IDOCK:   -4.97 KCAL/MOL
REMARK 922        TOTAL FREE ENERGY PREDICTED BY IDOCK:   -7.72 KCAL/MOL
REMARK 923 INTER-LIGAND FREE ENERGY PREDICTED BY IDOCK:   -6.91 KCAL/MOL
REMARK 924 INTRA-LIGAND FREE ENERGY PREDICTED BY IDOCK:   -0.82 KCAL/MOL
REMARK 927      BINDING AFFINITY PREDICTED BY RF-SCORE:    0.00 PKD
ROOT
HETATM    1  C   UNL     1     -10.770  19.339  65.835  1.00  0.00    -0.463 C  
HETATM    2  C   UNL     1      -9.693  20.141  66.501  1.00  0.00    -0.426 C  
HETATM    3  O   UNL     1      -9.888  20.919  67.423  1.00  0.00    -0.444 OA 
ENDROOT
BRANCH   2   4
HETATM    4  O   UNL     1      -8.491  19.903  65.909  1.00  0.00    -0.338 OA 
BRANCH   4   5
HETATM    5  C   UNL     1      -7.424  19.534  66.801  1.00  0.00    -0.241 C  
HETATM    6  C   UNL     1      -7.699  18.186  67.497  1.00  0.00    -0.220 C  
HETATM    7  C   UNL     1      -6.575  17.934  68.527  1.00  0.00    -0.215 C  
HETATM    8  C   UNL     1      -7.859  17.060  66.445  1.00  0.00    -0.343 C  
BRANCH   7   9
HETATM    9  O   UNL     1      -6.733  16.709  69.260  1.00  0.00    -0.202 OA 
BRANCH   9  10
HETATM   10  C   UNL     1      -5.837  16.459  70.251  1.00  0.00    -0.118 C  
HETATM   11  O   UNL     1      -5.538  15.351  70.668  1.00  0.00    -0.138 OA 
HETATM   12  C   UNL     1      -5.204  17.735  70.727  1.00  0.00    -0.278 C  
ENDBRANCH   9  10
ENDBRANCH   7   9
BRANCH   8  13
HETATM   13  C   UNL     1      -8.247  15.703  67.032  1.00  0.00    -0.233 C  
BRANCH  13  14
HETATM   14  N   UNL     1      -9.488  15.184  66.501  1.00  0.00    -0.264 NA 
HETATM   15  C   UNL     1     -10.248  15.748  65.513  1.00  0.00    -0.378 A  
HETATM   16  N   UNL     1     -11.364  15.076  65.316  1.00  0.00    -0.358 NA 
HETATM   17  C   UNL     1     -11.333  14.062  66.245  1.00  0.00    -0.333 A  
HETATM   18  C   UNL     1     -12.214  13.040  66.570  1.00  0.00    -0.246 A  
HETATM   19  N   UNL     1     -11.910  12.194  67.589  1.00  0.00    -0.535 NA 
HETATM   20  C   UNL     1     -10.759  12.377  68.262  1.00  0.00    -0.230 A  
HETATM   21  N   UNL     1      -9.821  13.301  68.009  1.00  0.00    -0.224 NA 
HETATM   22  N   UNL     1     -10.515  11.504  69.303  1.00  0.00    -0.421 NA 
HETATM   23  H2  UNL     1     -10.567  10.543  68.967  1.00  0.00     0.000 HD 
HETATM   24  H1  UNL     1      -9.643  11.643  69.814  1.00  0.00     0.000 HD 
HETATM   25  C   UNL     1     -10.174  14.113  66.998  1.00  0.00    -0.260 A  
ENDBRANCH  13  14
ENDBRANCH   8  13
ENDBRANCH   4   5
ENDBRANCH   2   4
TORSDOF 6
ENDMDL
MODEL      105
REMARK 921   NORMALIZED FREE ENERGY PREDICTED BY IDOCK:   -4.95 KCAL/MOL
REMARK 922        TOTAL FREE ENERGY PREDICTED BY IDOCK:   -7.70 KCAL/MOL
REMARK 923 INTER-LIGAND FREE ENERGY PREDICTED BY IDOCK:   -7.05 KCAL/MOL
REMARK 924 INTRA-LIGAND FREE ENERGY PREDICTED BY IDOCK:   -0.64 KCAL/MOL
REMARK 927      BINDING AFFINITY PREDICTED BY RF-SCORE:    0.00 PKD
ROOT
HETATM    1  C   UNL     1     -12.489  11.980  63.359  1.00  0.00    -0.625 C  
HETATM    2  C   UNL     1     -12.340  13.127  64.313  1.00  0.00    -0.351 C  
HETATM    3  O   UNL     1     -12.537  14.296  64.017  1.00  0.00    -0.724 OA 
ENDROOT
BRANCH   2   4
HETATM    4  O   UNL     1     -11.922  12.680  65.529  1.00  0.00    -0.413 OA 
BRANCH   4   5
HETATM    5  C   UNL     1     -12.042  13.623  66.609  1.00  0.00    -0.411 C  
HETATM    6  C   UNL     1     -11.790  12.962  67.979  1.00  0.00    -0.390 C  
HETATM    7  C   UNL     1     -12.068  14.008  69.081  1.00  0.00    -0.337 C  
HETATM    8  C   UNL     1     -10.366  12.353  68.027  1.00  0.00    -0.220 C  
BRANCH   7   9
HETATM    9  O   UNL     1     -11.886  13.501  70.412  1.00  0.00    -0.297 OA 
BRANCH   9  10
HETATM   10  C   UNL     1     -12.229  14.320  71.441  1.00  0.00    -0.331 C  
HETATM   11  O   UNL     1     -11.674  15.371  71.719  1.00  0.00    -0.343 OA 
HETATM   12  C   UNL     1     -13.436  13.791  72.160  1.00  0.00    -0.596 C  
ENDBRANCH   9  10
ENDBRANCH   7   9
BRANCH   8  13
HETATM   13  C   UNL     1     -10.060  11.574  69.306  1.00  0.00     0.129 C  
BRANCH  13  14
HETATM   14  N   UNL     1     -10.080  10.140  69.121  1.00  0.00    -0.201 NA 
HETATM   15  C   UNL     1     -10.560   9.469  68.031  1.00  0.00    -0.230 A  
HETATM   16  N   UNL     1     -10.513   8.163  68.206  1.00  0.00    -0.191 NA 
HETATM   17  C   UNL     1     -10.020   7.996  69.479  1.00  0.00    -0.186 A  
HETATM   18  C   UNL     1      -9.762   6.879  70.261  1.00  0.00    -0.172 A  
HETATM   19  N   UNL     1      -9.296   7.044  71.528  1.00  0.00    -0.154 NA 
HETATM   20  C   UNL     1      -9.105   8.292  71.991  1.00  0.00    -0.202 A  
HETATM   21  N   UNL     1      -9.281   9.435  71.312  1.00  0.00    -0.257 NA 
HETATM   22  N   UNL     1      -8.656   8.399  73.292  1.00  0.00    -0.356 NA 
HETATM   23  H2  UNL     1      -7.802   7.854  73.407  1.00  0.00     0.000 HD 
HETATM   24  H1  UNL     1      -8.511   9.346  73.643  1.00  0.00     0.000 HD 
HETATM   25  C   UNL     1      -9.747   9.215  70.070  1.00  0.00    -0.195 A  
ENDBRANCH  13  14
ENDBRANCH   8  13
ENDBRANCH   4   5
ENDBRANCH   2   4
TORSDOF 6
ENDMDL
MODEL      106
REMARK 921   NORMALIZED FREE ENERGY PREDICTED BY IDOCK:   -4.95 KCAL/MOL
REMARK 922        TOTAL FREE ENERGY PREDICTED BY IDOCK:   -7.69 KCAL/MOL
REMARK 923 INTER-LIGAND FREE ENERGY PREDICTED BY IDOCK:   -6.88 KCAL/MOL
REMARK 924 INTRA-LIGAND FREE ENERGY PREDICTED BY IDOCK:   -0.81 KCAL/MOL
REMARK 927      BINDING AFFINITY PREDICTED BY RF-SCORE:    0.00 PKD
ROOT
HETATM    1  C   UNL     1     -13.213  10.556  71.534  1.00  0.00    -0.470 C  
HETATM    2  C   UNL     1     -13.081  12.047  71.625  1.00  0.00    -0.318 C  
HETATM    3  O   UNL     1     -13.807  12.760  72.301  1.00  0.00    -0.480 OA 
ENDROOT
BRANCH   2   4
HETATM    4  O   UNL     1     -12.069  12.482  70.826  1.00  0.00    -0.332 OA 
BRANCH   4   5
HETATM    5  C   UNL     1     -12.404  13.561  69.936  1.00  0.00    -0.224 C  
HETATM    6  C   UNL     1     -11.582  13.508  68.633  1.00  0.00    -0.365 C  
HETATM    7  C   UNL     1     -11.908  14.768  67.801  1.00  0.00    -0.294 C  
HETATM    8  C   UNL     1     -11.839  12.173  67.890  1.00  0.00    -0.338 C  
BRANCH   7   9
HETATM    9  O   UNL     1     -11.181  14.843  66.564  1.00  0.00    -0.340 OA 
BRANCH   9  10
HETATM   10  C   UNL     1     -10.704  16.062  66.198  1.00  0.00    -0.244 C  
HETATM   11  O   UNL     1     -10.634  16.475  65.051  1.00  0.00    -0.670 OA 
HETATM   12  C   UNL     1     -10.333  16.871  67.407  1.00  0.00    -0.309 C  
ENDBRANCH   9  10
ENDBRANCH   7   9
BRANCH   8  13
HETATM   13  C   UNL     1     -10.980  11.975  66.640  1.00  0.00    -0.287 C  
BRANCH  13  14
HETATM   14  N   UNL     1      -9.773  11.220  66.890  1.00  0.00    -0.189 NA 
HETATM   15  C   UNL     1      -8.496  11.710  66.902  1.00  0.00    -0.168 A  
HETATM   16  N   UNL     1      -7.610  10.750  67.077  1.00  0.00    -0.109 NA 
HETATM   17  C   UNL     1      -8.351   9.593  67.138  1.00  0.00    -0.121 A  
HETATM   18  C   UNL     1      -8.017   8.254  67.280  1.00  0.00    -0.105 A  
HETATM   19  N   UNL     1      -8.999   7.315  67.269  1.00  0.00    -0.122 NA 
HETATM   20  C   UNL     1     -10.274   7.713  67.113  1.00  0.00    -0.290 A  
HETATM   21  N   UNL     1     -10.713   8.976  67.009  1.00  0.00    -0.196 NA 
HETATM   22  N   UNL     1     -11.227   6.714  67.084  1.00  0.00    -0.731 NA 
HETATM   23  H2  UNL     1     -11.147   6.137  67.920  1.00  0.00     0.000 HD 
HETATM   24  H1  UNL     1     -12.195   7.016  66.965  1.00  0.00     0.000 HD 
HETATM   25  C   UNL     1      -9.702   9.861  67.019  1.00  0.00    -0.182 A  
ENDBRANCH  13  14
ENDBRANCH   8  13
ENDBRANCH   4   5
ENDBRANCH   2   4
TORSDOF 6
ENDMDL
MODEL      107
REMARK 921   NORMALIZED FREE ENERGY PREDICTED BY IDOCK:   -4.93 KCAL/MOL
REMARK 922        TOTAL FREE ENERGY PREDICTED BY IDOCK:   -7.67 KCAL/MOL
REMARK 923 INTER-LIGAND FREE ENERGY PREDICTED BY IDOCK:   -7.02 KCAL/MOL
REMARK 924 INTRA-LIGAND FREE ENERGY PREDICTED BY IDOCK:   -0.65 KCAL/MOL
REMARK 927      BINDING AFFINITY PREDICTED BY RF-SCORE:    0.00 PKD
ROOT
HETATM    1  C   UNL     1     -12.599  14.289  65.103  1.00  0.00    -0.384 C  
HETATM    2  C   UNL     1     -12.590  12.821  64.801  1.00  0.00    -0.446 C  
HETATM    3  O   UNL     1     -13.002  12.332  63.760  1.00  0.00    -0.766 OA 
ENDROOT
BRANCH   2   4
HETATM    4  O   UNL     1     -12.094  12.123  65.859  1.00  0.00    -0.594 OA 
BRANCH   4   5
HETATM    5  C   UNL     1     -10.663  11.987  65.896  1.00  0.00    -0.275 C  
HETATM    6  C   UNL     1     -10.138  11.826  67.336  1.00  0.00    -0.212 C  
HETATM    7  C   UNL     1      -8.594  11.819  67.292  1.00  0.00    -0.162 C  
HETATM    8  C   UNL     1     -10.758  10.569  67.997  1.00  0.00    -0.287 C  
BRANCH   7   9
HETATM    9  O   UNL     1      -7.983  11.696  68.586  1.00  0.00    -0.144 OA 
BRANCH   9  10
HETATM   10  C   UNL     1      -6.766  12.277  68.756  1.00  0.00    -0.089 C  
HETATM   11  O   UNL     1      -6.307  12.650  69.824  1.00  0.00    -0.125 OA 
HETATM   12  C   UNL     1      -6.022  12.340  67.453  1.00  0.00    -0.149 C  
ENDBRANCH   9  10
ENDBRANCH   7   9
BRANCH   8  13
HETATM   13  C   UNL     1     -10.387  10.386  69.469  1.00  0.00    -0.237 C  
BRANCH  13  14
HETATM   14  N   UNL     1     -10.480   9.014  69.915  1.00  0.00    -0.208 NA 
HETATM   15  C   UNL     1      -9.745   7.958  69.452  1.00  0.00    -0.170 A  
HETATM   16  N   UNL     1     -10.127   6.822  70.003  1.00  0.00    -0.183 NA 
HETATM   17  C   UNL     1     -11.177   7.165  70.822  1.00  0.00    -0.279 A  
HETATM   18  C   UNL     1     -12.020   6.433  71.646  1.00  0.00    -0.291 A  
HETATM   19  N   UNL     1     -13.014   7.069  72.320  1.00  0.00     0.011 NA 
HETATM   20  C   UNL     1     -13.157   8.397  72.163  1.00  0.00    -0.328 A  
HETATM   21  N   UNL     1     -12.379   9.206  71.428  1.00  0.00    -0.320 NA 
HETATM   22  N   UNL     1     -14.199   8.986  72.851  1.00  0.00    -1.127 NA 
HETATM   23  H2  UNL     1     -14.126   8.763  73.843  1.00  0.00     0.000 HD 
HETATM   24  H1  UNL     1     -14.308   9.993  72.731  1.00  0.00     0.000 HD 
HETATM   25  C   UNL     1     -11.418   8.526  70.780  1.00  0.00    -0.253 A  
ENDBRANCH  13  14
ENDBRANCH   8  13
ENDBRANCH   4   5
ENDBRANCH   2   4
TORSDOF 6
ENDMDL
MODEL      108
REMARK 921   NORMALIZED FREE ENERGY PREDICTED BY IDOCK:   -4.93 KCAL/MOL
REMARK 922        TOTAL FREE ENERGY PREDICTED BY IDOCK:   -7.67 KCAL/MOL
REMARK 923 INTER-LIGAND FREE ENERGY PREDICTED BY IDOCK:   -6.98 KCAL/MOL
REMARK 924 INTRA-LIGAND FREE ENERGY PREDICTED BY IDOCK:   -0.68 KCAL/MOL
REMARK 927      BINDING AFFINITY PREDICTED BY RF-SCORE:    0.00 PKD
ROOT
HETATM    1  C   UNL     1     -12.569  15.369  72.152  1.00  0.00    -0.449 C  
HETATM    2  C   UNL     1     -13.040  13.962  71.940  1.00  0.00    -0.385 C  
HETATM    3  O   UNL     1     -13.793  13.368  72.697  1.00  0.00    -0.726 OA 
ENDROOT
BRANCH   2   4
HETATM    4  O   UNL     1     -12.482  13.441  70.813  1.00  0.00    -0.354 OA 
BRANCH   4   5
HETATM    5  C   UNL     1     -12.590  14.257  69.634  1.00  0.00    -0.053 C  
HETATM    6  C   UNL     1     -11.614  13.803  68.529  1.00  0.00    -0.373 C  
HETATM    7  C   UNL     1     -11.703  14.809  67.360  1.00  0.00    -0.350 C  
HETATM    8  C   UNL     1     -11.905  12.336  68.127  1.00  0.00    -0.372 C  
BRANCH   7   9
HETATM    9  O   UNL     1     -10.819  14.503  66.271  1.00  0.00    -0.306 OA 
BRANCH   9  10
HETATM   10  C   UNL     1     -10.205  15.548  65.657  1.00  0.00    -0.376 C  
HETATM   11  O   UNL     1     -10.657  16.174  64.711  1.00  0.00    -0.630 OA 
HETATM   12  C   UNL     1      -8.911  15.879  66.344  1.00  0.00    -0.368 C  
ENDBRANCH   9  10
ENDBRANCH   7   9
BRANCH   8  13
HETATM   13  C   UNL     1     -10.916  11.755  67.116  1.00  0.00    -0.276 C  
BRANCH  13  14
HETATM   14  N   UNL     1     -10.420  10.448  67.487  1.00  0.00    -0.227 NA 
HETATM   15  C   UNL     1     -10.372   9.927  68.751  1.00  0.00    -0.203 A  
HETATM   16  N   UNL     1      -9.786   8.746  68.766  1.00  0.00    -0.167 NA 
HETATM   17  C   UNL     1      -9.408   8.523  67.462  1.00  0.00    -0.144 A  
HETATM   18  C   UNL     1      -8.732   7.490  66.830  1.00  0.00    -0.133 A  
HETATM   19  N   UNL     1      -8.471   7.578  65.499  1.00  0.00    -0.139 NA 
HETATM   20  C   UNL     1      -8.871   8.675  64.831  1.00  0.00    -0.031 A  
HETATM   21  N   UNL     1      -9.563   9.710  65.330  1.00  0.00    -0.288 NA 
HETATM   22  N   UNL     1      -8.556   8.722  63.488  1.00  0.00    -0.403 NA 
HETATM   23  H2  UNL     1      -8.909   7.887  63.021  1.00  0.00     0.000 HD 
HETATM   24  H1  UNL     1      -8.858   9.554  62.981  1.00  0.00     0.000 HD 
HETATM   25  C   UNL     1      -9.789   9.574  66.648  1.00  0.00    -0.231 A  
ENDBRANCH  13  14
ENDBRANCH   8  13
ENDBRANCH   4   5
ENDBRANCH   2   4
TORSDOF 6
ENDMDL
MODEL      109
REMARK 921   NORMALIZED FREE ENERGY PREDICTED BY IDOCK:   -4.92 KCAL/MOL
REMARK 922        TOTAL FREE ENERGY PREDICTED BY IDOCK:   -7.65 KCAL/MOL
REMARK 923 INTER-LIGAND FREE ENERGY PREDICTED BY IDOCK:   -6.82 KCAL/MOL
REMARK 924 INTRA-LIGAND FREE ENERGY PREDICTED BY IDOCK:   -0.83 KCAL/MOL
REMARK 927      BINDING AFFINITY PREDICTED BY RF-SCORE:    0.00 PKD
ROOT
HETATM    1  C   UNL     1      -9.647   4.155  67.689  1.00  0.00    -0.213 C  
HETATM    2  C   UNL     1     -10.015   5.027  66.526  1.00  0.00    -0.224 C  
HETATM    3  O   UNL     1      -9.519   4.933  65.413  1.00  0.00    -0.161 OA 
ENDROOT
BRANCH   2   4
HETATM    4  O   UNL     1     -10.943   5.949  66.901  1.00  0.00    -0.299 OA 
BRANCH   4   5
HETATM    5  C   UNL     1     -10.804   6.460  68.238  1.00  0.00    -0.309 C  
HETATM    6  C   UNL     1      -9.929   7.729  68.281  1.00  0.00    -0.201 C  
HETATM    7  C   UNL     1      -9.726   8.129  69.758  1.00  0.00    -0.173 C  
HETATM    8  C   UNL     1     -10.554   8.841  67.402  1.00  0.00    -0.304 C  
BRANCH   7   9
HETATM    9  O   UNL     1      -8.903   9.293  69.930  1.00  0.00    -0.154 OA 
BRANCH   9  10
HETATM   10  C   UNL     1      -7.770   9.150  70.666  1.00  0.00    -0.138 C  
HETATM   11  O   UNL     1      -6.990  10.049  70.941  1.00  0.00    -0.337 OA 
HETATM   12  C   UNL     1      -7.635   7.739  71.161  1.00  0.00    -0.079 C  
ENDBRANCH   9  10
ENDBRANCH   7   9
BRANCH   8  13
HETATM   13  C   UNL     1      -9.700  10.104  67.288  1.00  0.00    -0.167 C  
BRANCH  13  14
HETATM   14  N   UNL     1     -10.474  11.324  67.331  1.00  0.00    -0.203 NA 
HETATM   15  C   UNL     1     -10.733  12.083  68.439  1.00  0.00    -0.229 A  
HETATM   16  N   UNL     1     -11.540  13.088  68.161  1.00  0.00    -0.319 NA 
HETATM   17  C   UNL     1     -11.839  12.940  66.827  1.00  0.00    -0.385 A  
HETATM   18  C   UNL     1     -12.649  13.647  65.949  1.00  0.00    -0.425 A  
HETATM   19  N   UNL     1     -12.772  13.221  64.664  1.00  0.00    -0.683 NA 
HETATM   20  C   UNL     1     -12.106  12.117  64.280  1.00  0.00    -0.375 A  
HETATM   21  N   UNL     1     -11.269  11.384  65.029  1.00  0.00    -0.154 NA 
HETATM   22  N   UNL     1     -12.289  11.717  62.972  1.00  0.00    -0.956 NA 
HETATM   23  H2  UNL     1     -12.068  12.488  62.342  1.00  0.00     0.000 HD 
HETATM   24  H1  UNL     1     -11.785  10.879  62.681  1.00  0.00     0.000 HD 
HETATM   25  C   UNL     1     -11.190  11.844  66.290  1.00  0.00    -0.337 A  
ENDBRANCH  13  14
ENDBRANCH   8  13
ENDBRANCH   4   5
ENDBRANCH   2   4
TORSDOF 6
ENDMDL
MODEL      110
REMARK 921   NORMALIZED FREE ENERGY PREDICTED BY IDOCK:   -4.91 KCAL/MOL
REMARK 922        TOTAL FREE ENERGY PREDICTED BY IDOCK:   -7.64 KCAL/MOL
REMARK 923 INTER-LIGAND FREE ENERGY PREDICTED BY IDOCK:   -6.90 KCAL/MOL
REMARK 924 INTRA-LIGAND FREE ENERGY PREDICTED BY IDOCK:   -0.74 KCAL/MOL
REMARK 927      BINDING AFFINITY PREDICTED BY RF-SCORE:    0.00 PKD
ROOT
HETATM    1  C   UNL     1     -11.741   9.126  71.367  1.00  0.00    -0.413 C  
HETATM    2  C   UNL     1     -10.254   9.307  71.314  1.00  0.00    -0.313 C  
HETATM    3  O   UNL     1      -9.484   8.918  72.180  1.00  0.00    -0.327 OA 
ENDROOT
BRANCH   2   4
HETATM    4  O   UNL     1      -9.899   9.991  70.192  1.00  0.00    -0.241 OA 
BRANCH   4   5
HETATM    5  C   UNL     1      -9.726   9.193  69.009  1.00  0.00    -0.166 C  
HETATM    6  C   UNL     1      -9.761  10.049  67.727  1.00  0.00    -0.174 C  
HETATM    7  C   UNL     1      -9.701   9.102  66.509  1.00  0.00    -0.241 C  
HETATM    8  C   UNL     1      -8.634  11.112  67.761  1.00  0.00    -0.131 C  
BRANCH   7   9
HETATM    9  O   UNL     1      -9.749   9.787  65.247  1.00  0.00    -0.294 OA 
BRANCH   9  10
HETATM   10  C   UNL     1      -8.787   9.480  64.337  1.00  0.00    -0.216 C  
HETATM   11  O   UNL     1      -7.819   8.767  64.548  1.00  0.00    -0.115 OA 
HETATM   12  C   UNL     1      -9.109  10.087  63.002  1.00  0.00    -0.298 C  
ENDBRANCH   9  10
ENDBRANCH   7   9
BRANCH   8  13
HETATM   13  C   UNL     1      -8.656  12.088  66.584  1.00  0.00    -0.143 C  
BRANCH  13  14
HETATM   14  N   UNL     1      -9.703  13.080  66.683  1.00  0.00    -0.250 NA 
HETATM   15  C   UNL     1      -9.828  14.034  67.655  1.00  0.00    -0.233 A  
HETATM   16  N   UNL     1     -10.937  14.732  67.510  1.00  0.00    -0.294 NA 
HETATM   17  C   UNL     1     -11.566  14.171  66.423  1.00  0.00    -0.369 A  
HETATM   18  C   UNL     1     -12.770  14.427  65.783  1.00  0.00    -0.246 A  
HETATM   19  N   UNL     1     -13.143  13.657  64.727  1.00  0.00    -0.535 NA 
HETATM   20  C   UNL     1     -12.331  12.658  64.334  1.00  0.00    -0.446 A  
HETATM   21  N   UNL     1     -11.132  12.349  64.851  1.00  0.00    -0.294 NA 
HETATM   22  N   UNL     1     -12.772  11.893  63.273  1.00  0.00    -0.893 NA 
HETATM   23  H2  UNL     1     -12.985  12.496  62.479  1.00  0.00     0.000 HD 
HETATM   24  H1  UNL     1     -12.156  11.136  62.976  1.00  0.00     0.000 HD 
HETATM   25  C   UNL     1     -10.817  13.136  65.894  1.00  0.00    -0.273 A  
ENDBRANCH  13  14
ENDBRANCH   8  13
ENDBRANCH   4   5
ENDBRANCH   2   4
TORSDOF 6
ENDMDL
MODEL      111
REMARK 921   NORMALIZED FREE ENERGY PREDICTED BY IDOCK:   -4.91 KCAL/MOL
REMARK 922        TOTAL FREE ENERGY PREDICTED BY IDOCK:   -7.64 KCAL/MOL
REMARK 923 INTER-LIGAND FREE ENERGY PREDICTED BY IDOCK:   -6.76 KCAL/MOL
REMARK 924 INTRA-LIGAND FREE ENERGY PREDICTED BY IDOCK:   -0.89 KCAL/MOL
REMARK 927      BINDING AFFINITY PREDICTED BY RF-SCORE:    0.00 PKD
ROOT
HETATM    1  C   UNL     1      -6.724  13.014  68.155  1.00  0.00    -0.103 C  
HETATM    2  C   UNL     1      -5.914  14.274  68.217  1.00  0.00    -0.120 C  
HETATM    3  O   UNL     1      -5.155  14.645  67.334  1.00  0.00    -0.328 OA 
ENDROOT
BRANCH   2   4
HETATM    4  O   UNL     1      -6.121  14.913  69.400  1.00  0.00    -0.100 OA 
BRANCH   4   5
HETATM    5  C   UNL     1      -6.442  16.311  69.301  1.00  0.00    -0.188 C  
HETATM    6  C   UNL     1      -7.775  16.544  68.560  1.00  0.00    -0.204 C  
HETATM    7  C   UNL     1      -7.973  18.065  68.384  1.00  0.00    -0.300 C  
HETATM    8  C   UNL     1      -8.933  15.835  69.305  1.00  0.00    -0.266 C  
BRANCH   7   9
HETATM    9  O   UNL     1      -9.178  18.410  67.683  1.00  0.00    -0.264 OA 
BRANCH   9  10
HETATM   10  C   UNL     1      -9.044  19.085  66.512  1.00  0.00    -0.334 C  
HETATM   11  O   UNL     1      -8.047  19.084  65.808  1.00  0.00    -0.459 OA 
HETATM   12  C   UNL     1     -10.323  19.787  66.157  1.00  0.00    -0.627 C  
ENDBRANCH   9  10
ENDBRANCH   7   9
BRANCH   8  13
HETATM   13  C   UNL     1     -10.281  15.911  68.586  1.00  0.00    -0.223 C  
BRANCH  13  14
HETATM   14  N   UNL     1     -10.942  14.630  68.474  1.00  0.00    -0.243 NA 
HETATM   15  C   UNL     1     -11.521  13.924  69.491  1.00  0.00    -0.274 A  
HETATM   16  N   UNL     1     -11.965  12.753  69.078  1.00  0.00    -0.277 NA 
HETATM   17  C   UNL     1     -11.617  12.694  67.748  1.00  0.00    -0.348 A  
HETATM   18  C   UNL     1     -11.771  11.727  66.765  1.00  0.00    -0.116 A  
HETATM   19  N   UNL     1     -11.276  11.956  65.520  1.00  0.00    -0.317 NA 
HETATM   20  C   UNL     1     -10.642  13.117  65.277  1.00  0.00    -0.313 A  
HETATM   21  N   UNL     1     -10.473  14.133  66.136  1.00  0.00    -0.289 NA 
HETATM   22  N   UNL     1     -10.138  13.283  64.003  1.00  0.00    -0.776 NA 
HETATM   23  H2  UNL     1     -10.881  13.147  63.318  1.00  0.00     0.000 HD 
HETATM   24  H1  UNL     1      -9.656  14.163  63.818  1.00  0.00     0.000 HD 
HETATM   25  C   UNL     1     -10.974  13.852  67.351  1.00  0.00    -0.288 A  
ENDBRANCH  13  14
ENDBRANCH   8  13
ENDBRANCH   4   5
ENDBRANCH   2   4
TORSDOF 6
ENDMDL
MODEL      112
REMARK 921   NORMALIZED FREE ENERGY PREDICTED BY IDOCK:   -4.89 KCAL/MOL
REMARK 922        TOTAL FREE ENERGY PREDICTED BY IDOCK:   -7.61 KCAL/MOL
REMARK 923 INTER-LIGAND FREE ENERGY PREDICTED BY IDOCK:   -6.83 KCAL/MOL
REMARK 924 INTRA-LIGAND FREE ENERGY PREDICTED BY IDOCK:   -0.79 KCAL/MOL
REMARK 927      BINDING AFFINITY PREDICTED BY RF-SCORE:    0.00 PKD
ROOT
HETATM    1  C   UNL     1     -13.490  11.971  72.140  1.00  0.00    -0.338 C  
HETATM    2  C   UNL     1     -13.305  13.446  71.948  1.00  0.00    -0.451 C  
HETATM    3  O   UNL     1     -14.067  14.296  72.385  1.00  0.00    -0.495 OA 
ENDROOT
BRANCH   2   4
HETATM    4  O   UNL     1     -12.199  13.691  71.194  1.00  0.00    -0.344 OA 
BRANCH   4   5
HETATM    5  C   UNL     1     -12.450  14.202  69.874  1.00  0.00    -0.260 C  
HETATM    6  C   UNL     1     -11.613  13.470  68.805  1.00  0.00    -0.362 C  
HETATM    7  C   UNL     1     -11.845  14.167  67.446  1.00  0.00    -0.413 C  
HETATM    8  C   UNL     1     -11.946  11.957  68.807  1.00  0.00    -0.307 C  
BRANCH   7   9
HETATM    9  O   UNL     1     -11.097  13.584  66.367  1.00  0.00    -0.298 OA 
BRANCH   9  10
HETATM   10  C   UNL     1     -11.371  14.025  65.112  1.00  0.00    -0.328 C  
HETATM   11  O   UNL     1     -11.106  15.136  64.681  1.00  0.00    -0.375 OA 
HETATM   12  C   UNL     1     -11.992  12.931  64.290  1.00  0.00    -0.463 C  
ENDBRANCH   9  10
ENDBRANCH   7   9
BRANCH   8  13
HETATM   13  C   UNL     1     -11.084  11.124  67.858  1.00  0.00    -0.273 C  
BRANCH  13  14
HETATM   14  N   UNL     1      -9.748  10.888  68.357  1.00  0.00    -0.169 NA 
HETATM   15  C   UNL     1      -8.577  11.192  67.719  1.00  0.00    -0.131 A  
HETATM   16  N   UNL     1      -7.529  10.774  68.402  1.00  0.00    -0.091 NA 
HETATM   17  C   UNL     1      -8.057  10.141  69.503  1.00  0.00    -0.170 A  
HETATM   18  C   UNL     1      -7.491   9.472  70.579  1.00  0.00    -0.148 A  
HETATM   19  N   UNL     1      -8.299   8.908  71.515  1.00  0.00    -0.311 NA 
HETATM   20  C   UNL     1      -9.632   9.009  71.366  1.00  0.00    -0.285 A  
HETATM   21  N   UNL     1     -10.284   9.664  70.394  1.00  0.00    -0.272 NA 
HETATM   22  N   UNL     1     -10.404   8.395  72.333  1.00  0.00    -0.326 NA 
HETATM   23  H2  UNL     1     -10.133   8.734  73.256  1.00  0.00     0.000 HD 
HETATM   24  H1  UNL     1     -11.415   8.471  72.220  1.00  0.00     0.000 HD 
HETATM   25  C   UNL     1      -9.439  10.196  69.494  1.00  0.00    -0.214 A  
ENDBRANCH  13  14
ENDBRANCH   8  13
ENDBRANCH   4   5
ENDBRANCH   2   4
TORSDOF 6
ENDMDL
MODEL      113
REMARK 921   NORMALIZED FREE ENERGY PREDICTED BY IDOCK:   -4.87 KCAL/MOL
REMARK 922        TOTAL FREE ENERGY PREDICTED BY IDOCK:   -7.59 KCAL/MOL
REMARK 923 INTER-LIGAND FREE ENERGY PREDICTED BY IDOCK:   -7.21 KCAL/MOL
REMARK 924 INTRA-LIGAND FREE ENERGY PREDICTED BY IDOCK:   -0.38 KCAL/MOL
REMARK 927      BINDING AFFINITY PREDICTED BY RF-SCORE:    0.00 PKD
ROOT
HETATM    1  C   UNL     1     -13.070   9.877  71.805  1.00  0.00    -0.553 C  
HETATM    2  C   UNL     1     -12.766  11.226  71.226  1.00  0.00    -0.405 C  
HETATM    3  O   UNL     1     -13.252  12.272  71.631  1.00  0.00    -0.398 OA 
ENDROOT
BRANCH   2   4
HETATM    4  O   UNL     1     -11.911  11.108  70.174  1.00  0.00    -0.305 OA 
BRANCH   4   5
HETATM    5  C   UNL     1     -11.107   9.915  70.160  1.00  0.00    -0.296 C  
HETATM    6  C   UNL     1     -10.415   9.705  68.798  1.00  0.00    -0.238 C  
HETATM    7  C   UNL     1      -9.687   8.343  68.829  1.00  0.00    -0.164 C  
HETATM    8  C   UNL     1      -9.496  10.908  68.472  1.00  0.00    -0.185 C  
BRANCH   7   9
HETATM    9  O   UNL     1      -9.018   8.022  67.600  1.00  0.00    -0.134 OA 
BRANCH   9  10
HETATM   10  C   UNL     1      -9.568   7.049  66.828  1.00  0.00    -0.171 C  
HETATM   11  O   UNL     1      -8.961   6.358  66.025  1.00  0.00    -0.157 OA 
HETATM   12  C   UNL     1     -11.027   6.885  67.144  1.00  0.00    -0.427 C  
ENDBRANCH   9  10
ENDBRANCH   7   9
BRANCH   8  13
HETATM   13  C   UNL     1      -8.851  10.848  67.087  1.00  0.00    -0.135 C  
BRANCH  13  14
HETATM   14  N   UNL     1      -9.787  11.081  66.009  1.00  0.00    -0.219 NA 
HETATM   15  C   UNL     1      -9.773  10.486  64.778  1.00  0.00    -0.305 A  
HETATM   16  N   UNL     1     -10.710  10.976  63.992  1.00  0.00    -0.347 NA 
HETATM   17  C   UNL     1     -11.323  11.953  64.741  1.00  0.00    -0.283 A  
HETATM   18  C   UNL     1     -12.352  12.847  64.482  1.00  0.00    -0.417 A  
HETATM   19  N   UNL     1     -12.719  13.740  65.439  1.00  0.00    -0.647 NA 
HETATM   20  C   UNL     1     -12.063  13.736  66.614  1.00  0.00    -0.429 A  
HETATM   21  N   UNL     1     -11.086  12.896  66.984  1.00  0.00    -0.266 NA 
HETATM   22  N   UNL     1     -12.460  14.682  67.538  1.00  0.00    -0.452 NA 
HETATM   23  H2  UNL     1     -13.464  14.602  67.703  1.00  0.00     0.000 HD 
HETATM   24  H1  UNL     1     -11.963  14.680  68.429  1.00  0.00     0.000 HD 
HETATM   25  C   UNL     1     -10.760  12.040  66.001  1.00  0.00    -0.279 A  
ENDBRANCH  13  14
ENDBRANCH   8  13
ENDBRANCH   4   5
ENDBRANCH   2   4
TORSDOF 6
ENDMDL
MODEL      114
REMARK 921   NORMALIZED FREE ENERGY PREDICTED BY IDOCK:   -4.87 KCAL/MOL
REMARK 922        TOTAL FREE ENERGY PREDICTED BY IDOCK:   -7.58 KCAL/MOL
REMARK 923 INTER-LIGAND FREE ENERGY PREDICTED BY IDOCK:   -6.66 KCAL/MOL
REMARK 924 INTRA-LIGAND FREE ENERGY PREDICTED BY IDOCK:   -0.92 KCAL/MOL
REMARK 927      BINDING AFFINITY PREDICTED BY RF-SCORE:    0.00 PKD
ROOT
HETATM    1  C   UNL     1      -5.940  10.909  67.663  1.00  0.00    -0.043 C  
HETATM    2  C   UNL     1      -7.382  11.303  67.557  1.00  0.00    -0.105 C  
HETATM    3  O   UNL     1      -7.804  12.429  67.777  1.00  0.00    -0.130 OA 
ENDROOT
BRANCH   2   4
HETATM    4  O   UNL     1      -8.144  10.227  67.219  1.00  0.00    -0.118 OA 
BRANCH   4   5
HETATM    5  C   UNL     1      -8.548   9.387  68.314  1.00  0.00    -0.120 C  
HETATM    6  C   UNL     1      -9.643  10.050  69.174  1.00  0.00    -0.217 C  
HETATM    7  C   UNL     1      -9.919   9.142  70.393  1.00  0.00    -0.218 C  
HETATM    8  C   UNL     1     -10.894  10.352  68.311  1.00  0.00    -0.299 C  
BRANCH   7   9
HETATM    9  O   UNL     1     -10.914   9.668  71.286  1.00  0.00    -0.349 OA 
BRANCH   9  10
HETATM   10  C   UNL     1     -11.710   8.771  71.925  1.00  0.00    -0.359 C  
HETATM   11  O   UNL     1     -12.924   8.704  71.816  1.00  0.00    -0.328 OA 
HETATM   12  C   UNL     1     -10.885   7.820  72.743  1.00  0.00    -0.438 C  
ENDBRANCH   9  10
ENDBRANCH   7   9
BRANCH   8  13
HETATM   13  C   UNL     1     -11.995  11.115  69.048  1.00  0.00    -0.320 C  
BRANCH  13  14
HETATM   14  N   UNL     1     -11.892  12.549  68.903  1.00  0.00    -0.311 NA 
HETATM   15  C   UNL     1     -11.384  13.223  67.827  1.00  0.00    -0.295 A  
HETATM   16  N   UNL     1     -11.351  14.524  68.040  1.00  0.00    -0.291 NA 
HETATM   17  C   UNL     1     -11.821  14.682  69.323  1.00  0.00    -0.321 A  
HETATM   18  C   UNL     1     -12.003  15.788  70.140  1.00  0.00    -0.347 A  
HETATM   19  N   UNL     1     -12.464  15.614  71.407  1.00  0.00    -0.410 NA 
HETATM   20  C   UNL     1     -12.724  14.367  71.837  1.00  0.00    -0.349 A  
HETATM   21  N   UNL     1     -12.624  13.236  71.123  1.00  0.00    -0.361 NA 
HETATM   22  N   UNL     1     -13.165  14.248  73.140  1.00  0.00    -0.609 NA 
HETATM   23  H2  UNL     1     -13.984  14.839  73.282  1.00  0.00     0.000 HD 
HETATM   24  H1  UNL     1     -13.362  13.302  73.466  1.00  0.00     0.000 HD 
HETATM   25  C   UNL     1     -12.159  13.464  69.883  1.00  0.00    -0.322 A  
ENDBRANCH  13  14
ENDBRANCH   8  13
ENDBRANCH   4   5
ENDBRANCH   2   4
TORSDOF 6
ENDMDL
MODEL      115
REMARK 921   NORMALIZED FREE ENERGY PREDICTED BY IDOCK:   -4.83 KCAL/MOL
REMARK 922        TOTAL FREE ENERGY PREDICTED BY IDOCK:   -7.53 KCAL/MOL
REMARK 923 INTER-LIGAND FREE ENERGY PREDICTED BY IDOCK:   -6.74 KCAL/MOL
REMARK 924 INTRA-LIGAND FREE ENERGY PREDICTED BY IDOCK:   -0.79 KCAL/MOL
REMARK 927      BINDING AFFINITY PREDICTED BY RF-SCORE:    0.00 PKD
ROOT
HETATM    1  C   UNL     1     -12.671  14.191  65.809  1.00  0.00    -0.443 C  
HETATM    2  C   UNL     1     -12.578  12.831  65.186  1.00  0.00    -0.444 C  
HETATM    3  O   UNL     1     -12.897  12.582  64.032  1.00  0.00    -0.707 OA 
ENDROOT
BRANCH   2   4
HETATM    4  O   UNL     1     -12.128  11.923  66.094  1.00  0.00    -0.519 OA 
BRANCH   4   5
HETATM    5  C   UNL     1     -11.907  12.431  67.421  1.00  0.00    -0.289 C  
HETATM    6  C   UNL     1     -11.858  11.301  68.469  1.00  0.00    -0.355 C  
HETATM    7  C   UNL     1     -11.752  11.942  69.870  1.00  0.00    -0.308 C  
HETATM    8  C   UNL     1     -10.715  10.310  68.136  1.00  0.00    -0.287 C  
BRANCH   7   9
HETATM    9  O   UNL     1     -11.720  10.984  70.939  1.00  0.00    -0.284 OA 
BRANCH   9  10
HETATM   10  C   UNL     1     -12.832  10.879  71.713  1.00  0.00    -0.404 C  
HETATM   11  O   UNL     1     -13.377  11.806  72.292  1.00  0.00    -0.455 OA 
HETATM   12  C   UNL     1     -13.349   9.469  71.710  1.00  0.00    -0.501 C  
ENDBRANCH   9  10
ENDBRANCH   7   9
BRANCH   8  13
HETATM   13  C   UNL     1     -10.656   9.089  69.054  1.00  0.00    -0.190 C  
BRANCH  13  14
HETATM   14  N   UNL     1     -10.464   7.846  68.341  1.00  0.00    -0.194 NA 
HETATM   15  C   UNL     1     -10.530   7.668  66.987  1.00  0.00    -0.349 A  
HETATM   16  N   UNL     1     -10.391   6.399  66.657  1.00  0.00    -0.182 NA 
HETATM   17  C   UNL     1     -10.272   5.735  67.855  1.00  0.00    -0.187 A  
HETATM   18  C   UNL     1     -10.130   4.396  68.192  1.00  0.00     0.084 A  
HETATM   19  N   UNL     1     -10.073   4.039  69.502  1.00  0.00     0.102 NA 
HETATM   20  C   UNL     1     -10.163   4.999  70.440  1.00  0.00    -0.254 A  
HETATM   21  N   UNL     1     -10.260   6.320  70.229  1.00  0.00    -0.189 NA 
HETATM   22  N   UNL     1     -10.125   4.576  71.754  1.00  0.00    -0.192 NA 
HETATM   23  H2  UNL     1      -9.286   4.018  71.912  1.00  0.00     0.000 HD 
HETATM   24  H1  UNL     1     -10.194   5.304  72.465  1.00  0.00     0.000 HD 
HETATM   25  C   UNL     1     -10.319   6.616  68.919  1.00  0.00    -0.193 A  
ENDBRANCH  13  14
ENDBRANCH   8  13
ENDBRANCH   4   5
ENDBRANCH   2   4
TORSDOF 6
ENDMDL
MODEL      116
REMARK 921   NORMALIZED FREE ENERGY PREDICTED BY IDOCK:   -4.82 KCAL/MOL
REMARK 922        TOTAL FREE ENERGY PREDICTED BY IDOCK:   -7.52 KCAL/MOL
REMARK 923 INTER-LIGAND FREE ENERGY PREDICTED BY IDOCK:   -6.85 KCAL/MOL
REMARK 924 INTRA-LIGAND FREE ENERGY PREDICTED BY IDOCK:   -0.67 KCAL/MOL
REMARK 927      BINDING AFFINITY PREDICTED BY RF-SCORE:    0.00 PKD
ROOT
HETATM    1  C   UNL     1     -10.475   3.691  63.973  1.00  0.00    -0.271 C  
HETATM    2  C   UNL     1      -9.667   4.011  65.195  1.00  0.00    -0.196 C  
HETATM    3  O   UNL     1      -8.912   3.222  65.744  1.00  0.00    -0.133 OA 
ENDROOT
BRANCH   2   4
HETATM    4  O   UNL     1      -9.925   5.280  65.614  1.00  0.00    -0.068 OA 
BRANCH   4   5
HETATM    5  C   UNL     1     -10.717   5.388  66.810  1.00  0.00    -0.211 C  
HETATM    6  C   UNL     1     -10.240   6.544  67.712  1.00  0.00    -0.201 C  
HETATM    7  C   UNL     1     -11.054   6.503  69.024  1.00  0.00    -0.310 C  
HETATM    8  C   UNL     1     -10.331   7.890  66.951  1.00  0.00    -0.400 C  
BRANCH   7   9
HETATM    9  O   UNL     1     -10.684   7.526  69.961  1.00  0.00    -0.233 OA 
BRANCH   9  10
HETATM   10  C   UNL     1     -11.616   7.894  70.880  1.00  0.00    -0.273 C  
HETATM   11  O   UNL     1     -11.784   9.028  71.298  1.00  0.00    -0.277 OA 
HETATM   12  C   UNL     1     -12.468   6.720  71.269  1.00  0.00    -0.365 C  
ENDBRANCH   9  10
ENDBRANCH   7   9
BRANCH   8  13
HETATM   13  C   UNL     1      -9.772   9.086  67.723  1.00  0.00    -0.156 C  
BRANCH  13  14
HETATM   14  N   UNL     1     -10.555  10.290  67.558  1.00  0.00    -0.248 NA 
HETATM   15  C   UNL     1     -11.310  10.907  68.517  1.00  0.00    -0.299 A  
HETATM   16  N   UNL     1     -11.971  11.937  68.027  1.00  0.00    -0.553 NA 
HETATM   17  C   UNL     1     -11.655  11.952  66.688  1.00  0.00    -0.264 A  
HETATM   18  C   UNL     1     -12.042  12.759  65.628  1.00  0.00    -0.459 A  
HETATM   19  N   UNL     1     -11.573  12.494  64.380  1.00  0.00    -0.338 NA 
HETATM   20  C   UNL     1     -10.748  11.447  64.207  1.00  0.00    -0.356 A  
HETATM   21  N   UNL     1     -10.278  10.629  65.161  1.00  0.00    -0.306 NA 
HETATM   22  N   UNL     1     -10.323  11.209  62.915  1.00  0.00    -0.739 NA 
HETATM   23  H2  UNL     1      -9.895  12.052  62.533  1.00  0.00     0.000 HD 
HETATM   24  H1  UNL     1      -9.697  10.415  62.784  1.00  0.00     0.000 HD 
HETATM   25  C   UNL     1     -10.778  10.932  66.372  1.00  0.00    -0.194 A  
ENDBRANCH  13  14
ENDBRANCH   8  13
ENDBRANCH   4   5
ENDBRANCH   2   4
TORSDOF 6
ENDMDL
MODEL      117
REMARK 921   NORMALIZED FREE ENERGY PREDICTED BY IDOCK:   -4.80 KCAL/MOL
REMARK 922        TOTAL FREE ENERGY PREDICTED BY IDOCK:   -7.49 KCAL/MOL
REMARK 923 INTER-LIGAND FREE ENERGY PREDICTED BY IDOCK:   -6.86 KCAL/MOL
REMARK 924 INTRA-LIGAND FREE ENERGY PREDICTED BY IDOCK:   -0.63 KCAL/MOL
REMARK 927      BINDING AFFINITY PREDICTED BY RF-SCORE:    0.00 PKD
ROOT
HETATM    1  C   UNL     1     -10.317  18.728  66.332  1.00  0.00    -0.489 C  
HETATM    2  C   UNL     1     -10.547  18.309  67.753  1.00  0.00    -0.393 C  
HETATM    3  O   UNL     1     -10.312  19.015  68.723  1.00  0.00    -0.332 OA 
ENDROOT
BRANCH   2   4
HETATM    4  O   UNL     1     -11.014  17.032  67.801  1.00  0.00    -0.316 OA 
BRANCH   4   5
HETATM    5  C   UNL     1     -11.390  16.559  69.107  1.00  0.00    -0.156 C  
HETATM    6  C   UNL     1     -11.782  15.068  69.087  1.00  0.00    -0.345 C  
HETATM    7  C   UNL     1     -12.294  14.682  70.492  1.00  0.00    -0.337 C  
HETATM    8  C   UNL     1     -10.596  14.208  68.585  1.00  0.00    -0.253 C  
BRANCH   7   9
HETATM    9  O   UNL     1     -12.713  13.313  70.594  1.00  0.00    -0.252 OA 
BRANCH   9  10
HETATM   10  C   UNL     1     -13.232  12.909  71.784  1.00  0.00    -0.384 C  
HETATM   11  O   UNL     1     -13.388  11.747  72.126  1.00  0.00    -0.497 OA 
HETATM   12  C   UNL     1     -13.529  14.091  72.660  1.00  0.00    -0.650 C  
ENDBRANCH   9  10
ENDBRANCH   7   9
BRANCH   8  13
HETATM   13  C   UNL     1     -10.924  12.723  68.421  1.00  0.00    -0.254 C  
BRANCH  13  14
HETATM   14  N   UNL     1     -10.248  12.109  67.300  1.00  0.00    -0.201 NA 
HETATM   15  C   UNL     1      -9.629  12.760  66.268  1.00  0.00    -0.242 A  
HETATM   16  N   UNL     1      -9.181  11.916  65.360  1.00  0.00    -0.038 NA 
HETATM   17  C   UNL     1      -9.566  10.675  65.814  1.00  0.00    -0.210 A  
HETATM   18  C   UNL     1      -9.426   9.391  65.307  1.00  0.00    -0.227 A  
HETATM   19  N   UNL     1      -9.960   8.342  65.988  1.00  0.00    -0.056 NA 
HETATM   20  C   UNL     1     -10.617   8.582  67.137  1.00  0.00    -0.243 A  
HETATM   21  N   UNL     1     -10.776   9.771  67.736  1.00  0.00    -0.271 NA 
HETATM   22  N   UNL     1     -11.160   7.483  67.772  1.00  0.00    -0.495 NA 
HETATM   23  H2  UNL     1     -10.434   6.784  67.930  1.00  0.00     0.000 HD 
HETATM   24  H1  UNL     1     -11.659   7.665  68.643  1.00  0.00     0.000 HD 
HETATM   25  C   UNL     1     -10.237  10.772  67.019  1.00  0.00    -0.217 A  
ENDBRANCH  13  14
ENDBRANCH   8  13
ENDBRANCH   4   5
ENDBRANCH   2   4
TORSDOF 6
ENDMDL
MODEL      118
REMARK 921   NORMALIZED FREE ENERGY PREDICTED BY IDOCK:   -4.77 KCAL/MOL
REMARK 922        TOTAL FREE ENERGY PREDICTED BY IDOCK:   -7.45 KCAL/MOL
REMARK 923 INTER-LIGAND FREE ENERGY PREDICTED BY IDOCK:   -6.54 KCAL/MOL
REMARK 924 INTRA-LIGAND FREE ENERGY PREDICTED BY IDOCK:   -0.91 KCAL/MOL
REMARK 927      BINDING AFFINITY PREDICTED BY RF-SCORE:    0.00 PKD
ROOT
HETATM    1  C   UNL     1     -10.232   4.503  66.082  1.00  0.00    -0.283 C  
HETATM    2  C   UNL     1      -8.957   5.065  65.528  1.00  0.00    -0.151 C  
HETATM    3  O   UNL     1      -8.079   4.393  65.008  1.00  0.00    -0.096 OA 
ENDROOT
BRANCH   2   4
HETATM    4  O   UNL     1      -8.909   6.411  65.722  1.00  0.00    -0.155 OA 
BRANCH   4   5
HETATM    5  C   UNL     1      -9.853   6.934  66.673  1.00  0.00    -0.153 C  
HETATM    6  C   UNL     1      -9.579   8.416  66.999  1.00  0.00    -0.248 C  
HETATM    7  C   UNL     1     -10.550   8.854  68.118  1.00  0.00    -0.157 C  
HETATM    8  C   UNL     1      -9.667   9.274  65.712  1.00  0.00    -0.339 C  
BRANCH   7   9
HETATM    9  O   UNL     1     -10.376  10.220  68.527  1.00  0.00    -0.163 OA 
BRANCH   9  10
HETATM   10  C   UNL     1     -11.492  10.907  68.888  1.00  0.00    -0.300 C  
HETATM   11  O   UNL     1     -12.258  11.461  68.116  1.00  0.00    -0.602 OA 
HETATM   12  C   UNL     1     -11.698  10.837  70.373  1.00  0.00    -0.445 C  
ENDBRANCH   9  10
ENDBRANCH   7   9
BRANCH   8  13
HETATM   13  C   UNL     1      -9.299  10.744  65.912  1.00  0.00    -0.189 C  
BRANCH  13  14
HETATM   14  N   UNL     1     -10.135  11.651  65.158  1.00  0.00    -0.252 NA 
HETATM   15  C   UNL     1     -10.641  11.437  63.905  1.00  0.00    -0.392 A  
HETATM   16  N   UNL     1     -11.296  12.492  63.460  1.00  0.00    -0.481 NA 
HETATM   17  C   UNL     1     -11.168  13.432  64.456  1.00  0.00    -0.372 A  
HETATM   18  C   UNL     1     -11.599  14.744  64.589  1.00  0.00    -0.399 A  
HETATM   19  N   UNL     1     -11.276  15.444  65.708  1.00  0.00    -0.255 NA 
HETATM   20  C   UNL     1     -10.536  14.843  66.657  1.00  0.00    -0.305 A  
HETATM   21  N   UNL     1     -10.102  13.574  66.652  1.00  0.00    -0.270 NA 
HETATM   22  N   UNL     1     -10.216  15.610  67.760  1.00  0.00    -0.248 NA 
HETATM   23  H2  UNL     1     -11.067  15.988  68.175  1.00  0.00     0.000 HD 
HETATM   24  H1  UNL     1      -9.655  15.154  68.480  1.00  0.00     0.000 HD 
HETATM   25  C   UNL     1     -10.443  12.931  65.523  1.00  0.00    -0.289 A  
ENDBRANCH  13  14
ENDBRANCH   8  13
ENDBRANCH   4   5
ENDBRANCH   2   4
TORSDOF 6
ENDMDL
MODEL      119
REMARK 921   NORMALIZED FREE ENERGY PREDICTED BY IDOCK:   -4.76 KCAL/MOL
REMARK 922        TOTAL FREE ENERGY PREDICTED BY IDOCK:   -7.44 KCAL/MOL
REMARK 923 INTER-LIGAND FREE ENERGY PREDICTED BY IDOCK:   -6.42 KCAL/MOL
REMARK 924 INTRA-LIGAND FREE ENERGY PREDICTED BY IDOCK:   -1.02 KCAL/MOL
REMARK 927      BINDING AFFINITY PREDICTED BY RF-SCORE:    0.00 PKD
ROOT
HETATM    1  C   UNL     1     -11.966  15.478  72.122  1.00  0.00    -0.534 C  
HETATM    2  C   UNL     1     -13.244  14.712  71.955  1.00  0.00    -0.349 C  
HETATM    3  O   UNL     1     -14.291  14.991  72.520  1.00  0.00    -0.414 OA 
ENDROOT
BRANCH   2   4
HETATM    4  O   UNL     1     -13.056  13.653  71.121  1.00  0.00    -0.303 OA 
BRANCH   4   5
HETATM    5  C   UNL     1     -12.920  12.374  71.764  1.00  0.00    -0.316 C  
HETATM    6  C   UNL     1     -12.760  11.231  70.742  1.00  0.00    -0.360 C  
HETATM    7  C   UNL     1     -12.754   9.891  71.511  1.00  0.00    -0.415 C  
HETATM    8  C   UNL     1     -11.503  11.466  69.867  1.00  0.00    -0.353 C  
BRANCH   7   9
HETATM    9  O   UNL     1     -12.631   8.741  70.659  1.00  0.00     0.048 OA 
BRANCH   9  10
HETATM   10  C   UNL     1     -11.961   7.668  71.156  1.00  0.00    -0.297 C  
HETATM   11  O   UNL     1     -11.907   6.567  70.631  1.00  0.00    -0.384 OA 
HETATM   12  C   UNL     1     -11.233   8.037  72.416  1.00  0.00    -0.432 C  
ENDBRANCH   9  10
ENDBRANCH   7   9
BRANCH   8  13
HETATM   13  C   UNL     1     -11.320  10.443  68.745  1.00  0.00    -0.214 C  
BRANCH  13  14
HETATM   14  N   UNL     1     -10.108   9.665  68.872  1.00  0.00    -0.180 NA 
HETATM   15  C   UNL     1      -8.953  10.058  69.489  1.00  0.00    -0.205 A  
HETATM   16  N   UNL     1      -8.002   9.153  69.360  1.00  0.00    -0.093 NA 
HETATM   17  C   UNL     1      -8.564   8.160  68.592  1.00  0.00    -0.127 A  
HETATM   18  C   UNL     1      -8.083   6.961  68.085  1.00  0.00    -0.119 A  
HETATM   19  N   UNL     1      -8.892   6.191  67.310  1.00  0.00    -0.108 NA 
HETATM   20  C   UNL     1     -10.140   6.619  67.050  1.00  0.00    -0.187 A  
HETATM   21  N   UNL     1     -10.719   7.734  67.519  1.00  0.00    -0.231 NA 
HETATM   22  N   UNL     1     -10.907   5.810  66.237  1.00  0.00    -0.680 NA 
HETATM   23  H2  UNL     1     -10.940   4.866  66.622  1.00  0.00     0.000 HD 
HETATM   24  H1  UNL     1     -11.854   6.134  66.039  1.00  0.00     0.000 HD 
HETATM   25  C   UNL     1      -9.875   8.460  68.272  1.00  0.00    -0.169 A  
ENDBRANCH  13  14
ENDBRANCH   8  13
ENDBRANCH   4   5
ENDBRANCH   2   4
TORSDOF 6
ENDMDL
MODEL      120
REMARK 921   NORMALIZED FREE ENERGY PREDICTED BY IDOCK:   -4.75 KCAL/MOL
REMARK 922        TOTAL FREE ENERGY PREDICTED BY IDOCK:   -7.42 KCAL/MOL
REMARK 923 INTER-LIGAND FREE ENERGY PREDICTED BY IDOCK:   -6.53 KCAL/MOL
REMARK 924 INTRA-LIGAND FREE ENERGY PREDICTED BY IDOCK:   -0.89 KCAL/MOL
REMARK 927      BINDING AFFINITY PREDICTED BY RF-SCORE:    0.00 PKD
ROOT
HETATM    1  C   UNL     1      -7.038  19.893  70.099  1.00  0.00     0.131 C  
HETATM    2  C   UNL     1      -6.387  20.350  68.828  1.00  0.00    -0.303 C  
HETATM    3  O   UNL     1      -5.336  20.972  68.780  1.00  0.00    -0.315 OA 
ENDROOT
BRANCH   2   4
HETATM    4  O   UNL     1      -7.150  20.006  67.755  1.00  0.00    -0.262 OA 
BRANCH   4   5
HETATM    5  C   UNL     1      -6.746  18.811  67.065  1.00  0.00    -0.197 C  
HETATM    6  C   UNL     1      -7.716  17.641  67.325  1.00  0.00    -0.222 C  
HETATM    7  C   UNL     1      -7.136  16.373  66.660  1.00  0.00    -0.140 C  
HETATM    8  C   UNL     1      -9.143  18.011  66.850  1.00  0.00    -0.273 C  
BRANCH   7   9
HETATM    9  O   UNL     1      -7.946  15.203  66.852  1.00  0.00    -0.211 OA 
BRANCH   9  10
HETATM   10  C   UNL     1      -7.637  14.399  67.903  1.00  0.00    -0.151 C  
HETATM   11  O   UNL     1      -8.419  14.042  68.771  1.00  0.00    -0.134 OA 
HETATM   12  C   UNL     1      -6.208  13.947  67.821  1.00  0.00    -0.155 C  
ENDBRANCH   9  10
ENDBRANCH   7   9
BRANCH   8  13
HETATM   13  C   UNL     1     -10.204  16.957  67.169  1.00  0.00    -0.297 C  
BRANCH  13  14
HETATM   14  N   UNL     1     -10.753  16.325  65.991  1.00  0.00    -0.262 NA 
HETATM   15  C   UNL     1     -11.023  16.930  64.795  1.00  0.00     0.091 A  
HETATM   16  N   UNL     1     -11.598  16.099  63.948  1.00  0.00    -0.881 NA 
HETATM   17  C   UNL     1     -11.738  14.924  64.650  1.00  0.00    -0.404 A  
HETATM   18  C   UNL     1     -12.287  13.689  64.338  1.00  0.00    -0.338 A  
HETATM   19  N   UNL     1     -12.309  12.710  65.281  1.00  0.00    -0.576 NA 
HETATM   20  C   UNL     1     -11.800  12.971  66.499  1.00  0.00    -0.403 A  
HETATM   21  N   UNL     1     -11.211  14.109  66.894  1.00  0.00    -0.308 NA 
HETATM   22  N   UNL     1     -11.872  11.949  67.424  1.00  0.00    -0.611 NA 
HETATM   23  H2  UNL     1     -11.439  11.108  67.043  1.00  0.00     0.000 HD 
HETATM   24  H1  UNL     1     -11.487  12.147  68.347  1.00  0.00     0.000 HD 
HETATM   25  C   UNL     1     -11.222  15.043  65.927  1.00  0.00    -0.313 A  
ENDBRANCH  13  14
ENDBRANCH   8  13
ENDBRANCH   4   5
ENDBRANCH   2   4
TORSDOF 6
ENDMDL
MODEL      121
REMARK 921   NORMALIZED FREE ENERGY PREDICTED BY IDOCK:   -4.74 KCAL/MOL
REMARK 922        TOTAL FREE ENERGY PREDICTED BY IDOCK:   -7.41 KCAL/MOL
REMARK 923 INTER-LIGAND FREE ENERGY PREDICTED BY IDOCK:   -6.69 KCAL/MOL
REMARK 924 INTRA-LIGAND FREE ENERGY PREDICTED BY IDOCK:   -0.73 KCAL/MOL
REMARK 927      BINDING AFFINITY PREDICTED BY RF-SCORE:    0.00 PKD
ROOT
HETATM    1  C   UNL     1      -8.565   7.691  70.135  1.00  0.00    -0.140 C  
HETATM    2  C   UNL     1     -10.052   7.803  70.294  1.00  0.00    -0.195 C  
HETATM    3  O   UNL     1     -10.750   6.954  70.829  1.00  0.00    -0.223 OA 
ENDROOT
BRANCH   2   4
HETATM    4  O   UNL     1     -10.504   8.955  69.730  1.00  0.00    -0.203 OA 
BRANCH   4   5
HETATM    5  C   UNL     1     -11.542   9.635  70.457  1.00  0.00    -0.272 C  
HETATM    6  C   UNL     1     -11.576  11.143  70.135  1.00  0.00    -0.410 C  
HETATM    7  C   UNL     1     -12.625  11.811  71.052  1.00  0.00    -0.310 C  
HETATM    8  C   UNL     1     -11.824  11.363  68.622  1.00  0.00    -0.377 C  
BRANCH   7   9
HETATM    9  O   UNL     1     -12.734  13.230  70.860  1.00  0.00    -0.318 OA 
BRANCH   9  10
HETATM   10  C   UNL     1     -13.635  13.893  71.631  1.00  0.00    -0.336 C  
HETATM   11  O   UNL     1     -14.272  13.403  72.550  1.00  0.00    -0.721 OA 
HETATM   12  C   UNL     1     -13.696  15.343  71.244  1.00  0.00    -0.558 C  
ENDBRANCH   9  10
ENDBRANCH   7   9
BRANCH   8  13
HETATM   13  C   UNL     1     -11.761  12.827  68.183  1.00  0.00    -0.345 C  
BRANCH  13  14
HETATM   14  N   UNL     1     -10.429  13.260  67.825  1.00  0.00    -0.235 NA 
HETATM   15  C   UNL     1      -9.404  12.463  67.395  1.00  0.00    -0.181 A  
HETATM   16  N   UNL     1      -8.291  13.151  67.231  1.00  0.00    -0.187 NA 
HETATM   17  C   UNL     1      -8.610  14.433  67.613  1.00  0.00    -0.185 A  
HETATM   18  C   UNL     1      -7.881  15.610  67.699  1.00  0.00    -0.154 A  
HETATM   19  N   UNL     1      -8.485  16.739  68.158  1.00  0.00    -0.206 NA 
HETATM   20  C   UNL     1      -9.778  16.679  68.524  1.00  0.00    -0.244 A  
HETATM   21  N   UNL     1     -10.585  15.611  68.444  1.00  0.00    -0.244 NA 
HETATM   22  N   UNL     1     -10.331  17.848  69.006  1.00  0.00    -0.420 NA 
HETATM   23  H2  UNL     1     -10.200  18.597  68.327  1.00  0.00     0.000 HD 
HETATM   24  H1  UNL     1     -11.311  17.803  69.285  1.00  0.00     0.000 HD 
HETATM   25  C   UNL     1      -9.937  14.524  67.991  1.00  0.00    -0.222 A  
ENDBRANCH  13  14
ENDBRANCH   8  13
ENDBRANCH   4   5
ENDBRANCH   2   4
TORSDOF 6
ENDMDL
MODEL      122
REMARK 921   NORMALIZED FREE ENERGY PREDICTED BY IDOCK:   -4.74 KCAL/MOL
REMARK 922        TOTAL FREE ENERGY PREDICTED BY IDOCK:   -7.41 KCAL/MOL
REMARK 923 INTER-LIGAND FREE ENERGY PREDICTED BY IDOCK:   -6.54 KCAL/MOL
REMARK 924 INTRA-LIGAND FREE ENERGY PREDICTED BY IDOCK:   -0.87 KCAL/MOL
REMARK 927      BINDING AFFINITY PREDICTED BY RF-SCORE:    0.00 PKD
ROOT
HETATM    1  C   UNL     1      -5.859  10.736  69.092  1.00  0.00    -0.041 C  
HETATM    2  C   UNL     1      -6.703   9.598  69.581  1.00  0.00    -0.054 C  
HETATM    3  O   UNL     1      -6.695   8.477  69.093  1.00  0.00    -0.046 OA 
ENDROOT
BRANCH   2   4
HETATM    4  O   UNL     1      -7.495  10.003  70.611  1.00  0.00    -0.302 OA 
BRANCH   4   5
HETATM    5  C   UNL     1      -8.328   8.984  71.190  1.00  0.00    -0.159 C  
HETATM    6  C   UNL     1      -9.817   9.386  71.184  1.00  0.00    -0.287 C  
HETATM    7  C   UNL     1     -10.616   8.301  71.938  1.00  0.00    -0.282 C  
HETATM    8  C   UNL     1     -10.299   9.634  69.732  1.00  0.00    -0.266 C  
BRANCH   7   9
HETATM    9  O   UNL     1     -12.023   8.575  72.018  1.00  0.00    -0.313 OA 
BRANCH   9  10
HETATM   10  C   UNL     1     -12.870   7.518  71.906  1.00  0.00    -0.277 C  
HETATM   11  O   UNL     1     -12.577   6.354  72.131  1.00  0.00    -0.268 OA 
HETATM   12  C   UNL     1     -14.247   7.981  71.529  1.00  0.00    -0.513 C  
ENDBRANCH   9  10
ENDBRANCH   7   9
BRANCH   8  13
HETATM   13  C   UNL     1     -11.735  10.149  69.628  1.00  0.00    -0.098 C  
BRANCH  13  14
HETATM   14  N   UNL     1     -11.819  11.588  69.518  1.00  0.00    -0.326 NA 
HETATM   15  C   UNL     1     -12.083  12.466  70.534  1.00  0.00    -0.275 A  
HETATM   16  N   UNL     1     -12.177  13.705  70.092  1.00  0.00    -0.345 NA 
HETATM   17  C   UNL     1     -12.004  13.607  68.731  1.00  0.00    -0.359 A  
HETATM   18  C   UNL     1     -12.019  14.536  67.700  1.00  0.00    -0.320 A  
HETATM   19  N   UNL     1     -11.847  14.115  66.419  1.00  0.00    -0.405 NA 
HETATM   20  C   UNL     1     -11.675  12.802  66.186  1.00  0.00    -0.403 A  
HETATM   21  N   UNL     1     -11.603  11.827  67.104  1.00  0.00    -0.544 NA 
HETATM   22  N   UNL     1     -11.532  12.429  64.864  1.00  0.00    -0.322 NA 
HETATM   23  H2  UNL     1     -10.771  12.958  64.438  1.00  0.00     0.000 HD 
HETATM   24  H1  UNL     1     -11.401  11.433  64.687  1.00  0.00     0.000 HD 
HETATM   25  C   UNL     1     -11.785  12.296  68.350  1.00  0.00    -0.337 A  
ENDBRANCH  13  14
ENDBRANCH   8  13
ENDBRANCH   4   5
ENDBRANCH   2   4
TORSDOF 6
ENDMDL
MODEL      123
REMARK 921   NORMALIZED FREE ENERGY PREDICTED BY IDOCK:   -4.74 KCAL/MOL
REMARK 922        TOTAL FREE ENERGY PREDICTED BY IDOCK:   -7.41 KCAL/MOL
REMARK 923 INTER-LIGAND FREE ENERGY PREDICTED BY IDOCK:   -6.54 KCAL/MOL
REMARK 924 INTRA-LIGAND FREE ENERGY PREDICTED BY IDOCK:   -0.86 KCAL/MOL
REMARK 927      BINDING AFFINITY PREDICTED BY RF-SCORE:    0.00 PKD
ROOT
HETATM    1  C   UNL     1     -10.316  19.565  66.781  1.00  0.00    -0.570 C  
HETATM    2  C   UNL     1      -9.145  18.676  66.488  1.00  0.00    -0.315 C  
HETATM    3  O   UNL     1      -8.135  19.042  65.904  1.00  0.00    -0.458 OA 
ENDROOT
BRANCH   2   4
HETATM    4  O   UNL     1      -9.386  17.412  66.931  1.00  0.00    -0.248 OA 
BRANCH   4   5
HETATM    5  C   UNL     1     -10.517  16.753  66.335  1.00  0.00    -0.269 C  
HETATM    6  C   UNL     1     -10.437  15.221  66.490  1.00  0.00    -0.299 C  
HETATM    7  C   UNL     1     -11.613  14.592  65.712  1.00  0.00    -0.328 C  
HETATM    8  C   UNL     1     -10.389  14.835  67.989  1.00  0.00    -0.237 C  
BRANCH   7   9
HETATM    9  O   UNL     1     -11.634  13.157  65.764  1.00  0.00    -0.322 OA 
BRANCH   9  10
HETATM   10  C   UNL     1     -12.102  12.502  64.668  1.00  0.00    -0.428 C  
HETATM   11  O   UNL     1     -13.265  12.180  64.484  1.00  0.00    -0.724 OA 
HETATM   12  C   UNL     1     -11.000  12.284  63.672  1.00  0.00    -0.532 C  
ENDBRANCH   9  10
ENDBRANCH   7   9
BRANCH   8  13
HETATM   13  C   UNL     1     -10.193  13.340  68.246  1.00  0.00    -0.250 C  
BRANCH  13  14
HETATM   14  N   UNL     1      -8.828  12.902  68.057  1.00  0.00    -0.188 NA 
HETATM   15  C   UNL     1      -7.711  13.458  68.617  1.00  0.00    -0.088 A  
HETATM   16  N   UNL     1      -6.610  12.880  68.179  1.00  0.00    -0.080 NA 
HETATM   17  C   UNL     1      -7.042  11.941  67.272  1.00  0.00    -0.143 A  
HETATM   18  C   UNL     1      -6.384  11.034  66.454  1.00  0.00    -0.133 A  
HETATM   19  N   UNL     1      -7.106  10.242  65.617  1.00  0.00    -0.132 NA 
HETATM   20  C   UNL     1      -8.445  10.367  65.602  1.00  0.00    -0.165 A  
HETATM   21  N   UNL     1      -9.184  11.177  66.374  1.00  0.00    -0.178 NA 
HETATM   22  N   UNL     1      -9.125   9.557  64.714  1.00  0.00    -0.281 NA 
HETATM   23  H2  UNL     1      -8.872   8.582  64.875  1.00  0.00     0.000 HD 
HETATM   24  H1  UNL     1     -10.140   9.652  64.702  1.00  0.00     0.000 HD 
HETATM   25  C   UNL     1      -8.422  11.940  67.176  1.00  0.00    -0.173 A  
ENDBRANCH  13  14
ENDBRANCH   8  13
ENDBRANCH   4   5
ENDBRANCH   2   4
TORSDOF 6
ENDMDL
MODEL      124
REMARK 921   NORMALIZED FREE ENERGY PREDICTED BY IDOCK:   -4.73 KCAL/MOL
REMARK 922        TOTAL FREE ENERGY PREDICTED BY IDOCK:   -7.40 KCAL/MOL
REMARK 923 INTER-LIGAND FREE ENERGY PREDICTED BY IDOCK:   -6.59 KCAL/MOL
REMARK 924 INTRA-LIGAND FREE ENERGY PREDICTED BY IDOCK:   -0.81 KCAL/MOL
REMARK 927      BINDING AFFINITY PREDICTED BY RF-SCORE:    0.00 PKD
ROOT
HETATM    1  C   UNL     1     -10.840  13.733  64.956  1.00  0.00    -0.377 C  
HETATM    2  C   UNL     1     -12.191  13.314  65.453  1.00  0.00    -0.456 C  
HETATM    3  O   UNL     1     -13.222  13.935  65.244  1.00  0.00    -0.774 OA 
ENDROOT
BRANCH   2   4
HETATM    4  O   UNL     1     -12.091  12.176  66.193  1.00  0.00    -0.621 OA 
BRANCH   4   5
HETATM    5  C   UNL     1     -12.023  12.366  67.616  1.00  0.00    -0.180 C  
HETATM    6  C   UNL     1     -11.459  11.125  68.336  1.00  0.00    -0.377 C  
HETATM    7  C   UNL     1     -11.544  11.366  69.859  1.00  0.00    -0.323 C  
HETATM    8  C   UNL     1     -10.031  10.809  67.822  1.00  0.00    -0.195 C  
BRANCH   7   9
HETATM    9  O   UNL     1     -11.064  10.262  70.643  1.00  0.00    -0.315 OA 
BRANCH   9  10
HETATM   10  C   UNL     1     -11.965   9.627  71.438  1.00  0.00    -0.399 C  
HETATM   11  O   UNL     1     -11.841   8.494  71.878  1.00  0.00    -0.296 OA 
HETATM   12  C   UNL     1     -13.116  10.534  71.764  1.00  0.00    -0.570 C  
ENDBRANCH   9  10
ENDBRANCH   7   9
BRANCH   8  13
HETATM   13  C   UNL     1      -9.429   9.525  68.394  1.00  0.00    -0.137 C  
BRANCH  13  14
HETATM   14  N   UNL     1      -8.506   8.875  67.491  1.00  0.00    -0.116 NA 
HETATM   15  C   UNL     1      -7.308   9.373  67.056  1.00  0.00    -0.087 A  
HETATM   16  N   UNL     1      -6.743   8.575  66.172  1.00  0.00    -0.067 NA 
HETATM   17  C   UNL     1      -7.639   7.544  66.006  1.00  0.00    -0.088 A  
HETATM   18  C   UNL     1      -7.650   6.412  65.203  1.00  0.00    -0.089 A  
HETATM   19  N   UNL     1      -8.723   5.578  65.238  1.00  0.00    -0.153 NA 
HETATM   20  C   UNL     1      -9.752   5.880  66.050  1.00  0.00     0.022 A  
HETATM   21  N   UNL     1      -9.830   6.919  66.894  1.00  0.00    -0.172 NA 
HETATM   22  N   UNL     1     -10.825   5.012  66.025  1.00  0.00    -0.688 NA 
HETATM   23  H2  UNL     1     -10.505   4.063  66.214  1.00  0.00     0.000 HD 
HETATM   24  H1  UNL     1     -11.606   5.241  66.641  1.00  0.00     0.000 HD 
HETATM   25  C   UNL     1      -8.748   7.713  66.814  1.00  0.00    -0.133 A  
ENDBRANCH  13  14
ENDBRANCH   8  13
ENDBRANCH   4   5
ENDBRANCH   2   4
TORSDOF 6
ENDMDL
MODEL      125
REMARK 921   NORMALIZED FREE ENERGY PREDICTED BY IDOCK:   -4.73 KCAL/MOL
REMARK 922        TOTAL FREE ENERGY PREDICTED BY IDOCK:   -7.39 KCAL/MOL
REMARK 923 INTER-LIGAND FREE ENERGY PREDICTED BY IDOCK:   -6.74 KCAL/MOL
REMARK 924 INTRA-LIGAND FREE ENERGY PREDICTED BY IDOCK:   -0.65 KCAL/MOL
REMARK 927      BINDING AFFINITY PREDICTED BY RF-SCORE:    0.00 PKD
ROOT
HETATM    1  C   UNL     1     -10.232   9.619  70.507  1.00  0.00    -0.351 C  
HETATM    2  C   UNL     1     -11.016  10.462  69.546  1.00  0.00    -0.262 C  
HETATM    3  O   UNL     1     -11.417  11.590  69.791  1.00  0.00    -0.286 OA 
ENDROOT
BRANCH   2   4
HETATM    4  O   UNL     1     -11.240   9.778  68.391  1.00  0.00    -0.152 OA 
BRANCH   4   5
HETATM    5  C   UNL     1     -10.064   9.297  67.717  1.00  0.00    -0.204 C  
HETATM    6  C   UNL     1     -10.073   9.657  66.217  1.00  0.00    -0.322 C  
HETATM    7  C   UNL     1      -8.848   8.993  65.551  1.00  0.00    -0.194 C  
HETATM    8  C   UNL     1     -10.139  11.194  66.035  1.00  0.00    -0.292 C  
BRANCH   7   9
HETATM    9  O   UNL     1      -8.759   9.239  64.139  1.00  0.00    -0.201 OA 
BRANCH   9  10
HETATM   10  C   UNL     1      -7.968   8.407  63.412  1.00  0.00    -0.160 C  
HETATM   11  O   UNL     1      -8.345   7.712  62.481  1.00  0.00    -0.123 OA 
HETATM   12  C   UNL     1      -6.540   8.504  63.865  1.00  0.00    -0.076 C  
ENDBRANCH   9  10
ENDBRANCH   7   9
BRANCH   8  13
HETATM   13  C   UNL     1     -10.268  11.648  64.580  1.00  0.00    -0.281 C  
BRANCH  13  14
HETATM   14  N   UNL     1     -11.050  12.854  64.425  1.00  0.00    -0.340 NA 
HETATM   15  C   UNL     1     -12.227  12.976  63.738  1.00  0.00    -0.460 A  
HETATM   16  N   UNL     1     -12.646  14.226  63.713  1.00  0.00    -0.782 NA 
HETATM   17  C   UNL     1     -11.674  14.937  64.377  1.00  0.00    -0.328 A  
HETATM   18  C   UNL     1     -11.508  16.284  64.665  1.00  0.00    -0.167 A  
HETATM   19  N   UNL     1     -10.393  16.694  65.325  1.00  0.00    -0.636 NA 
HETATM   20  C   UNL     1      -9.474  15.778  65.677  1.00  0.00    -0.217 A  
HETATM   21  N   UNL     1      -9.550  14.452  65.487  1.00  0.00    -0.164 NA 
HETATM   22  N   UNL     1      -8.351  16.255  66.322  1.00  0.00    -0.324 NA 
HETATM   23  H2  UNL     1      -8.627  16.796  67.141  1.00  0.00     0.000 HD 
HETATM   24  H1  UNL     1      -7.653  15.560  66.588  1.00  0.00     0.000 HD 
HETATM   25  C   UNL     1     -10.667  14.103  64.826  1.00  0.00    -0.419 A  
ENDBRANCH  13  14
ENDBRANCH   8  13
ENDBRANCH   4   5
ENDBRANCH   2   4
TORSDOF 6
ENDMDL
MODEL      126
REMARK 921   NORMALIZED FREE ENERGY PREDICTED BY IDOCK:   -4.72 KCAL/MOL
REMARK 922        TOTAL FREE ENERGY PREDICTED BY IDOCK:   -7.39 KCAL/MOL
REMARK 923 INTER-LIGAND FREE ENERGY PREDICTED BY IDOCK:   -7.06 KCAL/MOL
REMARK 924 INTRA-LIGAND FREE ENERGY PREDICTED BY IDOCK:   -0.33 KCAL/MOL
REMARK 927      BINDING AFFINITY PREDICTED BY RF-SCORE:    0.00 PKD
ROOT
HETATM    1  C   UNL     1      -5.814  14.739  69.815  1.00  0.00    -0.111 C  
HETATM    2  C   UNL     1      -6.668  14.530  68.601  1.00  0.00    -0.088 C  
HETATM    3  O   UNL     1      -6.275  14.669  67.452  1.00  0.00    -0.332 OA 
ENDROOT
BRANCH   2   4
HETATM    4  O   UNL     1      -7.938  14.203  68.966  1.00  0.00    -0.097 OA 
BRANCH   4   5
HETATM    5  C   UNL     1      -8.777  15.308  69.346  1.00  0.00    -0.216 C  
HETATM    6  C   UNL     1      -9.319  16.067  68.118  1.00  0.00    -0.200 C  
HETATM    7  C   UNL     1     -10.095  17.306  68.617  1.00  0.00    -0.341 C  
HETATM    8  C   UNL     1     -10.152  15.115  67.224  1.00  0.00    -0.235 C  
BRANCH   7   9
HETATM    9  O   UNL     1     -10.634  18.111  67.557  1.00  0.00    -0.402 OA 
BRANCH   9  10
HETATM   10  C   UNL     1      -9.841  19.098  67.061  1.00  0.00    -0.336 C  
HETATM   11  O   UNL     1      -9.804  19.451  65.893  1.00  0.00    -0.411 OA 
HETATM   12  C   UNL     1      -9.056  19.750  68.163  1.00  0.00    -0.385 C  
ENDBRANCH   9  10
ENDBRANCH   7   9
BRANCH   8  13
HETATM   13  C   UNL     1     -10.640  15.746  65.919  1.00  0.00    -0.339 C  
BRANCH  13  14
HETATM   14  N   UNL     1     -11.191  14.785  64.990  1.00  0.00    -0.375 NA 
HETATM   15  C   UNL     1     -12.326  14.937  64.243  1.00  0.00    -0.277 A  
HETATM   16  N   UNL     1     -12.606  13.845  63.558  1.00  0.00    -0.805 NA 
HETATM   17  C   UNL     1     -11.628  12.946  63.916  1.00  0.00    -0.453 A  
HETATM   18  C   UNL     1     -11.378  11.625  63.572  1.00  0.00    -0.354 A  
HETATM   19  N   UNL     1     -10.324  10.976  64.134  1.00  0.00    -0.349 NA 
HETATM   20  C   UNL     1      -9.554  11.636  65.018  1.00  0.00    -0.164 A  
HETATM   21  N   UNL     1      -9.679  12.918  65.391  1.00  0.00    -0.103 NA 
HETATM   22  N   UNL     1      -8.514  10.919  65.577  1.00  0.00    -0.283 NA 
HETATM   23  H2  UNL     1      -7.931  10.526  64.838  1.00  0.00     0.000 HD 
HETATM   24  H1  UNL     1      -7.931  11.419  66.248  1.00  0.00     0.000 HD 
HETATM   25  C   UNL     1     -10.738  13.509  64.811  1.00  0.00    -0.401 A  
ENDBRANCH  13  14
ENDBRANCH   8  13
ENDBRANCH   4   5
ENDBRANCH   2   4
TORSDOF 6
ENDMDL
MODEL      127
REMARK 921   NORMALIZED FREE ENERGY PREDICTED BY IDOCK:   -4.71 KCAL/MOL
REMARK 922        TOTAL FREE ENERGY PREDICTED BY IDOCK:   -7.36 KCAL/MOL
REMARK 923 INTER-LIGAND FREE ENERGY PREDICTED BY IDOCK:   -6.56 KCAL/MOL
REMARK 924 INTRA-LIGAND FREE ENERGY PREDICTED BY IDOCK:   -0.80 KCAL/MOL
REMARK 927      BINDING AFFINITY PREDICTED BY RF-SCORE:    0.00 PKD
ROOT
HETATM    1  C   UNL     1     -12.679   7.488  71.900  1.00  0.00    -0.318 C  
HETATM    2  C   UNL     1     -13.038   8.924  72.140  1.00  0.00    -0.421 C  
HETATM    3  O   UNL     1     -14.115   9.298  72.580  1.00  0.00    -0.477 OA 
ENDROOT
BRANCH   2   4
HETATM    4  O   UNL     1     -12.014   9.738  71.764  1.00  0.00    -0.392 OA 
BRANCH   4   5
HETATM    5  C   UNL     1     -12.312  10.655  70.697  1.00  0.00    -0.369 C  
HETATM    6  C   UNL     1     -11.276  10.570  69.559  1.00  0.00    -0.329 C  
HETATM    7  C   UNL     1     -11.596  11.673  68.527  1.00  0.00    -0.317 C  
HETATM    8  C   UNL     1     -11.246   9.138  68.968  1.00  0.00     0.181 C  
BRANCH   7   9
HETATM    9  O   UNL     1     -10.681  11.709  67.421  1.00  0.00    -0.214 OA 
BRANCH   9  10
HETATM   10  C   UNL     1     -11.185  12.055  66.207  1.00  0.00    -0.342 C  
HETATM   11  O   UNL     1     -12.370  12.193  65.950  1.00  0.00    -0.561 OA 
HETATM   12  C   UNL     1     -10.076  12.315  65.228  1.00  0.00    -0.295 C  
ENDBRANCH   9  10
ENDBRANCH   7   9
BRANCH   8  13
HETATM   13  C   UNL     1     -10.167   8.920  67.906  1.00  0.00    -0.222 C  
BRANCH  13  14
HETATM   14  N   UNL     1      -9.411   7.703  68.100  1.00  0.00    -0.144 NA 
HETATM   15  C   UNL     1      -8.259   7.570  68.826  1.00  0.00    -0.129 A  
HETATM   16  N   UNL     1      -7.769   6.349  68.738  1.00  0.00    -0.099 NA 
HETATM   17  C   UNL     1      -8.624   5.687  67.888  1.00  0.00    -0.101 A  
HETATM   18  C   UNL     1      -8.647   4.399  67.373  1.00  0.00    -0.104 A  
HETATM   19  N   UNL     1      -9.630   4.043  66.504  1.00  0.00    -0.201 NA 
HETATM   20  C   UNL     1     -10.553   4.959  66.160  1.00  0.00    -0.271 A  
HETATM   21  N   UNL     1     -10.650   6.214  66.624  1.00  0.00    -0.248 NA 
HETATM   22  N   UNL     1     -11.511   4.551  65.254  1.00  0.00    -1.068 NA 
HETATM   23  H2  UNL     1     -11.973   3.709  65.597  1.00  0.00     0.000 HD 
HETATM   24  H1  UNL     1     -12.211   5.245  64.993  1.00  0.00     0.000 HD 
HETATM   25  C   UNL     1      -9.653   6.513  67.474  1.00  0.00    -0.124 A  
ENDBRANCH  13  14
ENDBRANCH   8  13
ENDBRANCH   4   5
ENDBRANCH   2   4
TORSDOF 6
ENDMDL
MODEL      128
REMARK 921   NORMALIZED FREE ENERGY PREDICTED BY IDOCK:   -4.70 KCAL/MOL
REMARK 922        TOTAL FREE ENERGY PREDICTED BY IDOCK:   -7.36 KCAL/MOL
REMARK 923 INTER-LIGAND FREE ENERGY PREDICTED BY IDOCK:   -6.05 KCAL/MOL
REMARK 924 INTRA-LIGAND FREE ENERGY PREDICTED BY IDOCK:   -1.31 KCAL/MOL
REMARK 927      BINDING AFFINITY PREDICTED BY RF-SCORE:    0.00 PKD
ROOT
HETATM    1  C   UNL     1      -7.464  16.596  68.992  1.00  0.00    -0.232 C  
HETATM    2  C   UNL     1      -6.923  15.258  68.587  1.00  0.00    -0.110 C  
HETATM    3  O   UNL     1      -6.123  14.612  69.248  1.00  0.00    -0.099 OA 
ENDROOT
BRANCH   2   4
HETATM    4  O   UNL     1      -7.421  14.893  67.374  1.00  0.00    -0.184 OA 
BRANCH   4   5
HETATM    5  C   UNL     1      -7.876  13.532  67.276  1.00  0.00    -0.091 C  
HETATM    6  C   UNL     1      -9.256  13.338  67.936  1.00  0.00    -0.213 C  
HETATM    7  C   UNL     1      -9.604  11.834  67.902  1.00  0.00    -0.187 C  
HETATM    8  C   UNL     1     -10.309  14.249  67.257  1.00  0.00    -0.260 C  
BRANCH   7   9
HETATM    9  O   UNL     1     -10.866  11.522  68.511  1.00  0.00    -0.191 OA 
BRANCH   9  10
HETATM   10  C   UNL     1     -10.910  10.438  69.330  1.00  0.00    -0.241 C  
HETATM   11  O   UNL     1     -11.716  10.267  70.230  1.00  0.00    -0.268 OA 
HETATM   12  C   UNL     1      -9.865   9.434  68.934  1.00  0.00    -0.176 C  
ENDBRANCH   9  10
ENDBRANCH   7   9
BRANCH   8  13
HETATM   13  C   UNL     1     -11.688  14.214  67.916  1.00  0.00    -0.367 C  
BRANCH  13  14
HETATM   14  N   UNL     1     -11.748  14.957  69.155  1.00  0.00    -0.295 NA 
HETATM   15  C   UNL     1     -11.223  16.199  69.383  1.00  0.00    -0.335 A  
HETATM   16  N   UNL     1     -11.373  16.565  70.641  1.00  0.00    -0.203 NA 
HETATM   17  C   UNL     1     -11.985  15.493  71.249  1.00  0.00    -0.388 A  
HETATM   18  C   UNL     1     -12.384  15.239  72.553  1.00  0.00    -0.369 A  
HETATM   19  N   UNL     1     -12.945  14.039  72.858  1.00  0.00    -0.420 NA 
HETATM   20  C   UNL     1     -13.091  13.125  71.882  1.00  0.00    -0.385 A  
HETATM   21  N   UNL     1     -12.780  13.278  70.587  1.00  0.00    -0.210 NA 
HETATM   22  N   UNL     1     -13.642  11.915  72.255  1.00  0.00    -0.492 NA 
HETATM   23  H2  UNL     1     -14.538  12.073  72.716  1.00  0.00     0.000 HD 
HETATM   24  H1  UNL     1     -13.753  11.222  71.515  1.00  0.00     0.000 HD 
HETATM   25  C   UNL     1     -12.224  14.477  70.342  1.00  0.00    -0.329 A  
ENDBRANCH  13  14
ENDBRANCH   8  13
ENDBRANCH   4   5
ENDBRANCH   2   4
TORSDOF 6
ENDMDL
MODEL      129
REMARK 921   NORMALIZED FREE ENERGY PREDICTED BY IDOCK:   -4.70 KCAL/MOL
REMARK 922        TOTAL FREE ENERGY PREDICTED BY IDOCK:   -7.36 KCAL/MOL
REMARK 923 INTER-LIGAND FREE ENERGY PREDICTED BY IDOCK:   -6.48 KCAL/MOL
REMARK 924 INTRA-LIGAND FREE ENERGY PREDICTED BY IDOCK:   -0.88 KCAL/MOL
REMARK 927      BINDING AFFINITY PREDICTED BY RF-SCORE:    0.00 PKD
ROOT
HETATM    1  C   UNL     1     -13.061  14.056  72.416  1.00  0.00    -0.536 C  
HETATM    2  C   UNL     1     -12.678  14.152  70.970  1.00  0.00    -0.362 C  
HETATM    3  O   UNL     1     -12.329  13.200  70.288  1.00  0.00    -0.310 OA 
ENDROOT
BRANCH   2   4
HETATM    4  O   UNL     1     -12.741  15.444  70.548  1.00  0.00    -0.410 OA 
BRANCH   4   5
HETATM    5  C   UNL     1     -11.487  16.148  70.516  1.00  0.00    -0.343 C  
HETATM    6  C   UNL     1     -10.624  15.730  69.308  1.00  0.00    -0.244 C  
HETATM    7  C   UNL     1      -9.253  16.431  69.427  1.00  0.00    -0.066 C  
HETATM    8  C   UNL     1     -11.375  16.025  67.985  1.00  0.00    -0.266 C  
BRANCH   7   9
HETATM    9  O   UNL     1      -8.346  16.102  68.363  1.00  0.00    -0.166 OA 
BRANCH   9  10
HETATM   10  C   UNL     1      -7.297  16.941  68.158  1.00  0.00    -0.179 C  
HETATM   11  O   UNL     1      -6.246  16.635  67.618  1.00  0.00    -0.126 OA 
HETATM   12  C   UNL     1      -7.628  18.327  68.630  1.00  0.00    -0.311 C  
ENDBRANCH   9  10
ENDBRANCH   7   9
BRANCH   8  13
HETATM   13  C   UNL     1     -10.647  15.540  66.731  1.00  0.00    -0.307 C  
BRANCH  13  14
HETATM   14  N   UNL     1     -11.108  14.251  66.265  1.00  0.00    -0.317 NA 
HETATM   15  C   UNL     1     -12.373  13.943  65.849  1.00  0.00    -0.483 A  
HETATM   16  N   UNL     1     -12.492  12.660  65.567  1.00  0.00    -0.648 NA 
HETATM   17  C   UNL     1     -11.259  12.121  65.854  1.00  0.00    -0.339 A  
HETATM   18  C   UNL     1     -10.747  10.833  65.799  1.00  0.00    -0.070 A  
HETATM   19  N   UNL     1      -9.466  10.605  66.192  1.00  0.00    -0.173 NA 
HETATM   20  C   UNL     1      -8.730  11.642  66.632  1.00  0.00    -0.187 A  
HETATM   21  N   UNL     1      -9.107  12.927  66.688  1.00  0.00    -0.210 NA 
HETATM   22  N   UNL     1      -7.445  11.348  67.042  1.00  0.00    -0.140 NA 
HETATM   23  H2  UNL     1      -6.947  10.864  66.295  1.00  0.00     0.000 HD 
HETATM   24  H1  UNL     1      -6.886  12.133  67.376  1.00  0.00     0.000 HD 
HETATM   25  C   UNL     1     -10.382  13.094  66.295  1.00  0.00    -0.287 A  
ENDBRANCH  13  14
ENDBRANCH   8  13
ENDBRANCH   4   5
ENDBRANCH   2   4
TORSDOF 6
ENDMDL
MODEL      130
REMARK 921   NORMALIZED FREE ENERGY PREDICTED BY IDOCK:   -4.67 KCAL/MOL
REMARK 922        TOTAL FREE ENERGY PREDICTED BY IDOCK:   -7.32 KCAL/MOL
REMARK 923 INTER-LIGAND FREE ENERGY PREDICTED BY IDOCK:   -6.90 KCAL/MOL
REMARK 924 INTRA-LIGAND FREE ENERGY PREDICTED BY IDOCK:   -0.42 KCAL/MOL
REMARK 927      BINDING AFFINITY PREDICTED BY RF-SCORE:    0.00 PKD
ROOT
HETATM    1  C   UNL     1     -13.243  10.478  71.331  1.00  0.00    -0.441 C  
HETATM    2  C   UNL     1     -13.067  11.951  71.548  1.00  0.00    -0.275 C  
HETATM    3  O   UNL     1     -13.652  12.593  72.408  1.00  0.00    -0.550 OA 
ENDROOT
BRANCH   2   4
HETATM    4  O   UNL     1     -12.201  12.464  70.633  1.00  0.00    -0.368 OA 
BRANCH   4   5
HETATM    5  C   UNL     1     -12.365  13.863  70.341  1.00  0.00    -0.363 C  
HETATM    6  C   UNL     1     -11.593  14.280  69.073  1.00  0.00    -0.342 C  
HETATM    7  C   UNL     1     -11.716  15.812  68.912  1.00  0.00    -0.394 C  
HETATM    8  C   UNL     1     -12.092  13.471  67.850  1.00  0.00    -0.304 C  
BRANCH   7   9
HETATM    9  O   UNL     1     -11.015  16.327  67.769  1.00  0.00    -0.330 OA 
BRANCH   9  10
HETATM   10  C   UNL     1      -9.799  16.892  67.989  1.00  0.00    -0.264 C  
HETATM   11  O   UNL     1      -8.738  16.290  68.027  1.00  0.00    -0.174 OA 
HETATM   12  C   UNL     1      -9.925  18.384  68.115  1.00  0.00    -0.388 C  
ENDBRANCH   9  10
ENDBRANCH   7   9
BRANCH   8  13
HETATM   13  C   UNL     1     -11.309  13.732  66.563  1.00  0.00    -0.325 C  
BRANCH  13  14
HETATM   14  N   UNL     1     -10.881  12.521  65.899  1.00  0.00    -0.263 NA 
HETATM   15  C   UNL     1     -10.992  12.244  64.565  1.00  0.00    -0.315 A  
HETATM   16  N   UNL     1     -10.587  11.020  64.288  1.00  0.00    -0.362 NA 
HETATM   17  C   UNL     1     -10.240  10.480  65.505  1.00  0.00    -0.256 A  
HETATM   18  C   UNL     1      -9.772   9.234  65.895  1.00  0.00    -0.285 A  
HETATM   19  N   UNL     1      -9.550   8.986  67.213  1.00  0.00    -0.152 NA 
HETATM   20  C   UNL     1      -9.798   9.960  68.106  1.00  0.00    -0.147 A  
HETATM   21  N   UNL     1     -10.211  11.208  67.839  1.00  0.00    -0.176 NA 
HETATM   22  N   UNL     1      -9.579   9.644  69.432  1.00  0.00    -0.179 NA 
HETATM   23  H2  UNL     1      -8.626   9.302  69.552  1.00  0.00     0.000 HD 
HETATM   24  H1  UNL     1      -9.767  10.382  70.110  1.00  0.00     0.000 HD 
HETATM   25  C   UNL     1     -10.421  11.396  66.525  1.00  0.00    -0.249 A  
ENDBRANCH  13  14
ENDBRANCH   8  13
ENDBRANCH   4   5
ENDBRANCH   2   4
TORSDOF 6
ENDMDL
MODEL      131
REMARK 921   NORMALIZED FREE ENERGY PREDICTED BY IDOCK:   -4.66 KCAL/MOL
REMARK 922        TOTAL FREE ENERGY PREDICTED BY IDOCK:   -7.30 KCAL/MOL
REMARK 923 INTER-LIGAND FREE ENERGY PREDICTED BY IDOCK:   -6.44 KCAL/MOL
REMARK 924 INTRA-LIGAND FREE ENERGY PREDICTED BY IDOCK:   -0.86 KCAL/MOL
REMARK 927      BINDING AFFINITY PREDICTED BY RF-SCORE:    0.00 PKD
ROOT
HETATM    1  C   UNL     1     -12.567  11.868  63.117  1.00  0.00    -0.329 C  
HETATM    2  C   UNL     1     -12.437  13.141  63.898  1.00  0.00    -0.278 C  
HETATM    3  O   UNL     1     -12.716  14.247  63.459  1.00  0.00    -0.767 OA 
ENDROOT
BRANCH   2   4
HETATM    4  O   UNL     1     -11.934  12.888  65.137  1.00  0.00    -0.362 OA 
BRANCH   4   5
HETATM    5  C   UNL     1     -12.288  13.841  66.155  1.00  0.00    -0.452 C  
HETATM    6  C   UNL     1     -11.493  13.613  67.456  1.00  0.00    -0.360 C  
HETATM    7  C   UNL     1     -12.028  14.587  68.528  1.00  0.00    -0.286 C  
HETATM    8  C   UNL     1      -9.973  13.738  67.186  1.00  0.00    -0.243 C  
BRANCH   7   9
HETATM    9  O   UNL     1     -11.375  14.455  69.801  1.00  0.00    -0.249 OA 
BRANCH   9  10
HETATM   10  C   UNL     1     -11.261  15.576  70.560  1.00  0.00    -0.342 C  
HETATM   11  O   UNL     1     -11.050  16.700  70.131  1.00  0.00    -0.310 OA 
HETATM   12  C   UNL     1     -11.498  15.261  72.009  1.00  0.00    -0.500 C  
ENDBRANCH   9  10
ENDBRANCH   7   9
BRANCH   8  13
HETATM   13  C   UNL     1      -9.092  13.416  68.393  1.00  0.00    -0.142 C  
BRANCH  13  14
HETATM   14  N   UNL     1      -8.592  12.060  68.390  1.00  0.00    -0.167 NA 
HETATM   15  C   UNL     1      -7.453  11.615  67.777  1.00  0.00    -0.111 A  
HETATM   16  N   UNL     1      -7.320  10.309  67.889  1.00  0.00    -0.086 NA 
HETATM   17  C   UNL     1      -8.443   9.897  68.569  1.00  0.00    -0.112 A  
HETATM   18  C   UNL     1      -8.910   8.655  68.972  1.00  0.00    -0.138 A  
HETATM   19  N   UNL     1     -10.106   8.566  69.612  1.00  0.00    -0.197 NA 
HETATM   20  C   UNL     1     -10.809   9.692  69.831  1.00  0.00    -0.256 A  
HETATM   21  N   UNL     1     -10.437  10.943  69.522  1.00  0.00    -0.185 NA 
HETATM   22  N   UNL     1     -12.027   9.539  70.462  1.00  0.00    -0.437 NA 
HETATM   23  H2  UNL     1     -11.900   9.036  71.340  1.00  0.00     0.000 HD 
HETATM   24  H1  UNL     1     -12.561  10.392  70.627  1.00  0.00     0.000 HD 
HETATM   25  C   UNL     1      -9.253  10.972  68.887  1.00  0.00    -0.129 A  
ENDBRANCH  13  14
ENDBRANCH   8  13
ENDBRANCH   4   5
ENDBRANCH   2   4
TORSDOF 6
ENDMDL
MODEL      132
REMARK 921   NORMALIZED FREE ENERGY PREDICTED BY IDOCK:   -4.65 KCAL/MOL
REMARK 922        TOTAL FREE ENERGY PREDICTED BY IDOCK:   -7.29 KCAL/MOL
REMARK 923 INTER-LIGAND FREE ENERGY PREDICTED BY IDOCK:   -6.37 KCAL/MOL
REMARK 924 INTRA-LIGAND FREE ENERGY PREDICTED BY IDOCK:   -0.92 KCAL/MOL
REMARK 927      BINDING AFFINITY PREDICTED BY RF-SCORE:    0.00 PKD
ROOT
HETATM    1  C   UNL     1      -8.068   7.457  66.118  1.00  0.00    -0.117 C  
HETATM    2  C   UNL     1      -9.280   7.649  66.979  1.00  0.00    -0.138 C  
HETATM    3  O   UNL     1     -10.348   7.083  66.796  1.00  0.00    -0.245 OA 
ENDROOT
BRANCH   2   4
HETATM    4  O   UNL     1      -9.028   8.562  67.957  1.00  0.00    -0.140 OA 
BRANCH   4   5
HETATM    5  C   UNL     1     -10.008   8.631  69.006  1.00  0.00    -0.192 C  
HETATM    6  C   UNL     1     -10.570  10.058  69.174  1.00  0.00    -0.240 C  
HETATM    7  C   UNL     1     -11.509  10.068  70.400  1.00  0.00    -0.314 C  
HETATM    8  C   UNL     1     -11.238  10.529  67.858  1.00  0.00    -0.358 C  
BRANCH   7   9
HETATM    9  O   UNL     1     -12.082  11.356  70.673  1.00  0.00    -0.361 OA 
BRANCH   9  10
HETATM   10  C   UNL     1     -13.028  11.422  71.647  1.00  0.00    -0.418 C  
HETATM   11  O   UNL     1     -13.551  10.460  72.187  1.00  0.00    -0.324 OA 
HETATM   12  C   UNL     1     -13.301  12.850  72.024  1.00  0.00    -0.579 C  
ENDBRANCH   9  10
ENDBRANCH   7   9
BRANCH   8  13
HETATM   13  C   UNL     1     -11.727  11.978  67.887  1.00  0.00    -0.323 C  
BRANCH  13  14
HETATM   14  N   UNL     1     -10.666  12.943  67.703  1.00  0.00    -0.221 NA 
HETATM   15  C   UNL     1      -9.580  12.809  66.882  1.00  0.00    -0.235 A  
HETATM   16  N   UNL     1      -8.752  13.828  67.003  1.00  0.00    -0.221 NA 
HETATM   17  C   UNL     1      -9.315  14.625  67.973  1.00  0.00    -0.198 A  
HETATM   18  C   UNL     1      -8.926  15.815  68.571  1.00  0.00    -0.194 A  
HETATM   19  N   UNL     1      -9.698  16.354  69.551  1.00  0.00    -0.149 NA 
HETATM   20  C   UNL     1     -10.820  15.711  69.920  1.00  0.00    -0.318 A  
HETATM   21  N   UNL     1     -11.310  14.583  69.385  1.00  0.00    -0.266 NA 
HETATM   22  N   UNL     1     -11.551  16.290  70.937  1.00  0.00    -0.571 NA 
HETATM   23  H2  UNL     1     -11.772  17.256  70.696  1.00  0.00     0.000 HD 
HETATM   24  H1  UNL     1     -12.402  15.802  71.218  1.00  0.00     0.000 HD 
HETATM   25  C   UNL     1     -10.506  14.091  68.427  1.00  0.00    -0.253 A  
ENDBRANCH  13  14
ENDBRANCH   8  13
ENDBRANCH   4   5
ENDBRANCH   2   4
TORSDOF 6
ENDMDL
MODEL      133
REMARK 921   NORMALIZED FREE ENERGY PREDICTED BY IDOCK:   -4.65 KCAL/MOL
REMARK 922        TOTAL FREE ENERGY PREDICTED BY IDOCK:   -7.29 KCAL/MOL
REMARK 923 INTER-LIGAND FREE ENERGY PREDICTED BY IDOCK:   -6.97 KCAL/MOL
REMARK 924 INTRA-LIGAND FREE ENERGY PREDICTED BY IDOCK:   -0.32 KCAL/MOL
REMARK 927      BINDING AFFINITY PREDICTED BY RF-SCORE:    0.00 PKD
ROOT
HETATM    1  C   UNL     1     -11.972  16.173  72.193  1.00  0.00    -0.623 C  
HETATM    2  C   UNL     1     -13.328  15.753  72.676  1.00  0.00    -0.523 C  
HETATM    3  O   UNL     1     -13.927  16.293  73.594  1.00  0.00    -0.337 OA 
ENDROOT
BRANCH   2   4
HETATM    4  O   UNL     1     -13.768  14.674  71.973  1.00  0.00    -0.357 OA 
BRANCH   4   5
HETATM    5  C   UNL     1     -13.465  13.392  72.551  1.00  0.00    -0.536 C  
HETATM    6  C   UNL     1     -13.261  12.309  71.473  1.00  0.00    -0.268 C  
HETATM    7  C   UNL     1     -13.072  10.949  72.181  1.00  0.00    -0.220 C  
HETATM    8  C   UNL     1     -12.094  12.701  70.532  1.00  0.00    -0.360 C  
BRANCH   7   9
HETATM    9  O   UNL     1     -12.893   9.850  71.274  1.00  0.00    -0.339 OA 
BRANCH   9  10
HETATM   10  C   UNL     1     -11.942   8.932  71.590  1.00  0.00    -0.345 C  
HETATM   11  O   UNL     1     -11.819   8.391  72.678  1.00  0.00    -0.393 OA 
HETATM   12  C   UNL     1     -11.092   8.617  70.393  1.00  0.00    -0.250 C  
ENDBRANCH   9  10
ENDBRANCH   7   9
BRANCH   8  13
HETATM   13  C   UNL     1     -11.886  11.744  69.358  1.00  0.00    -0.334 C  
BRANCH  13  14
HETATM   14  N   UNL     1     -10.636  11.955  68.663  1.00  0.00    -0.230 NA 
HETATM   15  C   UNL     1      -9.676  11.013  68.415  1.00  0.00    -0.180 A  
HETATM   16  N   UNL     1      -8.617  11.541  67.835  1.00  0.00    -0.137 NA 
HETATM   17  C   UNL     1      -8.897  12.885  67.746  1.00  0.00    -0.188 A  
HETATM   18  C   UNL     1      -8.187  13.976  67.267  1.00  0.00    -0.171 A  
HETATM   19  N   UNL     1      -8.733  15.218  67.351  1.00  0.00    -0.170 NA 
HETATM   20  C   UNL     1      -9.951  15.354  67.906  1.00  0.00    -0.221 A  
HETATM   21  N   UNL     1     -10.739  14.370  68.362  1.00  0.00    -0.239 NA 
HETATM   22  N   UNL     1     -10.445  16.641  67.989  1.00  0.00    -0.306 NA 
HETATM   23  H2  UNL     1     -10.437  17.073  67.065  1.00  0.00     0.000 HD 
HETATM   24  H1  UNL     1     -11.368  16.745  68.410  1.00  0.00     0.000 HD 
HETATM   25  C   UNL     1     -10.149  13.167  68.261  1.00  0.00    -0.247 A  
ENDBRANCH  13  14
ENDBRANCH   8  13
ENDBRANCH   4   5
ENDBRANCH   2   4
TORSDOF 6
ENDMDL
MODEL      134
REMARK 921   NORMALIZED FREE ENERGY PREDICTED BY IDOCK:   -4.64 KCAL/MOL
REMARK 922        TOTAL FREE ENERGY PREDICTED BY IDOCK:   -7.28 KCAL/MOL
REMARK 923 INTER-LIGAND FREE ENERGY PREDICTED BY IDOCK:   -7.10 KCAL/MOL
REMARK 924 INTRA-LIGAND FREE ENERGY PREDICTED BY IDOCK:   -0.18 KCAL/MOL
REMARK 927      BINDING AFFINITY PREDICTED BY RF-SCORE:    0.00 PKD
ROOT
HETATM    1  C   UNL     1     -10.859  13.861  64.908  1.00  0.00    -0.413 C  
HETATM    2  C   UNL     1     -12.214  13.557  65.472  1.00  0.00    -0.451 C  
HETATM    3  O   UNL     1     -13.179  14.300  65.378  1.00  0.00    -0.688 OA 
ENDROOT
BRANCH   2   4
HETATM    4  O   UNL     1     -12.199  12.362  66.124  1.00  0.00    -0.635 OA 
BRANCH   4   5
HETATM    5  C   UNL     1     -11.873  12.426  67.524  1.00  0.00    -0.284 C  
HETATM    6  C   UNL     1     -11.361  11.072  68.056  1.00  0.00    -0.374 C  
HETATM    7  C   UNL     1     -11.164  11.195  69.583  1.00  0.00    -0.264 C  
HETATM    8  C   UNL     1     -10.090  10.638  67.285  1.00  0.00    -0.238 C  
BRANCH   7   9
HETATM    9  O   UNL     1     -10.706   9.982  70.202  1.00  0.00    -0.268 OA 
BRANCH   9  10
HETATM   10  C   UNL     1     -11.392   9.542  71.289  1.00  0.00    -0.376 C  
HETATM   11  O   UNL     1     -10.990   8.710  72.087  1.00  0.00    -0.341 OA 
HETATM   12  C   UNL     1     -12.699  10.271  71.420  1.00  0.00    -0.547 C  
ENDBRANCH   9  10
ENDBRANCH   7   9
BRANCH   8  13
HETATM   13  C   UNL     1      -9.570   9.251  67.663  1.00  0.00    -0.142 C  
BRANCH  13  14
HETATM   14  N   UNL     1      -8.755   8.645  66.633  1.00  0.00    -0.119 NA 
HETATM   15  C   UNL     1      -7.706   7.790  66.826  1.00  0.00    -0.099 A  
HETATM   16  N   UNL     1      -7.116   7.482  65.687  1.00  0.00    -0.060 NA 
HETATM   17  C   UNL     1      -7.794   8.203  64.733  1.00  0.00    -0.137 A  
HETATM   18  C   UNL     1      -7.648   8.339  63.360  1.00  0.00    -0.131 A  
HETATM   19  N   UNL     1      -8.474   9.178  62.680  1.00  0.00    -0.198 NA 
HETATM   20  C   UNL     1      -9.410   9.861  63.363  1.00  0.00    -0.177 A  
HETATM   21  N   UNL     1      -9.665   9.776  64.677  1.00  0.00    -0.201 NA 
HETATM   22  N   UNL     1     -10.203  10.717  62.625  1.00  0.00    -0.774 NA 
HETATM   23  H2  UNL     1     -10.640  10.207  61.858  1.00  0.00     0.000 HD 
HETATM   24  H1  UNL     1     -10.912  11.236  63.143  1.00  0.00     0.000 HD 
HETATM   25  C   UNL     1      -8.818   8.940  65.300  1.00  0.00    -0.184 A  
ENDBRANCH  13  14
ENDBRANCH   8  13
ENDBRANCH   4   5
ENDBRANCH   2   4
TORSDOF 6
ENDMDL
MODEL      135
REMARK 921   NORMALIZED FREE ENERGY PREDICTED BY IDOCK:   -4.64 KCAL/MOL
REMARK 922        TOTAL FREE ENERGY PREDICTED BY IDOCK:   -7.27 KCAL/MOL
REMARK 923 INTER-LIGAND FREE ENERGY PREDICTED BY IDOCK:   -6.33 KCAL/MOL
REMARK 924 INTRA-LIGAND FREE ENERGY PREDICTED BY IDOCK:   -0.94 KCAL/MOL
REMARK 927      BINDING AFFINITY PREDICTED BY RF-SCORE:    0.00 PKD
ROOT
HETATM    1  C   UNL     1      -5.456  12.295  68.586  1.00  0.00    -0.053 C  
HETATM    2  C   UNL     1      -6.786  12.065  67.935  1.00  0.00    -0.087 C  
HETATM    3  O   UNL     1      -6.998  11.207  67.091  1.00  0.00    -0.095 OA 
ENDROOT
BRANCH   2   4
HETATM    4  O   UNL     1      -7.700  12.964  68.392  1.00  0.00    -0.126 OA 
BRANCH   4   5
HETATM    5  C   UNL     1      -7.297  14.343  68.326  1.00  0.00    -0.122 C  
HETATM    6  C   UNL     1      -7.920  15.066  67.114  1.00  0.00    -0.238 C  
HETATM    7  C   UNL     1      -7.333  16.493  67.046  1.00  0.00    -0.210 C  
HETATM    8  C   UNL     1      -9.466  15.018  67.197  1.00  0.00    -0.223 C  
BRANCH   7   9
HETATM    9  O   UNL     1      -7.824  17.263  65.938  1.00  0.00    -0.505 OA 
BRANCH   9  10
HETATM   10  C   UNL     1      -7.858  18.614  66.086  1.00  0.00    -0.218 C  
HETATM   11  O   UNL     1      -7.290  19.416  65.363  1.00  0.00    -0.432 OA 
HETATM   12  C   UNL     1      -8.751  18.998  67.231  1.00  0.00    -0.298 C  
ENDBRANCH   9  10
ENDBRANCH   7   9
BRANCH   8  13
HETATM   13  C   UNL     1     -10.178  15.610  65.980  1.00  0.00    -0.335 C  
BRANCH  13  14
HETATM   14  N   UNL     1     -11.237  14.767  65.471  1.00  0.00    -0.337 NA 
HETATM   15  C   UNL     1     -12.555  14.812  65.832  1.00  0.00     0.169 A  
HETATM   16  N   UNL     1     -13.250  13.855  65.250  1.00  0.00    -0.721 NA 
HETATM   17  C   UNL     1     -12.327  13.145  64.517  1.00  0.00    -0.385 A  
HETATM   18  C   UNL     1     -12.414  12.018  63.712  1.00  0.00    -0.485 A  
HETATM   19  N   UNL     1     -11.288  11.521  63.136  1.00  0.00    -0.117 NA 
HETATM   20  C   UNL     1     -10.114  12.136  63.369  1.00  0.00    -0.351 A  
HETATM   21  N   UNL     1      -9.922  13.249  64.093  1.00  0.00    -0.175 NA 
HETATM   22  N   UNL     1      -9.001  11.572  62.779  1.00  0.00    -0.603 NA 
HETATM   23  H2  UNL     1      -9.150  11.486  61.774  1.00  0.00     0.000 HD 
HETATM   24  H1  UNL     1      -8.111  12.038  62.956  1.00  0.00     0.000 HD 
HETATM   25  C   UNL     1     -11.064  13.693  64.644  1.00  0.00    -0.381 A  
ENDBRANCH  13  14
ENDBRANCH   8  13
ENDBRANCH   4   5
ENDBRANCH   2   4
TORSDOF 6
ENDMDL
MODEL      136
REMARK 921   NORMALIZED FREE ENERGY PREDICTED BY IDOCK:   -4.63 KCAL/MOL
REMARK 922        TOTAL FREE ENERGY PREDICTED BY IDOCK:   -7.26 KCAL/MOL
REMARK 923 INTER-LIGAND FREE ENERGY PREDICTED BY IDOCK:   -6.55 KCAL/MOL
REMARK 924 INTRA-LIGAND FREE ENERGY PREDICTED BY IDOCK:   -0.70 KCAL/MOL
REMARK 927      BINDING AFFINITY PREDICTED BY RF-SCORE:    0.00 PKD
ROOT
HETATM    1  C   UNL     1     -10.123  19.303  68.112  1.00  0.00    -0.507 C  
HETATM    2  C   UNL     1     -10.156  18.473  66.863  1.00  0.00    -0.370 C  
HETATM    3  O   UNL     1      -9.739  18.850  65.778  1.00  0.00    -0.437 OA 
ENDROOT
BRANCH   2   4
HETATM    4  O   UNL     1     -10.743  17.270  67.109  1.00  0.00    -0.288 OA 
BRANCH   4   5
HETATM    5  C   UNL     1     -11.000  16.978  68.493  1.00  0.00    -0.247 C  
HETATM    6  C   UNL     1     -11.575  15.560  68.684  1.00  0.00    -0.379 C  
HETATM    7  C   UNL     1     -11.943  15.381  70.174  1.00  0.00    -0.349 C  
HETATM    8  C   UNL     1     -10.581  14.501  68.145  1.00  0.00    -0.238 C  
BRANCH   7   9
HETATM    9  O   UNL     1     -12.512  14.098  70.475  1.00  0.00    -0.326 OA 
BRANCH   9  10
HETATM   10  C   UNL     1     -13.418  14.042  71.486  1.00  0.00    -0.328 C  
HETATM   11  O   UNL     1     -13.409  13.228  72.396  1.00  0.00    -0.525 OA 
HETATM   12  C   UNL     1     -14.406  15.167  71.375  1.00  0.00    -0.601 C  
ENDBRANCH   9  10
ENDBRANCH   7   9
BRANCH   8  13
HETATM   13  C   UNL     1     -11.110  13.067  68.185  1.00  0.00    -0.256 C  
BRANCH  13  14
HETATM   14  N   UNL     1     -10.625  12.248  67.096  1.00  0.00    -0.222 NA 
HETATM   15  C   UNL     1     -11.314  11.909  65.965  1.00  0.00    -0.316 A  
HETATM   16  N   UNL     1     -10.624  11.081  65.206  1.00  0.00    -0.248 NA 
HETATM   17  C   UNL     1      -9.461  10.851  65.904  1.00  0.00    -0.207 A  
HETATM   18  C   UNL     1      -8.347  10.060  65.663  1.00  0.00    -0.145 A  
HETATM   19  N   UNL     1      -7.348  10.014  66.584  1.00  0.00    -0.101 NA 
HETATM   20  C   UNL     1      -7.473  10.736  67.712  1.00  0.00    -0.094 A  
HETATM   21  N   UNL     1      -8.481  11.562  68.028  1.00  0.00    -0.141 NA 
HETATM   22  N   UNL     1      -6.441  10.631  68.622  1.00  0.00    -0.050 NA 
HETATM   23  H2  UNL     1      -5.556  10.854  68.167  1.00  0.00     0.000 HD 
HETATM   24  H1  UNL     1      -6.535  11.178  69.478  1.00  0.00     0.000 HD 
HETATM   25  C   UNL     1      -9.442  11.564  67.088  1.00  0.00    -0.177 A  
ENDBRANCH  13  14
ENDBRANCH   8  13
ENDBRANCH   4   5
ENDBRANCH   2   4
TORSDOF 6
ENDMDL
MODEL      137
REMARK 921   NORMALIZED FREE ENERGY PREDICTED BY IDOCK:   -4.63 KCAL/MOL
REMARK 922        TOTAL FREE ENERGY PREDICTED BY IDOCK:   -7.26 KCAL/MOL
REMARK 923 INTER-LIGAND FREE ENERGY PREDICTED BY IDOCK:   -6.91 KCAL/MOL
REMARK 924 INTRA-LIGAND FREE ENERGY PREDICTED BY IDOCK:   -0.35 KCAL/MOL
REMARK 927      BINDING AFFINITY PREDICTED BY RF-SCORE:    0.00 PKD
ROOT
HETATM    1  C   UNL     1     -10.705  19.102  66.134  1.00  0.00    -0.442 C  
HETATM    2  C   UNL     1      -9.570  18.316  66.719  1.00  0.00    -0.299 C  
HETATM    3  O   UNL     1      -8.458  18.775  66.938  1.00  0.00    -0.263 OA 
ENDROOT
BRANCH   2   4
HETATM    4  O   UNL     1      -9.946  17.026  66.931  1.00  0.00    -0.269 OA 
BRANCH   4   5
HETATM    5  C   UNL     1     -10.336  16.293  65.757  1.00  0.00    -0.374 C  
HETATM    6  C   UNL     1     -10.468  14.783  66.038  1.00  0.00    -0.312 C  
HETATM    7  C   UNL     1     -10.758  14.064  64.703  1.00  0.00    -0.399 C  
HETATM    8  C   UNL     1     -11.531  14.533  67.137  1.00  0.00    -0.383 C  
BRANCH   7   9
HETATM    9  O   UNL     1     -10.881  12.639  64.833  1.00  0.00    -0.280 OA 
BRANCH   9  10
HETATM   10  C   UNL     1     -11.171  11.935  63.707  1.00  0.00    -0.440 C  
HETATM   11  O   UNL     1     -10.390  11.216  63.105  1.00  0.00    -0.343 OA 
HETATM   12  C   UNL     1     -12.616  12.105  63.335  1.00  0.00    -0.584 C  
ENDBRANCH   9  10
ENDBRANCH   7   9
BRANCH   8  13
HETATM   13  C   UNL     1     -11.654  13.071  67.570  1.00  0.00    -0.356 C  
BRANCH  13  14
HETATM   14  N   UNL     1     -10.397  12.490  67.986  1.00  0.00    -0.216 NA 
HETATM   15  C   UNL     1      -9.256  13.170  68.311  1.00  0.00    -0.194 A  
HETATM   16  N   UNL     1      -8.258  12.348  68.567  1.00  0.00    -0.127 NA 
HETATM   17  C   UNL     1      -8.774  11.091  68.356  1.00  0.00    -0.150 A  
HETATM   18  C   UNL     1      -8.234   9.815  68.427  1.00  0.00    -0.105 A  
HETATM   19  N   UNL     1      -9.009   8.742  68.117  1.00  0.00    -0.141 NA 
HETATM   20  C   UNL     1     -10.284   8.951  67.742  1.00  0.00    -0.228 A  
HETATM   21  N   UNL     1     -10.918  10.130  67.679  1.00  0.00    -0.297 NA 
HETATM   22  N   UNL     1     -11.016   7.827  67.415  1.00  0.00    -0.531 NA 
HETATM   23  H2  UNL     1     -10.989   7.161  68.187  1.00  0.00     0.000 HD 
HETATM   24  H1  UNL     1     -11.983   7.985  67.130  1.00  0.00     0.000 HD 
HETATM   25  C   UNL     1     -10.106  11.155  67.988  1.00  0.00    -0.174 A  
ENDBRANCH  13  14
ENDBRANCH   8  13
ENDBRANCH   4   5
ENDBRANCH   2   4
TORSDOF 6
ENDMDL
MODEL      138
REMARK 921   NORMALIZED FREE ENERGY PREDICTED BY IDOCK:   -4.62 KCAL/MOL
REMARK 922        TOTAL FREE ENERGY PREDICTED BY IDOCK:   -7.25 KCAL/MOL
REMARK 923 INTER-LIGAND FREE ENERGY PREDICTED BY IDOCK:   -6.60 KCAL/MOL
REMARK 924 INTRA-LIGAND FREE ENERGY PREDICTED BY IDOCK:   -0.66 KCAL/MOL
REMARK 927      BINDING AFFINITY PREDICTED BY RF-SCORE:    0.00 PKD
ROOT
HETATM    1  C   UNL     1      -5.237  11.687  67.029  1.00  0.00    -0.112 C  
HETATM    2  C   UNL     1      -6.690  11.404  66.788  1.00  0.00    -0.137 C  
HETATM    3  O   UNL     1      -7.106  10.621  65.947  1.00  0.00    -0.133 OA 
ENDROOT
BRANCH   2   4
HETATM    4  O   UNL     1      -7.463  12.167  67.608  1.00  0.00    -0.109 OA 
BRANCH   4   5
HETATM    5  C   UNL     1      -7.385  13.586  67.390  1.00  0.00    -0.109 C  
HETATM    6  C   UNL     1      -8.775  14.208  67.148  1.00  0.00    -0.239 C  
HETATM    7  C   UNL     1      -8.584  15.700  66.795  1.00  0.00    -0.274 C  
HETATM    8  C   UNL     1      -9.694  13.958  68.370  1.00  0.00    -0.226 C  
BRANCH   7   9
HETATM    9  O   UNL     1      -9.816  16.388  66.525  1.00  0.00    -0.246 OA 
BRANCH   9  10
HETATM   10  C   UNL     1      -9.836  17.730  66.733  1.00  0.00    -0.320 C  
HETATM   11  O   UNL     1     -10.764  18.353  67.225  1.00  0.00    -0.411 OA 
HETATM   12  C   UNL     1      -8.525  18.347  66.337  1.00  0.00    -0.264 C  
ENDBRANCH   9  10
ENDBRANCH   7   9
BRANCH   8  13
HETATM   13  C   UNL     1     -11.133  14.439  68.181  1.00  0.00    -0.264 C  
BRANCH  13  14
HETATM   14  N   UNL     1     -11.897  14.456  69.408  1.00  0.00    -0.306 NA 
HETATM   15  C   UNL     1     -12.223  15.559  70.147  1.00  0.00    -0.376 A  
HETATM   16  N   UNL     1     -12.853  15.231  71.258  1.00  0.00    -0.388 NA 
HETATM   17  C   UNL     1     -12.894  13.856  71.246  1.00  0.00    -0.360 A  
HETATM   18  C   UNL     1     -13.389  12.910  72.132  1.00  0.00    -0.515 A  
HETATM   19  N   UNL     1     -13.244  11.589  71.849  1.00  0.00    -0.456 NA 
HETATM   20  C   UNL     1     -12.614  11.234  70.715  1.00  0.00    -0.332 A  
HETATM   21  N   UNL     1     -12.135  12.059  69.772  1.00  0.00    -0.278 NA 
HETATM   22  N   UNL     1     -12.473   9.879  70.492  1.00  0.00    -0.489 NA 
HETATM   23  H2  UNL     1     -13.385   9.426  70.536  1.00  0.00     0.000 HD 
HETATM   24  H1  UNL     1     -11.995   9.610  69.632  1.00  0.00     0.000 HD 
HETATM   25  C   UNL     1     -12.299  13.351  70.104  1.00  0.00    -0.252 A  
ENDBRANCH  13  14
ENDBRANCH   8  13
ENDBRANCH   4   5
ENDBRANCH   2   4
TORSDOF 6
ENDMDL
MODEL      139
REMARK 921   NORMALIZED FREE ENERGY PREDICTED BY IDOCK:   -4.62 KCAL/MOL
REMARK 922        TOTAL FREE ENERGY PREDICTED BY IDOCK:   -7.24 KCAL/MOL
REMARK 923 INTER-LIGAND FREE ENERGY PREDICTED BY IDOCK:   -6.49 KCAL/MOL
REMARK 924 INTRA-LIGAND FREE ENERGY PREDICTED BY IDOCK:   -0.75 KCAL/MOL
REMARK 927      BINDING AFFINITY PREDICTED BY RF-SCORE:    0.00 PKD
ROOT
HETATM    1  C   UNL     1      -5.849   8.741  69.550  1.00  0.00    -0.033 C  
HETATM    2  C   UNL     1      -7.264   8.824  69.061  1.00  0.00    -0.072 C  
HETATM    3  O   UNL     1      -7.995   7.856  68.910  1.00  0.00    -0.118 OA 
ENDROOT
BRANCH   2   4
HETATM    4  O   UNL     1      -7.593  10.114  68.778  1.00  0.00    -0.081 OA 
BRANCH   4   5
HETATM    5  C   UNL     1      -7.997  10.367  67.421  1.00  0.00    -0.107 C  
HETATM    6  C   UNL     1      -9.459  10.853  67.338  1.00  0.00    -0.170 C  
HETATM    7  C   UNL     1      -9.847  10.971  65.848  1.00  0.00    -0.232 C  
HETATM    8  C   UNL     1      -9.635  12.163  68.146  1.00  0.00    -0.208 C  
BRANCH   7   9
HETATM    9  O   UNL     1     -11.202  11.398  65.640  1.00  0.00    -0.205 OA 
BRANCH   9  10
HETATM   10  C   UNL     1     -11.495  11.976  64.445  1.00  0.00    -0.343 C  
HETATM   11  O   UNL     1     -12.592  12.399  64.117  1.00  0.00    -0.575 OA 
HETATM   12  C   UNL     1     -10.261  12.089  63.596  1.00  0.00    -0.470 C  
ENDBRANCH   9  10
ENDBRANCH   7   9
BRANCH   8  13
HETATM   13  C   UNL     1     -11.078  12.665  68.219  1.00  0.00    -0.261 C  
BRANCH  13  14
HETATM   14  N   UNL     1     -11.768  12.247  69.419  1.00  0.00    -0.316 NA 
HETATM   15  C   UNL     1     -12.231  10.990  69.694  1.00  0.00    -0.300 A  
HETATM   16  N   UNL     1     -12.891  10.954  70.834  1.00  0.00    -0.344 NA 
HETATM   17  C   UNL     1     -12.883  12.253  71.286  1.00  0.00    -0.239 A  
HETATM   18  C   UNL     1     -13.424  12.877  72.401  1.00  0.00    -0.471 A  
HETATM   19  N   UNL     1     -13.272  14.219  72.556  1.00  0.00    -0.454 NA 
HETATM   20  C   UNL     1     -12.602  14.908  71.615  1.00  0.00    -0.329 A  
HETATM   21  N   UNL     1     -12.005  14.405  70.525  1.00  0.00    -0.306 NA 
HETATM   22  N   UNL     1     -12.500  16.271  71.811  1.00  0.00    -0.546 NA 
HETATM   23  H2  UNL     1     -12.095  16.457  72.729  1.00  0.00     0.000 HD 
HETATM   24  H1  UNL     1     -11.993  16.794  71.098  1.00  0.00     0.000 HD 
HETATM   25  C   UNL     1     -12.192  13.078  70.417  1.00  0.00    -0.310 A  
ENDBRANCH  13  14
ENDBRANCH   8  13
ENDBRANCH   4   5
ENDBRANCH   2   4
TORSDOF 6
ENDMDL
MODEL      140
REMARK 921   NORMALIZED FREE ENERGY PREDICTED BY IDOCK:   -4.61 KCAL/MOL
REMARK 922        TOTAL FREE ENERGY PREDICTED BY IDOCK:   -7.23 KCAL/MOL
REMARK 923 INTER-LIGAND FREE ENERGY PREDICTED BY IDOCK:   -6.23 KCAL/MOL
REMARK 924 INTRA-LIGAND FREE ENERGY PREDICTED BY IDOCK:   -1.00 KCAL/MOL
REMARK 927      BINDING AFFINITY PREDICTED BY RF-SCORE:    0.00 PKD
ROOT
HETATM    1  C   UNL     1     -10.821  14.969  65.105  1.00  0.00    -0.422 C  
HETATM    2  C   UNL     1     -11.567  14.782  66.392  1.00  0.00    -0.299 C  
HETATM    3  O   UNL     1     -11.402  15.472  67.387  1.00  0.00    -0.302 OA 
ENDROOT
BRANCH   2   4
HETATM    4  O   UNL     1     -12.415  13.722  66.298  1.00  0.00    -0.438 OA 
BRANCH   4   5
HETATM    5  C   UNL     1     -11.789  12.445  66.084  1.00  0.00    -0.376 C  
HETATM    6  C   UNL     1     -10.962  11.998  67.306  1.00  0.00    -0.313 C  
HETATM    7  C   UNL     1     -10.224  10.691  66.942  1.00  0.00    -0.223 C  
HETATM    8  C   UNL     1     -11.871  11.885  68.556  1.00  0.00    -0.357 C  
BRANCH   7   9
HETATM    9  O   UNL     1      -9.398  10.183  68.001  1.00  0.00    -0.140 OA 
BRANCH   9  10
HETATM   10  C   UNL     1      -8.127  10.658  68.080  1.00  0.00    -0.114 C  
HETATM   11  O   UNL     1      -7.573  11.020  69.106  1.00  0.00    -0.125 OA 
HETATM   12  C   UNL     1      -7.462  10.616  66.734  1.00  0.00    -0.120 C  
ENDBRANCH   9  10
ENDBRANCH   7   9
BRANCH   8  13
HETATM   13  C   UNL     1     -11.122  11.558  69.849  1.00  0.00    -0.004 C  
BRANCH  13  14
HETATM   14  N   UNL     1     -11.703  10.455  70.582  1.00  0.00    -0.326 NA 
HETATM   15  C   UNL     1     -13.037  10.202  70.746  1.00  0.00    -0.280 A  
HETATM   16  N   UNL     1     -13.240   9.168  71.539  1.00  0.00    -0.352 NA 
HETATM   17  C   UNL     1     -11.982   8.770  71.928  1.00  0.00    -0.365 A  
HETATM   18  C   UNL     1     -11.517   7.770  72.770  1.00  0.00    -0.359 A  
HETATM   19  N   UNL     1     -10.181   7.646  72.987  1.00  0.00    -0.291 NA 
HETATM   20  C   UNL     1      -9.344   8.507  72.381  1.00  0.00    -0.278 A  
HETATM   21  N   UNL     1      -9.678   9.479  71.520  1.00  0.00    -0.114 NA 
HETATM   22  N   UNL     1      -8.000   8.350  72.658  1.00  0.00    -0.290 NA 
HETATM   23  H2  UNL     1      -7.716   7.392  72.455  1.00  0.00     0.000 HD 
HETATM   24  H1  UNL     1      -7.365   9.003  72.200  1.00  0.00     0.000 HD 
HETATM   25  C   UNL     1     -11.008   9.561  71.347  1.00  0.00    -0.345 A  
ENDBRANCH  13  14
ENDBRANCH   8  13
ENDBRANCH   4   5
ENDBRANCH   2   4
TORSDOF 6
ENDMDL
MODEL      141
REMARK 921   NORMALIZED FREE ENERGY PREDICTED BY IDOCK:   -4.61 KCAL/MOL
REMARK 922        TOTAL FREE ENERGY PREDICTED BY IDOCK:   -7.23 KCAL/MOL
REMARK 923 INTER-LIGAND FREE ENERGY PREDICTED BY IDOCK:   -6.58 KCAL/MOL
REMARK 924 INTRA-LIGAND FREE ENERGY PREDICTED BY IDOCK:   -0.65 KCAL/MOL
REMARK 927      BINDING AFFINITY PREDICTED BY RF-SCORE:    0.00 PKD
ROOT
HETATM    1  C   UNL     1     -10.005   8.153  67.871  1.00  0.00    -0.225 C  
HETATM    2  C   UNL     1     -10.180   9.228  68.901  1.00  0.00    -0.202 C  
HETATM    3  O   UNL     1      -9.938   9.084  70.090  1.00  0.00    -0.173 OA 
ENDROOT
BRANCH   2   4
HETATM    4  O   UNL     1     -10.675  10.358  68.327  1.00  0.00    -0.203 OA 
BRANCH   4   5
HETATM    5  C   UNL     1     -11.863  10.892  68.937  1.00  0.00    -0.270 C  
HETATM    6  C   UNL     1     -11.581  12.211  69.686  1.00  0.00    -0.361 C  
HETATM    7  C   UNL     1     -12.873  12.640  70.416  1.00  0.00     0.233 C  
HETATM    8  C   UNL     1     -11.021  13.274  68.709  1.00  0.00    -0.294 C  
BRANCH   7   9
HETATM    9  O   UNL     1     -12.730  13.852  71.172  1.00  0.00    -0.334 OA 
BRANCH   9  10
HETATM   10  C   UNL     1     -13.663  14.103  72.128  1.00  0.00    -0.493 C  
HETATM   11  O   UNL     1     -14.366  13.261  72.663  1.00  0.00    -0.679 OA 
HETATM   12  C   UNL     1     -13.669  15.559  72.492  1.00  0.00    -0.668 C  
ENDBRANCH   9  10
ENDBRANCH   7   9
BRANCH   8  13
HETATM   13  C   UNL     1     -10.602  14.583  69.379  1.00  0.00    -0.157 C  
BRANCH  13  14
HETATM   14  N   UNL     1      -9.419  15.172  68.793  1.00  0.00    -0.201 NA 
HETATM   15  C   UNL     1      -8.159  15.161  69.324  1.00  0.00    -0.217 A  
HETATM   16  N   UNL     1      -7.316  15.858  68.587  1.00  0.00    -0.134 NA 
HETATM   17  C   UNL     1      -8.081  16.368  67.564  1.00  0.00    -0.148 A  
HETATM   18  C   UNL     1      -7.801  17.196  66.487  1.00  0.00    -0.290 A  
HETATM   19  N   UNL     1      -8.804  17.563  65.647  1.00  0.00    -0.251 NA 
HETATM   20  C   UNL     1     -10.049  17.115  65.890  1.00  0.00    -0.240 A  
HETATM   21  N   UNL     1     -10.425  16.283  66.872  1.00  0.00    -0.309 NA 
HETATM   22  N   UNL     1     -11.033  17.540  65.020  1.00  0.00    -0.749 NA 
HETATM   23  H2  UNL     1     -10.767  17.314  64.062  1.00  0.00     0.000 HD 
HETATM   24  H1  UNL     1     -11.977  17.202  65.204  1.00  0.00     0.000 HD 
HETATM   25  C   UNL     1      -9.397  15.958  67.675  1.00  0.00    -0.217 A  
ENDBRANCH  13  14
ENDBRANCH   8  13
ENDBRANCH   4   5
ENDBRANCH   2   4
TORSDOF 6
ENDMDL
MODEL      142
REMARK 921   NORMALIZED FREE ENERGY PREDICTED BY IDOCK:   -4.60 KCAL/MOL
REMARK 922        TOTAL FREE ENERGY PREDICTED BY IDOCK:   -7.22 KCAL/MOL
REMARK 923 INTER-LIGAND FREE ENERGY PREDICTED BY IDOCK:   -6.41 KCAL/MOL
REMARK 924 INTRA-LIGAND FREE ENERGY PREDICTED BY IDOCK:   -0.81 KCAL/MOL
REMARK 927      BINDING AFFINITY PREDICTED BY RF-SCORE:    0.00 PKD
ROOT
HETATM    1  C   UNL     1     -10.469  15.494  68.988  1.00  0.00    -0.231 C  
HETATM    2  C   UNL     1     -10.866  15.379  67.547  1.00  0.00    -0.305 C  
HETATM    3  O   UNL     1     -10.251  15.891  66.623  1.00  0.00    -0.271 OA 
ENDROOT
BRANCH   2   4
HETATM    4  O   UNL     1     -12.016  14.661  67.428  1.00  0.00    -0.384 OA 
BRANCH   4   5
HETATM    5  C   UNL     1     -12.029  13.684  66.373  1.00  0.00    -0.426 C  
HETATM    6  C   UNL     1     -11.206  12.432  66.738  1.00  0.00    -0.363 C  
HETATM    7  C   UNL     1     -11.165  11.501  65.506  1.00  0.00    -0.138 C  
HETATM    8  C   UNL     1     -11.777  11.769  68.016  1.00  0.00    -0.363 C  
BRANCH   7   9
HETATM    9  O   UNL     1     -10.403  10.302  65.718  1.00  0.00    -0.239 OA 
BRANCH   9  10
HETATM   10  C   UNL     1      -9.548   9.927  64.731  1.00  0.00    -0.271 C  
HETATM   11  O   UNL     1      -9.696  10.164  63.542  1.00  0.00    -0.273 OA 
HETATM   12  C   UNL     1      -8.346   9.234  65.307  1.00  0.00    -0.151 C  
ENDBRANCH   9  10
ENDBRANCH   7   9
BRANCH   8  13
HETATM   13  C   UNL     1     -10.959  10.582  68.526  1.00  0.00    -0.252 C  
BRANCH  13  14
HETATM   14  N   UNL     1     -11.482  10.009  69.746  1.00  0.00    -0.217 NA 
HETATM   15  C   UNL     1     -12.013  10.695  70.804  1.00  0.00    -0.374 A  
HETATM   16  N   UNL     1     -12.323   9.887  71.799  1.00  0.00    -0.390 NA 
HETATM   17  C   UNL     1     -11.936   8.638  71.372  1.00  0.00    -0.304 A  
HETATM   18  C   UNL     1     -11.965   7.381  71.959  1.00  0.00    -0.297 A  
HETATM   19  N   UNL     1     -11.463   6.315  71.279  1.00  0.00    -0.303 NA 
HETATM   20  C   UNL     1     -10.945   6.513  70.054  1.00  0.00    -0.332 A  
HETATM   21  N   UNL     1     -10.903   7.671  69.378  1.00  0.00    -0.178 NA 
HETATM   22  N   UNL     1     -10.428   5.401  69.422  1.00  0.00    -0.274 NA 
HETATM   23  H2  UNL     1     -11.135   4.667  69.382  1.00  0.00     0.000 HD 
HETATM   24  H1  UNL     1     -10.034   5.550  68.493  1.00  0.00     0.000 HD 
HETATM   25  C   UNL     1     -11.405   8.690  70.097  1.00  0.00    -0.078 A  
ENDBRANCH  13  14
ENDBRANCH   8  13
ENDBRANCH   4   5
ENDBRANCH   2   4
TORSDOF 6
ENDMDL
MODEL      143
REMARK 921   NORMALIZED FREE ENERGY PREDICTED BY IDOCK:   -4.58 KCAL/MOL
REMARK 922        TOTAL FREE ENERGY PREDICTED BY IDOCK:   -7.19 KCAL/MOL
REMARK 923 INTER-LIGAND FREE ENERGY PREDICTED BY IDOCK:   -6.39 KCAL/MOL
REMARK 924 INTRA-LIGAND FREE ENERGY PREDICTED BY IDOCK:   -0.80 KCAL/MOL
REMARK 927      BINDING AFFINITY PREDICTED BY RF-SCORE:    0.00 PKD
ROOT
HETATM    1  C   UNL     1     -10.369   8.069  66.885  1.00  0.00    -0.408 C  
HETATM    2  C   UNL     1      -9.285   9.104  66.902  1.00  0.00    -0.148 C  
HETATM    3  O   UNL     1      -8.318   9.073  67.649  1.00  0.00    -0.115 OA 
ENDROOT
BRANCH   2   4
HETATM    4  O   UNL     1      -9.554  10.087  66.000  1.00  0.00    -0.191 OA 
BRANCH   4   5
HETATM    5  C   UNL     1     -10.750  10.846  66.248  1.00  0.00    -0.176 C  
HETATM    6  C   UNL     1     -10.532  11.926  67.327  1.00  0.00    -0.248 C  
HETATM    7  C   UNL     1     -11.890  12.597  67.623  1.00  0.00    -0.329 C  
HETATM    8  C   UNL     1      -9.420  12.910  66.884  1.00  0.00    -0.237 C  
BRANCH   7   9
HETATM    9  O   UNL     1     -11.820  13.614  68.635  1.00  0.00    -0.337 OA 
BRANCH   9  10
HETATM   10  C   UNL     1     -12.143  13.251  69.904  1.00  0.00    -0.308 C  
HETATM   11  O   UNL     1     -11.987  12.138  70.380  1.00  0.00    -0.343 OA 
HETATM   12  C   UNL     1     -12.662  14.430  70.676  1.00  0.00    -0.421 C  
ENDBRANCH   9  10
ENDBRANCH   7   9
BRANCH   8  13
HETATM   13  C   UNL     1      -9.049  13.953  67.938  1.00  0.00    -0.194 C  
BRANCH  13  14
HETATM   14  N   UNL     1      -8.031  14.878  67.494  1.00  0.00    -0.163 NA 
HETATM   15  C   UNL     1      -6.683  14.758  67.689  1.00  0.00    -0.176 A  
HETATM   16  N   UNL     1      -6.031  15.811  67.236  1.00  0.00    -0.333 NA 
HETATM   17  C   UNL     1      -7.010  16.656  66.768  1.00  0.00    -0.229 A  
HETATM   18  C   UNL     1      -6.984  17.922  66.201  1.00  0.00    -0.301 A  
HETATM   19  N   UNL     1      -8.153  18.529  65.865  1.00  0.00    -0.496 NA 
HETATM   20  C   UNL     1      -9.309  17.883  66.100  1.00  0.00    -0.132 A  
HETATM   21  N   UNL     1      -9.450  16.647  66.603  1.00  0.00    -0.240 NA 
HETATM   22  N   UNL     1     -10.466  18.557  65.762  1.00  0.00    -0.628 NA 
HETATM   23  H2  UNL     1     -10.424  18.844  64.785  1.00  0.00     0.000 HD 
HETATM   24  H1  UNL     1     -11.343  18.067  65.941  1.00  0.00     0.000 HD 
HETATM   25  C   UNL     1      -8.266  16.098  66.923  1.00  0.00    -0.238 A  
ENDBRANCH  13  14
ENDBRANCH   8  13
ENDBRANCH   4   5
ENDBRANCH   2   4
TORSDOF 6
ENDMDL
MODEL      144
REMARK 921   NORMALIZED FREE ENERGY PREDICTED BY IDOCK:   -4.57 KCAL/MOL
REMARK 922        TOTAL FREE ENERGY PREDICTED BY IDOCK:   -7.19 KCAL/MOL
REMARK 923 INTER-LIGAND FREE ENERGY PREDICTED BY IDOCK:   -6.56 KCAL/MOL
REMARK 924 INTRA-LIGAND FREE ENERGY PREDICTED BY IDOCK:   -0.62 KCAL/MOL
REMARK 927      BINDING AFFINITY PREDICTED BY RF-SCORE:    0.00 PKD
ROOT
HETATM    1  C   UNL     1     -10.100   4.145  64.805  1.00  0.00    -0.204 C  
HETATM    2  C   UNL     1      -9.768   4.245  66.264  1.00  0.00    -0.213 C  
HETATM    3  O   UNL     1      -9.600   3.282  66.997  1.00  0.00    -0.173 OA 
ENDROOT
BRANCH   2   4
HETATM    4  O   UNL     1      -9.719   5.549  66.650  1.00  0.00    -0.141 OA 
BRANCH   4   5
HETATM    5  C   UNL     1     -10.520   5.886  67.796  1.00  0.00    -0.238 C  
HETATM    6  C   UNL     1     -10.310   7.349  68.235  1.00  0.00    -0.231 C  
HETATM    7  C   UNL     1     -11.101   7.583  69.541  1.00  0.00    -0.046 C  
HETATM    8  C   UNL     1     -10.687   8.314  67.083  1.00  0.00    -0.240 C  
BRANCH   7   9
HETATM    9  O   UNL     1     -10.966   8.913  70.063  1.00  0.00    -0.236 OA 
BRANCH   9  10
HETATM   10  C   UNL     1     -11.552   9.173  71.262  1.00  0.00    -0.331 C  
HETATM   11  O   UNL     1     -11.159   8.761  72.342  1.00  0.00    -0.327 OA 
HETATM   12  C   UNL     1     -12.721  10.099  71.090  1.00  0.00    -0.494 C  
ENDBRANCH   9  10
ENDBRANCH   7   9
BRANCH   8  13
HETATM   13  C   UNL     1     -10.405   9.787  67.381  1.00  0.00    -0.240 C  
BRANCH  13  14
HETATM   14  N   UNL     1     -10.456  10.628  66.206  1.00  0.00    -0.230 NA 
HETATM   15  C   UNL     1      -9.929  10.339  64.977  1.00  0.00    -0.323 A  
HETATM   16  N   UNL     1     -10.070  11.348  64.140  1.00  0.00    -0.281 NA 
HETATM   17  C   UNL     1     -10.677  12.337  64.879  1.00  0.00    -0.297 A  
HETATM   18  C   UNL     1     -11.066  13.637  64.592  1.00  0.00    -0.381 A  
HETATM   19  N   UNL     1     -11.624  14.399  65.570  1.00  0.00    -0.341 NA 
HETATM   20  C   UNL     1     -11.778  13.869  66.797  1.00  0.00    -0.399 A  
HETATM   21  N   UNL     1     -11.476  12.617  67.173  1.00  0.00    -0.325 NA 
HETATM   22  N   UNL     1     -12.326  14.696  67.756  1.00  0.00    -0.566 NA 
HETATM   23  H2  UNL     1     -13.218  15.063  67.426  1.00  0.00     0.000 HD 
HETATM   24  H1  UNL     1     -12.442  14.294  68.687  1.00  0.00     0.000 HD 
HETATM   25  C   UNL     1     -10.923  11.911  66.172  1.00  0.00    -0.308 A  
ENDBRANCH  13  14
ENDBRANCH   8  13
ENDBRANCH   4   5
ENDBRANCH   2   4
TORSDOF 6
ENDMDL
MODEL      145
REMARK 921   NORMALIZED FREE ENERGY PREDICTED BY IDOCK:   -4.57 KCAL/MOL
REMARK 922        TOTAL FREE ENERGY PREDICTED BY IDOCK:   -7.18 KCAL/MOL
REMARK 923 INTER-LIGAND FREE ENERGY PREDICTED BY IDOCK:   -6.47 KCAL/MOL
REMARK 924 INTRA-LIGAND FREE ENERGY PREDICTED BY IDOCK:   -0.72 KCAL/MOL
REMARK 927      BINDING AFFINITY PREDICTED BY RF-SCORE:    0.00 PKD
ROOT
HETATM    1  C   UNL     1     -13.176  15.501  73.165  1.00  0.00    -0.657 C  
HETATM    2  C   UNL     1     -13.110  14.108  72.613  1.00  0.00    -0.472 C  
HETATM    3  O   UNL     1     -13.905  13.222  72.888  1.00  0.00    -0.584 OA 
ENDROOT
BRANCH   2   4
HETATM    4  O   UNL     1     -12.026  13.972  71.801  1.00  0.00    -0.113 OA 
BRANCH   4   5
HETATM    5  C   UNL     1     -12.245  14.291  70.416  1.00  0.00    -0.342 C  
HETATM    6  C   UNL     1     -11.571  13.269  69.478  1.00  0.00    -0.349 C  
HETATM    7  C   UNL     1     -11.744  13.759  68.023  1.00  0.00    -0.355 C  
HETATM    8  C   UNL     1     -12.132  11.849  69.740  1.00  0.00    -0.321 C  
BRANCH   7   9
HETATM    9  O   UNL     1     -11.136  12.896  67.050  1.00  0.00    -0.260 OA 
BRANCH   9  10
HETATM   10  C   UNL     1     -10.155  13.428  66.275  1.00  0.00    -0.299 C  
HETATM   11  O   UNL     1      -9.337  14.257  66.643  1.00  0.00    -0.268 OA 
HETATM   12  C   UNL     1     -10.164  12.806  64.908  1.00  0.00    -0.294 C  
ENDBRANCH   9  10
ENDBRANCH   7   9
BRANCH   8  13
HETATM   13  C   UNL     1     -11.444  10.745  68.936  1.00  0.00    -0.293 C  
BRANCH  13  14
HETATM   14  N   UNL     1     -11.096   9.590  69.732  1.00  0.00    -0.221 NA 
HETATM   15  C   UNL     1     -11.473   9.351  71.025  1.00  0.00    -0.334 A  
HETATM   16  N   UNL     1     -10.922   8.250  71.496  1.00  0.00    -0.243 NA 
HETATM   17  C   UNL     1     -10.129   7.788  70.471  1.00  0.00    -0.192 A  
HETATM   18  C   UNL     1      -9.277   6.700  70.343  1.00  0.00    -0.156 A  
HETATM   19  N   UNL     1      -8.585   6.526  69.186  1.00  0.00    -0.129 NA 
HETATM   20  C   UNL     1      -8.742   7.422  68.196  1.00  0.00    -0.122 A  
HETATM   21  N   UNL     1      -9.565   8.482  68.196  1.00  0.00    -0.141 NA 
HETATM   22  N   UNL     1      -7.995   7.210  67.054  1.00  0.00    -0.111 NA 
HETATM   23  H2  UNL     1      -8.170   6.270  66.698  1.00  0.00     0.000 HD 
HETATM   24  H1  UNL     1      -8.114   7.890  66.303  1.00  0.00     0.000 HD 
HETATM   25  C   UNL     1     -10.218   8.610  69.363  1.00  0.00    -0.210 A  
ENDBRANCH  13  14
ENDBRANCH   8  13
ENDBRANCH   4   5
ENDBRANCH   2   4
TORSDOF 6
ENDMDL
MODEL      146
REMARK 921   NORMALIZED FREE ENERGY PREDICTED BY IDOCK:   -4.57 KCAL/MOL
REMARK 922        TOTAL FREE ENERGY PREDICTED BY IDOCK:   -7.17 KCAL/MOL
REMARK 923 INTER-LIGAND FREE ENERGY PREDICTED BY IDOCK:   -6.39 KCAL/MOL
REMARK 924 INTRA-LIGAND FREE ENERGY PREDICTED BY IDOCK:   -0.78 KCAL/MOL
REMARK 927      BINDING AFFINITY PREDICTED BY RF-SCORE:    0.00 PKD
ROOT
HETATM    1  C   UNL     1      -9.927   8.496  70.881  1.00  0.00    -0.237 C  
HETATM    2  C   UNL     1     -11.320   9.045  70.952  1.00  0.00    -0.293 C  
HETATM    3  O   UNL     1     -12.252   8.483  71.509  1.00  0.00    -0.292 OA 
ENDROOT
BRANCH   2   4
HETATM    4  O   UNL     1     -11.399  10.227  70.282  1.00  0.00    -0.277 OA 
BRANCH   4   5
HETATM    5  C   UNL     1     -12.358  11.167  70.796  1.00  0.00    -0.406 C  
HETATM    6  C   UNL     1     -12.028  12.613  70.374  1.00  0.00    -0.331 C  
HETATM    7  C   UNL     1     -13.026  13.562  71.074  1.00  0.00    -0.202 C  
HETATM    8  C   UNL     1     -12.016  12.732  68.830  1.00  0.00    -0.278 C  
BRANCH   7   9
HETATM    9  O   UNL     1     -12.805  14.949  70.775  1.00  0.00    -0.342 OA 
BRANCH   9  10
HETATM   10  C   UNL     1     -12.475  15.764  71.811  1.00  0.00    -0.459 C  
HETATM   11  O   UNL     1     -11.609  16.624  71.784  1.00  0.00    -0.348 OA 
HETATM   12  C   UNL     1     -13.371  15.510  72.989  1.00  0.00    -0.650 C  
ENDBRANCH   9  10
ENDBRANCH   7   9
BRANCH   8  13
HETATM   13  C   UNL     1     -11.586  14.105  68.310  1.00  0.00    -0.321 C  
BRANCH  13  14
HETATM   14  N   UNL     1     -10.191  14.397  68.554  1.00  0.00    -0.238 NA 
HETATM   15  C   UNL     1      -9.694  15.476  69.231  1.00  0.00    -0.272 A  
HETATM   16  N   UNL     1      -8.376  15.499  69.208  1.00  0.00    -0.245 NA 
HETATM   17  C   UNL     1      -8.019  14.409  68.448  1.00  0.00    -0.141 A  
HETATM   18  C   UNL     1      -6.799  13.899  68.029  1.00  0.00    -0.144 A  
HETATM   19  N   UNL     1      -6.773  12.796  67.235  1.00  0.00    -0.133 NA 
HETATM   20  C   UNL     1      -7.938  12.232  66.871  1.00  0.00    -0.068 A  
HETATM   21  N   UNL     1      -9.167  12.614  67.249  1.00  0.00    -0.188 NA 
HETATM   22  N   UNL     1      -7.852  11.130  66.044  1.00  0.00    -0.336 NA 
HETATM   23  H2  UNL     1      -7.246  10.427  66.468  1.00  0.00     0.000 HD 
HETATM   24  H1  UNL     1      -8.735  10.702  65.767  1.00  0.00     0.000 HD 
HETATM   25  C   UNL     1      -9.135  13.710  68.026  1.00  0.00    -0.192 A  
ENDBRANCH  13  14
ENDBRANCH   8  13
ENDBRANCH   4   5
ENDBRANCH   2   4
TORSDOF 6
ENDMDL
MODEL      147
REMARK 921   NORMALIZED FREE ENERGY PREDICTED BY IDOCK:   -4.55 KCAL/MOL
REMARK 922        TOTAL FREE ENERGY PREDICTED BY IDOCK:   -7.15 KCAL/MOL
REMARK 923 INTER-LIGAND FREE ENERGY PREDICTED BY IDOCK:   -6.57 KCAL/MOL
REMARK 924 INTRA-LIGAND FREE ENERGY PREDICTED BY IDOCK:   -0.58 KCAL/MOL
REMARK 927      BINDING AFFINITY PREDICTED BY RF-SCORE:    0.00 PKD
ROOT
HETATM    1  C   UNL     1      -5.125  10.849  69.013  1.00  0.00    -0.041 C  
HETATM    2  C   UNL     1      -6.118  11.616  69.833  1.00  0.00    -0.147 C  
HETATM    3  O   UNL     1      -6.291  12.823  69.750  1.00  0.00    -0.122 OA 
ENDROOT
BRANCH   2   4
HETATM    4  O   UNL     1      -6.762  10.785  70.697  1.00  0.00    -0.310 OA 
BRANCH   4   5
HETATM    5  C   UNL     1      -7.195   9.530  70.143  1.00  0.00    -0.114 C  
HETATM    6  C   UNL     1      -8.650   9.596  69.639  1.00  0.00    -0.196 C  
HETATM    7  C   UNL     1      -9.071   8.180  69.186  1.00  0.00    -0.148 C  
HETATM    8  C   UNL     1      -8.789  10.680  68.541  1.00  0.00    -0.148 C  
BRANCH   7   9
HETATM    9  O   UNL     1     -10.425   8.108  68.711  1.00  0.00    -0.211 OA 
BRANCH   9  10
HETATM   10  C   UNL     1     -10.824   6.938  68.149  1.00  0.00    -0.194 C  
HETATM   11  O   UNL     1     -10.898   6.721  66.949  1.00  0.00    -0.348 OA 
HETATM   12  C   UNL     1     -11.103   5.910  69.207  1.00  0.00    -0.352 C  
ENDBRANCH   9  10
ENDBRANCH   7   9
BRANCH   8  13
HETATM   13  C   UNL     1     -10.222  10.902  68.056  1.00  0.00    -0.178 C  
BRANCH  13  14
HETATM   14  N   UNL     1     -10.360  10.811  66.620  1.00  0.00    -0.233 NA 
HETATM   15  C   UNL     1      -9.631  10.012  65.783  1.00  0.00    -0.231 A  
HETATM   16  N   UNL     1      -9.940  10.224  64.518  1.00  0.00    -0.330 NA 
HETATM   17  C   UNL     1     -10.877  11.231  64.549  1.00  0.00    -0.284 A  
HETATM   18  C   UNL     1     -11.569  11.918  63.562  1.00  0.00    -0.441 A  
HETATM   19  N   UNL     1     -12.426  12.912  63.916  1.00  0.00    -0.664 NA 
HETATM   20  C   UNL     1     -12.574  13.207  65.220  1.00  0.00    -0.472 A  
HETATM   21  N   UNL     1     -11.991  12.584  66.254  1.00  0.00    -0.577 NA 
HETATM   22  N   UNL     1     -13.438  14.242  65.519  1.00  0.00    -0.568 NA 
HETATM   23  H2  UNL     1     -14.350  14.061  65.101  1.00  0.00     0.000 HD 
HETATM   24  H1  UNL     1     -13.550  14.466  66.508  1.00  0.00     0.000 HD 
HETATM   25  C   UNL     1     -11.151  11.616  65.849  1.00  0.00    -0.264 A  
ENDBRANCH  13  14
ENDBRANCH   8  13
ENDBRANCH   4   5
ENDBRANCH   2   4
TORSDOF 6
ENDMDL
MODEL      148
REMARK 921   NORMALIZED FREE ENERGY PREDICTED BY IDOCK:   -4.54 KCAL/MOL
REMARK 922        TOTAL FREE ENERGY PREDICTED BY IDOCK:   -7.14 KCAL/MOL
REMARK 923 INTER-LIGAND FREE ENERGY PREDICTED BY IDOCK:   -6.33 KCAL/MOL
REMARK 924 INTRA-LIGAND FREE ENERGY PREDICTED BY IDOCK:   -0.81 KCAL/MOL
REMARK 927      BINDING AFFINITY PREDICTED BY RF-SCORE:    0.00 PKD
ROOT
HETATM    1  C   UNL     1     -12.359   7.123  71.098  1.00  0.00    -0.404 C  
HETATM    2  C   UNL     1     -13.123   8.294  71.637  1.00  0.00    -0.334 C  
HETATM    3  O   UNL     1     -14.338   8.320  71.770  1.00  0.00    -0.431 OA 
ENDROOT
BRANCH   2   4
HETATM    4  O   UNL     1     -12.277   9.323  71.919  1.00  0.00    -0.356 OA 
BRANCH   4   5
HETATM    5  C   UNL     1     -12.824  10.641  71.742  1.00  0.00    -0.444 C  
HETATM    6  C   UNL     1     -12.063  11.439  70.664  1.00  0.00    -0.469 C  
HETATM    7  C   UNL     1     -12.629  12.876  70.635  1.00  0.00    -0.177 C  
HETATM    8  C   UNL     1     -12.132  10.703  69.303  1.00  0.00    -0.206 C  
BRANCH   7   9
HETATM    9  O   UNL     1     -11.982  13.729  69.678  1.00  0.00    -0.303 OA 
BRANCH   9  10
HETATM   10  C   UNL     1     -11.894  15.050  69.982  1.00  0.00    -0.319 C  
HETATM   11  O   UNL     1     -11.797  15.956  69.169  1.00  0.00    -0.389 OA 
HETATM   12  C   UNL     1     -12.000  15.260  71.465  1.00  0.00    -0.429 C  
ENDBRANCH   9  10
ENDBRANCH   7   9
BRANCH   8  13
HETATM   13  C   UNL     1     -11.310  11.358  68.193  1.00  0.00    -0.304 C  
BRANCH  13  14
HETATM   14  N   UNL     1      -9.883  11.265  68.407  1.00  0.00    -0.193 NA 
HETATM   15  C   UNL     1      -9.226  10.273  69.081  1.00  0.00    -0.194 A  
HETATM   16  N   UNL     1      -7.935  10.523  69.174  1.00  0.00    -0.135 NA 
HETATM   17  C   UNL     1      -7.769  11.747  68.568  1.00  0.00    -0.137 A  
HETATM   18  C   UNL     1      -6.668  12.566  68.363  1.00  0.00    -0.081 A  
HETATM   19  N   UNL     1      -6.833  13.766  67.745  1.00  0.00    -0.161 NA 
HETATM   20  C   UNL     1      -8.068  14.129  67.355  1.00  0.00    -0.189 A  
HETATM   21  N   UNL     1      -9.190  13.402  67.464  1.00  0.00    -0.209 NA 
HETATM   22  N   UNL     1      -8.181  15.368  66.756  1.00  0.00    -0.277 NA 
HETATM   23  H2  UNL     1      -7.538  15.429  65.967  1.00  0.00     0.000 HD 
HETATM   24  H1  UNL     1      -9.117  15.644  66.460  1.00  0.00     0.000 HD 
HETATM   25  C   UNL     1      -8.971  12.231  68.086  1.00  0.00    -0.192 A  
ENDBRANCH  13  14
ENDBRANCH   8  13
ENDBRANCH   4   5
ENDBRANCH   2   4
TORSDOF 6
ENDMDL
MODEL      149
REMARK 921   NORMALIZED FREE ENERGY PREDICTED BY IDOCK:   -4.53 KCAL/MOL
REMARK 922        TOTAL FREE ENERGY PREDICTED BY IDOCK:   -7.13 KCAL/MOL
REMARK 923 INTER-LIGAND FREE ENERGY PREDICTED BY IDOCK:   -6.50 KCAL/MOL
REMARK 924 INTRA-LIGAND FREE ENERGY PREDICTED BY IDOCK:   -0.63 KCAL/MOL
REMARK 927      BINDING AFFINITY PREDICTED BY RF-SCORE:    0.00 PKD
ROOT
HETATM    1  C   UNL     1     -14.040  14.888  72.463  1.00  0.00    -0.478 C  
HETATM    2  C   UNL     1     -13.489  13.561  72.033  1.00  0.00    -0.494 C  
HETATM    3  O   UNL     1     -13.908  12.483  72.429  1.00  0.00    -0.404 OA 
ENDROOT
BRANCH   2   4
HETATM    4  O   UNL     1     -12.446  13.736  71.177  1.00  0.00    -0.350 OA 
BRANCH   4   5
HETATM    5  C   UNL     1     -12.428  14.988  70.470  1.00  0.00    -0.371 C  
HETATM    6  C   UNL     1     -11.570  14.914  69.191  1.00  0.00    -0.331 C  
HETATM    7  C   UNL     1     -11.499  16.327  68.571  1.00  0.00    -0.272 C  
HETATM    8  C   UNL     1     -12.124  13.828  68.235  1.00  0.00    -0.314 C  
BRANCH   7   9
HETATM    9  O   UNL     1     -10.703  16.391  67.378  1.00  0.00    -0.322 OA 
BRANCH   9  10
HETATM   10  C   UNL     1      -9.824  17.421  67.272  1.00  0.00    -0.278 C  
HETATM   11  O   UNL     1      -8.612  17.307  67.181  1.00  0.00    -0.198 OA 
HETATM   12  C   UNL     1     -10.551  18.733  67.212  1.00  0.00    -0.504 C  
ENDBRANCH   9  10
ENDBRANCH   7   9
BRANCH   8  13
HETATM   13  C   UNL     1     -11.273  13.598  66.986  1.00  0.00    -0.312 C  
BRANCH  13  14
HETATM   14  N   UNL     1      -9.955  13.081  67.280  1.00  0.00    -0.229 NA 
HETATM   15  C   UNL     1      -8.828  13.818  67.518  1.00  0.00    -0.197 A  
HETATM   16  N   UNL     1      -7.768  13.049  67.669  1.00  0.00    -0.147 NA 
HETATM   17  C   UNL     1      -8.233  11.768  67.480  1.00  0.00    -0.152 A  
HETATM   18  C   UNL     1      -7.621  10.523  67.479  1.00  0.00    -0.093 A  
HETATM   19  N   UNL     1      -8.362   9.414  67.218  1.00  0.00    -0.124 NA 
HETATM   20  C   UNL     1      -9.674   9.557  66.959  1.00  0.00    -0.176 A  
HETATM   21  N   UNL     1     -10.374  10.701  66.974  1.00  0.00    -0.220 NA 
HETATM   22  N   UNL     1     -10.371   8.400  66.676  1.00  0.00    -0.358 NA 
HETATM   23  H2  UNL     1     -10.241   7.725  67.430  1.00  0.00     0.000 HD 
HETATM   24  H1  UNL     1     -11.367   8.508  66.480  1.00  0.00     0.000 HD 
HETATM   25  C   UNL     1      -9.593  11.764  67.231  1.00  0.00    -0.176 A  
ENDBRANCH  13  14
ENDBRANCH   8  13
ENDBRANCH   4   5
ENDBRANCH   2   4
TORSDOF 6
ENDMDL
MODEL      150
REMARK 921   NORMALIZED FREE ENERGY PREDICTED BY IDOCK:   -4.53 KCAL/MOL
REMARK 922        TOTAL FREE ENERGY PREDICTED BY IDOCK:   -7.13 KCAL/MOL
REMARK 923 INTER-LIGAND FREE ENERGY PREDICTED BY IDOCK:   -6.07 KCAL/MOL
REMARK 924 INTRA-LIGAND FREE ENERGY PREDICTED BY IDOCK:   -1.05 KCAL/MOL
REMARK 927      BINDING AFFINITY PREDICTED BY RF-SCORE:    0.00 PKD
ROOT
HETATM    1  C   UNL     1      -9.434   5.992  66.419  1.00  0.00    -0.174 C  
HETATM    2  C   UNL     1     -10.417   6.961  67.004  1.00  0.00    -0.304 C  
HETATM    3  O   UNL     1     -10.454   8.151  66.731  1.00  0.00    -0.326 OA 
ENDROOT
BRANCH   2   4
HETATM    4  O   UNL     1     -11.227   6.331  67.899  1.00  0.00    -0.323 OA 
BRANCH   4   5
HETATM    5  C   UNL     1     -10.553   5.639  68.964  1.00  0.00    -0.246 C  
HETATM    6  C   UNL     1     -10.281   6.563  70.168  1.00  0.00    -0.226 C  
HETATM    7  C   UNL     1      -9.444   5.779  71.202  1.00  0.00    -0.158 C  
HETATM    8  C   UNL     1     -11.613   7.125  70.725  1.00  0.00    -0.358 C  
BRANCH   7   9
HETATM    9  O   UNL     1      -9.106   6.547  72.368  1.00  0.00    -0.135 OA 
BRANCH   9  10
HETATM   10  C   UNL     1      -8.845   5.859  73.511  1.00  0.00    -0.125 C  
HETATM   11  O   UNL     1      -7.773   5.350  73.797  1.00  0.00    -0.100 OA 
HETATM   12  C   UNL     1     -10.042   5.864  74.417  1.00  0.00    -0.302 C  
ENDBRANCH   9  10
ENDBRANCH   7   9
BRANCH   8  13
HETATM   13  C   UNL     1     -11.442   8.144  71.852  1.00  0.00    -0.299 C  
BRANCH  13  14
HETATM   14  N   UNL     1     -11.882   9.474  71.492  1.00  0.00    -0.381 NA 
HETATM   15  C   UNL     1     -12.988  10.120  71.970  1.00  0.00    -0.409 A  
HETATM   16  N   UNL     1     -13.160  11.288  71.382  1.00  0.00    -0.357 NA 
HETATM   17  C   UNL     1     -12.142  11.370  70.460  1.00  0.00    -0.394 A  
HETATM   18  C   UNL     1     -11.787  12.324  69.517  1.00  0.00    -0.315 A  
HETATM   19  N   UNL     1     -10.720  12.096  68.706  1.00  0.00    -0.230 NA 
HETATM   20  C   UNL     1     -10.039  10.944  68.838  1.00  0.00    -0.198 A  
HETATM   21  N   UNL     1     -10.268   9.976  69.738  1.00  0.00    -0.238 NA 
HETATM   22  N   UNL     1      -8.981  10.755  67.971  1.00  0.00    -0.136 NA 
HETATM   23  H2  UNL     1      -8.338  11.544  68.036  1.00  0.00     0.000 HD 
HETATM   24  H1  UNL     1      -8.465   9.881  68.071  1.00  0.00     0.000 HD 
HETATM   25  C   UNL     1     -11.335  10.248  70.508  1.00  0.00    -0.341 A  
ENDBRANCH  13  14
ENDBRANCH   8  13
ENDBRANCH   4   5
ENDBRANCH   2   4
TORSDOF 6
ENDMDL
MODEL      151
REMARK 921   NORMALIZED FREE ENERGY PREDICTED BY IDOCK:   -4.53 KCAL/MOL
REMARK 922        TOTAL FREE ENERGY PREDICTED BY IDOCK:   -7.12 KCAL/MOL
REMARK 923 INTER-LIGAND FREE ENERGY PREDICTED BY IDOCK:   -6.32 KCAL/MOL
REMARK 924 INTRA-LIGAND FREE ENERGY PREDICTED BY IDOCK:   -0.80 KCAL/MOL
REMARK 927      BINDING AFFINITY PREDICTED BY RF-SCORE:    0.00 PKD
ROOT
HETATM    1  C   UNL     1     -12.626  11.758  63.562  1.00  0.00    -0.485 C  
HETATM    2  C   UNL     1     -12.188  13.186  63.430  1.00  0.00    -0.444 C  
HETATM    3  O   UNL     1     -12.777  14.026  62.767  1.00  0.00    -0.230 OA 
ENDROOT
BRANCH   2   4
HETATM    4  O   UNL     1     -11.033  13.392  64.121  1.00  0.00    -0.378 OA 
BRANCH   4   5
HETATM    5  C   UNL     1     -10.385  12.206  64.612  1.00  0.00    -0.297 C  
HETATM    6  C   UNL     1      -9.782  12.420  66.015  1.00  0.00    -0.253 C  
HETATM    7  C   UNL     1      -8.997  11.148  66.405  1.00  0.00    -0.182 C  
HETATM    8  C   UNL     1     -10.893  12.813  67.021  1.00  0.00    -0.282 C  
BRANCH   7   9
HETATM    9  O   UNL     1      -8.368  11.234  67.693  1.00  0.00    -0.119 OA 
BRANCH   9  10
HETATM   10  C   UNL     1      -7.173  10.605  67.843  1.00  0.00    -0.087 C  
HETATM   11  O   UNL     1      -6.829   9.594  67.252  1.00  0.00    -0.081 OA 
HETATM   12  C   UNL     1      -6.292  11.364  68.794  1.00  0.00    -0.053 C  
ENDBRANCH   9  10
ENDBRANCH   7   9
BRANCH   8  13
HETATM   13  C   UNL     1     -10.379  13.158  68.419  1.00  0.00    -0.253 C  
BRANCH  13  14
HETATM   14  N   UNL     1     -11.052  12.430  69.472  1.00  0.00    -0.090 NA 
HETATM   15  C   UNL     1     -10.929  11.096  69.744  1.00  0.00    -0.150 A  
HETATM   16  N   UNL     1     -11.740  10.721  70.713  1.00  0.00    -0.328 NA 
HETATM   17  C   UNL     1     -12.439  11.858  71.046  1.00  0.00    -0.290 A  
HETATM   18  C   UNL     1     -13.449  12.122  71.961  1.00  0.00    -0.286 A  
HETATM   19  N   UNL     1     -13.976  13.373  72.032  1.00  0.00    -0.394 NA 
HETATM   20  C   UNL     1     -13.506  14.323  71.204  1.00  0.00    -0.273 A  
HETATM   21  N   UNL     1     -12.510  14.190  70.315  1.00  0.00    -0.356 NA 
HETATM   22  N   UNL     1     -14.095  15.567  71.303  1.00  0.00    -0.729 NA 
HETATM   23  H2  UNL     1     -14.047  15.896  72.267  1.00  0.00     0.000 HD 
HETATM   24  H1  UNL     1     -13.739  16.287  70.675  1.00  0.00     0.000 HD 
HETATM   25  C   UNL     1     -12.031  12.935  70.281  1.00  0.00    -0.283 A  
ENDBRANCH  13  14
ENDBRANCH   8  13
ENDBRANCH   4   5
ENDBRANCH   2   4
TORSDOF 6
ENDMDL
MODEL      152
REMARK 921   NORMALIZED FREE ENERGY PREDICTED BY IDOCK:   -4.53 KCAL/MOL
REMARK 922        TOTAL FREE ENERGY PREDICTED BY IDOCK:   -7.12 KCAL/MOL
REMARK 923 INTER-LIGAND FREE ENERGY PREDICTED BY IDOCK:   -6.24 KCAL/MOL
REMARK 924 INTRA-LIGAND FREE ENERGY PREDICTED BY IDOCK:   -0.89 KCAL/MOL
REMARK 927      BINDING AFFINITY PREDICTED BY RF-SCORE:    0.00 PKD
ROOT
HETATM    1  C   UNL     1     -10.706  19.705  67.104  1.00  0.00    -0.587 C  
HETATM    2  C   UNL     1      -9.233  19.838  66.858  1.00  0.00    -0.360 C  
HETATM    3  O   UNL     1      -8.506  20.621  67.452  1.00  0.00    -0.334 OA 
ENDROOT
BRANCH   2   4
HETATM    4  O   UNL     1      -8.841  18.996  65.863  1.00  0.00    -0.450 OA 
BRANCH   4   5
HETATM    5  C   UNL     1      -7.934  17.952  66.257  1.00  0.00    -0.244 C  
HETATM    6  C   UNL     1      -8.632  16.878  67.116  1.00  0.00    -0.217 C  
HETATM    7  C   UNL     1      -7.562  15.875  67.602  1.00  0.00    -0.150 C  
HETATM    8  C   UNL     1      -9.795  16.231  66.324  1.00  0.00    -0.334 C  
BRANCH   7   9
HETATM    9  O   UNL     1      -8.091  14.831  68.434  1.00  0.00    -0.131 OA 
BRANCH   9  10
HETATM   10  C   UNL     1      -7.198  14.082  69.133  1.00  0.00    -0.059 C  
HETATM   11  O   UNL     1      -6.517  14.482  70.063  1.00  0.00    -0.153 OA 
HETATM   12  C   UNL     1      -7.207  12.660  68.648  1.00  0.00    -0.108 C  
ENDBRANCH   9  10
ENDBRANCH   7   9
BRANCH   8  13
HETATM   13  C   UNL     1     -10.624  15.231  67.131  1.00  0.00    -0.302 C  
BRANCH  13  14
HETATM   14  N   UNL     1     -10.513  13.874  66.646  1.00  0.00    -0.270 NA 
HETATM   15  C   UNL     1     -10.332  13.488  65.347  1.00  0.00    -0.319 A  
HETATM   16  N   UNL     1     -10.357  12.175  65.223  1.00  0.00    -0.270 NA 
HETATM   17  C   UNL     1     -10.603  11.707  66.492  1.00  0.00    -0.253 A  
HETATM   18  C   UNL     1     -10.772  10.435  67.021  1.00  0.00    -0.235 A  
HETATM   19  N   UNL     1     -11.046  10.293  68.345  1.00  0.00    -0.259 NA 
HETATM   20  C   UNL     1     -11.154  11.397  69.107  1.00  0.00    -0.258 A  
HETATM   21  N   UNL     1     -10.971  12.665  68.711  1.00  0.00    -0.246 NA 
HETATM   22  N   UNL     1     -11.459  11.194  70.437  1.00  0.00    -0.469 NA 
HETATM   23  H2  UNL     1     -10.782  10.554  70.853  1.00  0.00     0.000 HD 
HETATM   24  H1  UNL     1     -11.542  12.031  71.015  1.00  0.00     0.000 HD 
HETATM   25  C   UNL     1     -10.709  12.748  67.395  1.00  0.00    -0.230 A  
ENDBRANCH  13  14
ENDBRANCH   8  13
ENDBRANCH   4   5
ENDBRANCH   2   4
TORSDOF 6
ENDMDL
MODEL      153
REMARK 921   NORMALIZED FREE ENERGY PREDICTED BY IDOCK:   -4.52 KCAL/MOL
REMARK 922        TOTAL FREE ENERGY PREDICTED BY IDOCK:   -7.12 KCAL/MOL
REMARK 923 INTER-LIGAND FREE ENERGY PREDICTED BY IDOCK:   -6.33 KCAL/MOL
REMARK 924 INTRA-LIGAND FREE ENERGY PREDICTED BY IDOCK:   -0.79 KCAL/MOL
REMARK 927      BINDING AFFINITY PREDICTED BY RF-SCORE:    0.00 PKD
ROOT
HETATM    1  C   UNL     1     -12.669  14.191  65.807  1.00  0.00    -0.443 C  
HETATM    2  C   UNL     1     -12.561  12.836  65.175  1.00  0.00    -0.444 C  
HETATM    3  O   UNL     1     -12.874  12.591  64.019  1.00  0.00    -0.707 OA 
ENDROOT
BRANCH   2   4
HETATM    4  O   UNL     1     -12.104  11.926  66.078  1.00  0.00    -0.500 OA 
BRANCH   4   5
HETATM    5  C   UNL     1     -11.903  12.426  67.412  1.00  0.00    -0.289 C  
HETATM    6  C   UNL     1     -11.836  11.286  68.448  1.00  0.00    -0.331 C  
HETATM    7  C   UNL     1     -11.753  11.914  69.856  1.00  0.00    -0.308 C  
HETATM    8  C   UNL     1     -10.669  10.323  68.113  1.00  0.00    -0.287 C  
BRANCH   7   9
HETATM    9  O   UNL     1     -11.707  10.946  70.916  1.00  0.00    -0.306 OA 
BRANCH   9  10
HETATM   10  C   UNL     1     -12.822  10.808  71.680  1.00  0.00    -0.457 C  
HETATM   11  O   UNL     1     -13.394  11.715  72.263  1.00  0.00    -0.443 OA 
HETATM   12  C   UNL     1     -13.305   9.386  71.659  1.00  0.00    -0.477 C  
ENDBRANCH   9  10
ENDBRANCH   7   9
BRANCH   8  13
HETATM   13  C   UNL     1     -10.590   9.094  69.019  1.00  0.00    -0.199 C  
BRANCH  13  14
HETATM   14  N   UNL     1     -10.360   7.864  68.295  1.00  0.00    -0.203 NA 
HETATM   15  C   UNL     1     -11.282   6.886  68.041  1.00  0.00     0.001 A  
HETATM   16  N   UNL     1     -10.738   5.852  67.431  1.00  0.00    -0.279 NA 
HETATM   17  C   UNL     1      -9.403   6.168  67.327  1.00  0.00    -0.114 A  
HETATM   18  C   UNL     1      -8.302   5.495  66.816  1.00  0.00    -0.108 A  
HETATM   19  N   UNL     1      -7.073   6.070  66.893  1.00  0.00    -0.068 NA 
HETATM   20  C   UNL     1      -6.957   7.279  67.471  1.00  0.00    -0.075 A  
HETATM   21  N   UNL     1      -7.954   8.034  67.958  1.00  0.00    -0.126 NA 
HETATM   22  N   UNL     1      -5.682   7.803  67.543  1.00  0.00    -0.036 NA 
HETATM   23  H2  UNL     1      -5.265   7.825  66.613  1.00  0.00     0.000 HD 
HETATM   24  H1  UNL     1      -5.594   8.720  67.982  1.00  0.00     0.000 HD 
HETATM   25  C   UNL     1      -9.143   7.416  67.864  1.00  0.00    -0.129 A  
ENDBRANCH  13  14
ENDBRANCH   8  13
ENDBRANCH   4   5
ENDBRANCH   2   4
TORSDOF 6
ENDMDL
MODEL      154
REMARK 921   NORMALIZED FREE ENERGY PREDICTED BY IDOCK:   -4.52 KCAL/MOL
REMARK 922        TOTAL FREE ENERGY PREDICTED BY IDOCK:   -7.11 KCAL/MOL
REMARK 923 INTER-LIGAND FREE ENERGY PREDICTED BY IDOCK:   -6.41 KCAL/MOL
REMARK 924 INTRA-LIGAND FREE ENERGY PREDICTED BY IDOCK:   -0.70 KCAL/MOL
REMARK 927      BINDING AFFINITY PREDICTED BY RF-SCORE:    0.00 PKD
ROOT
HETATM    1  C   UNL     1     -10.644  17.429  66.054  1.00  0.00    -0.210 C  
HETATM    2  C   UNL     1     -10.403  18.885  66.319  1.00  0.00    -0.453 C  
HETATM    3  O   UNL     1     -11.105  19.577  67.043  1.00  0.00    -0.424 OA 
ENDROOT
BRANCH   2   4
HETATM    4  O   UNL     1      -9.323  19.322  65.615  1.00  0.00    -0.297 OA 
BRANCH   4   5
HETATM    5  C   UNL     1      -8.284  19.940  66.395  1.00  0.00    -0.335 C  
HETATM    6  C   UNL     1      -7.853  19.054  67.582  1.00  0.00    -0.269 C  
HETATM    7  C   UNL     1      -6.837  19.846  68.434  1.00  0.00    -0.300 C  
HETATM    8  C   UNL     1      -7.326  17.691  67.070  1.00  0.00    -0.219 C  
BRANCH   7   9
HETATM    9  O   UNL     1      -6.375  19.129  69.589  1.00  0.00    -0.270 OA 
BRANCH   9  10
HETATM   10  C   UNL     1      -5.708  19.840  70.536  1.00  0.00    -0.272 C  
HETATM   11  O   UNL     1      -5.508  21.044  70.502  1.00  0.00    -0.561 OA 
HETATM   12  C   UNL     1      -5.300  18.951  71.675  1.00  0.00    -0.273 C  
ENDBRANCH   9  10
ENDBRANCH   7   9
BRANCH   8  13
HETATM   13  C   UNL     1      -6.979  16.696  68.179  1.00  0.00    -0.152 C  
BRANCH  13  14
HETATM   14  N   UNL     1      -7.748  15.473  68.111  1.00  0.00    -0.121 NA 
HETATM   15  C   UNL     1      -7.456  14.372  67.354  1.00  0.00    -0.159 A  
HETATM   16  N   UNL     1      -8.399  13.455  67.448  1.00  0.00    -0.182 NA 
HETATM   17  C   UNL     1      -9.352  14.014  68.269  1.00  0.00    -0.208 A  
HETATM   18  C   UNL     1     -10.585  13.577  68.730  1.00  0.00    -0.218 A  
HETATM   19  N   UNL     1     -11.330  14.393  69.521  1.00  0.00    -0.267 NA 
HETATM   20  C   UNL     1     -10.850  15.612  69.829  1.00  0.00    -0.308 A  
HETATM   21  N   UNL     1      -9.660  16.118  69.474  1.00  0.00    -0.205 NA 
HETATM   22  N   UNL     1     -11.661  16.408  70.614  1.00  0.00    -0.517 NA 
HETATM   23  H2  UNL     1     -11.910  15.909  71.468  1.00  0.00     0.000 HD 
HETATM   24  H1  UNL     1     -11.297  17.332  70.847  1.00  0.00     0.000 HD 
HETATM   25  C   UNL     1      -8.969  15.274  68.690  1.00  0.00    -0.193 A  
ENDBRANCH  13  14
ENDBRANCH   8  13
ENDBRANCH   4   5
ENDBRANCH   2   4
TORSDOF 6
ENDMDL
MODEL      155
REMARK 921   NORMALIZED FREE ENERGY PREDICTED BY IDOCK:   -4.50 KCAL/MOL
REMARK 922        TOTAL FREE ENERGY PREDICTED BY IDOCK:   -7.08 KCAL/MOL
REMARK 923 INTER-LIGAND FREE ENERGY PREDICTED BY IDOCK:   -6.06 KCAL/MOL
REMARK 924 INTRA-LIGAND FREE ENERGY PREDICTED BY IDOCK:   -1.03 KCAL/MOL
REMARK 927      BINDING AFFINITY PREDICTED BY RF-SCORE:    0.00 PKD
ROOT
HETATM    1  C   UNL     1      -9.164   3.331  66.654  1.00  0.00    -0.178 C  
HETATM    2  C   UNL     1     -10.214   4.193  66.020  1.00  0.00    -0.074 C  
HETATM    3  O   UNL     1     -10.646   4.028  64.888  1.00  0.00    -0.223 OA 
ENDROOT
BRANCH   2   4
HETATM    4  O   UNL     1     -10.583   5.192  66.867  1.00  0.00    -0.245 OA 
BRANCH   4   5
HETATM    5  C   UNL     1     -10.335   6.527  66.395  1.00  0.00     0.048 C  
HETATM    6  C   UNL     1     -10.488   7.572  67.519  1.00  0.00    -0.341 C  
HETATM    7  C   UNL     1     -10.336   8.978  66.898  1.00  0.00    -0.254 C  
HETATM    8  C   UNL     1      -9.493   7.275  68.668  1.00  0.00    -0.137 C  
BRANCH   7   9
HETATM    9  O   UNL     1     -10.482  10.044  67.849  1.00  0.00    -0.199 OA 
BRANCH   9  10
HETATM   10  C   UNL     1     -11.040  11.201  67.405  1.00  0.00    -0.307 C  
HETATM   11  O   UNL     1     -11.663  11.993  68.095  1.00  0.00    -0.320 OA 
HETATM   12  C   UNL     1     -10.730  11.415  65.951  1.00  0.00    -0.311 C  
ENDBRANCH   9  10
ENDBRANCH   7   9
BRANCH   8  13
HETATM   13  C   UNL     1      -9.646   8.190  69.883  1.00  0.00    -0.175 C  
BRANCH  13  14
HETATM   14  N   UNL     1     -10.834   7.917  70.659  1.00  0.00    -0.233 NA 
HETATM   15  C   UNL     1     -11.333   6.683  70.972  1.00  0.00    -0.315 A  
HETATM   16  N   UNL     1     -12.479   6.772  71.620  1.00  0.00    -0.361 NA 
HETATM   17  C   UNL     1     -12.740   8.121  71.686  1.00  0.00    -0.321 A  
HETATM   18  C   UNL     1     -13.790   8.863  72.208  1.00  0.00    -0.474 A  
HETATM   19  N   UNL     1     -13.778  10.217  72.085  1.00  0.00    -0.208 NA 
HETATM   20  C   UNL     1     -12.746  10.801  71.450  1.00  0.00    -0.439 A  
HETATM   21  N   UNL     1     -11.665  10.189  70.946  1.00  0.00    -0.350 NA 
HETATM   22  N   UNL     1     -12.800  12.175  71.332  1.00  0.00    -0.342 NA 
HETATM   23  H2  UNL     1     -12.920  12.596  72.253  1.00  0.00     0.000 HD 
HETATM   24  H1  UNL     1     -12.018  12.618  70.850  1.00  0.00     0.000 HD 
HETATM   25  C   UNL     1     -11.731   8.854  71.089  1.00  0.00    -0.298 A  
ENDBRANCH  13  14
ENDBRANCH   8  13
ENDBRANCH   4   5
ENDBRANCH   2   4
TORSDOF 6
ENDMDL
MODEL      156
REMARK 921   NORMALIZED FREE ENERGY PREDICTED BY IDOCK:   -4.48 KCAL/MOL
REMARK 922        TOTAL FREE ENERGY PREDICTED BY IDOCK:   -7.06 KCAL/MOL
REMARK 923 INTER-LIGAND FREE ENERGY PREDICTED BY IDOCK:   -6.42 KCAL/MOL
REMARK 924 INTRA-LIGAND FREE ENERGY PREDICTED BY IDOCK:   -0.64 KCAL/MOL
REMARK 927      BINDING AFFINITY PREDICTED BY RF-SCORE:    0.00 PKD
ROOT
HETATM    1  C   UNL     1     -11.941  15.998  71.857  1.00  0.00    -0.606 C  
HETATM    2  C   UNL     1     -13.271  15.307  71.879  1.00  0.00    -0.415 C  
HETATM    3  O   UNL     1     -14.217  15.659  72.569  1.00  0.00    -0.557 OA 
ENDROOT
BRANCH   2   4
HETATM    4  O   UNL     1     -13.256  14.224  71.055  1.00  0.00    -0.350 OA 
BRANCH   4   5
HETATM    5  C   UNL     1     -12.875  12.982  71.671  1.00  0.00    -0.277 C  
HETATM    6  C   UNL     1     -12.782  11.836  70.644  1.00  0.00    -0.193 C  
HETATM    7  C   UNL     1     -12.499  10.523  71.407  1.00  0.00    -0.411 C  
HETATM    8  C   UNL     1     -11.733  12.175  69.555  1.00  0.00    -0.402 C  
BRANCH   7   9
HETATM    9  O   UNL     1     -12.411   9.371  70.554  1.00  0.00    -0.115 OA 
BRANCH   9  10
HETATM   10  C   UNL     1     -11.779   8.276  71.052  1.00  0.00    -0.270 C  
HETATM   11  O   UNL     1     -11.279   7.386  70.382  1.00  0.00    -0.266 OA 
HETATM   12  C   UNL     1     -11.716   8.337  72.551  1.00  0.00    -0.451 C  
ENDBRANCH   9  10
ENDBRANCH   7   9
BRANCH   8  13
HETATM   13  C   UNL     1     -11.649  11.149  68.425  1.00  0.00    -0.306 C  
BRANCH  13  14
HETATM   14  N   UNL     1     -10.495  11.331  67.572  1.00  0.00    -0.193 NA 
HETATM   15  C   UNL     1     -10.508  11.527  66.219  1.00  0.00    -0.251 A  
HETATM   16  N   UNL     1      -9.287  11.573  65.724  1.00  0.00    -0.229 NA 
HETATM   17  C   UNL     1      -8.461  11.357  66.802  1.00  0.00    -0.165 A  
HETATM   18  C   UNL     1      -7.084  11.259  66.943  1.00  0.00    -0.139 A  
HETATM   19  N   UNL     1      -6.555  10.998  68.167  1.00  0.00    -0.058 NA 
HETATM   20  C   UNL     1      -7.386  10.833  69.212  1.00  0.00    -0.129 A  
HETATM   21  N   UNL     1      -8.723  10.946  69.198  1.00  0.00    -0.099 NA 
HETATM   22  N   UNL     1      -6.794  10.544  70.425  1.00  0.00    -0.382 NA 
HETATM   23  H2  UNL     1      -6.099  11.256  70.647  1.00  0.00     0.000 HD 
HETATM   24  H1  UNL     1      -7.425  10.419  71.217  1.00  0.00     0.000 HD 
HETATM   25  C   UNL     1      -9.193  11.198  67.965  1.00  0.00    -0.159 A  
ENDBRANCH  13  14
ENDBRANCH   8  13
ENDBRANCH   4   5
ENDBRANCH   2   4
TORSDOF 6
ENDMDL
MODEL      157
REMARK 921   NORMALIZED FREE ENERGY PREDICTED BY IDOCK:   -4.47 KCAL/MOL
REMARK 922        TOTAL FREE ENERGY PREDICTED BY IDOCK:   -7.05 KCAL/MOL
REMARK 923 INTER-LIGAND FREE ENERGY PREDICTED BY IDOCK:   -6.34 KCAL/MOL
REMARK 924 INTRA-LIGAND FREE ENERGY PREDICTED BY IDOCK:   -0.70 KCAL/MOL
REMARK 927      BINDING AFFINITY PREDICTED BY RF-SCORE:    0.00 PKD
ROOT
HETATM    1  C   UNL     1     -14.411  15.562  71.977  1.00  0.00    -0.600 C  
HETATM    2  C   UNL     1     -13.528  14.366  72.171  1.00  0.00    -0.417 C  
HETATM    3  O   UNL     1     -13.904  13.304  72.643  1.00  0.00    -0.712 OA 
ENDROOT
BRANCH   2   4
HETATM    4  O   UNL     1     -12.255  14.649  71.781  1.00  0.00    -0.336 OA 
BRANCH   4   5
HETATM    5  C   UNL     1     -12.123  15.706  70.815  1.00  0.00    -0.412 C  
HETATM    6  C   UNL     1     -11.184  15.312  69.657  1.00  0.00    -0.289 C  
HETATM    7  C   UNL     1     -10.998  16.544  68.743  1.00  0.00    -0.330 C  
HETATM    8  C   UNL     1     -11.728  14.058  68.928  1.00  0.00    -0.375 C  
BRANCH   7   9
HETATM    9  O   UNL     1     -10.120  16.306  67.632  1.00  0.00    -0.250 OA 
BRANCH   9  10
HETATM   10  C   UNL     1      -8.806  16.610  67.802  1.00  0.00    -0.206 C  
HETATM   11  O   UNL     1      -7.910  16.319  67.025  1.00  0.00    -0.173 OA 
HETATM   12  C   UNL     1      -8.607  17.417  69.052  1.00  0.00    -0.053 C  
ENDBRANCH   9  10
ENDBRANCH   7   9
BRANCH   8  13
HETATM   13  C   UNL     1     -10.806  13.520  67.833  1.00  0.00    -0.247 C  
BRANCH  13  14
HETATM   14  N   UNL     1     -10.447  12.132  68.019  1.00  0.00    -0.206 NA 
HETATM   15  C   UNL     1     -11.162  11.194  68.711  1.00  0.00    -0.253 A  
HETATM   16  N   UNL     1     -10.524  10.042  68.767  1.00  0.00    -0.198 NA 
HETATM   17  C   UNL     1      -9.333  10.267  68.117  1.00  0.00    -0.139 A  
HETATM   18  C   UNL     1      -8.223   9.475  67.861  1.00  0.00    -0.114 A  
HETATM   19  N   UNL     1      -7.157  10.009  67.207  1.00  0.00    -0.084 NA 
HETATM   20  C   UNL     1      -7.207  11.299  66.832  1.00  0.00    -0.142 A  
HETATM   21  N   UNL     1      -8.239  12.141  66.990  1.00  0.00    -0.176 NA 
HETATM   22  N   UNL     1      -6.087  11.795  66.195  1.00  0.00    -0.461 NA 
HETATM   23  H2  UNL     1      -5.862  11.210  65.390  1.00  0.00     0.000 HD 
HETATM   24  H1  UNL     1      -6.124  12.774  65.910  1.00  0.00     0.000 HD 
HETATM   25  C   UNL     1      -9.261  11.565  67.646  1.00  0.00    -0.171 A  
ENDBRANCH  13  14
ENDBRANCH   8  13
ENDBRANCH   4   5
ENDBRANCH   2   4
TORSDOF 6
ENDMDL
MODEL      158
REMARK 921   NORMALIZED FREE ENERGY PREDICTED BY IDOCK:   -4.46 KCAL/MOL
REMARK 922        TOTAL FREE ENERGY PREDICTED BY IDOCK:   -7.04 KCAL/MOL
REMARK 923 INTER-LIGAND FREE ENERGY PREDICTED BY IDOCK:   -6.29 KCAL/MOL
REMARK 924 INTRA-LIGAND FREE ENERGY PREDICTED BY IDOCK:   -0.75 KCAL/MOL
REMARK 927      BINDING AFFINITY PREDICTED BY RF-SCORE:    0.00 PKD
ROOT
HETATM    1  C   UNL     1     -12.686  10.044  70.847  1.00  0.00    -0.414 C  
HETATM    2  C   UNL     1     -11.765   9.148  71.619  1.00  0.00    -0.378 C  
HETATM    3  O   UNL     1     -12.129   8.160  72.239  1.00  0.00    -0.337 OA 
ENDROOT
BRANCH   2   4
HETATM    4  O   UNL     1     -10.488   9.615  71.556  1.00  0.00    -0.228 OA 
BRANCH   4   5
HETATM    5  C   UNL     1      -9.542   8.745  70.911  1.00  0.00    -0.221 C  
HETATM    6  C   UNL     1      -9.671   8.794  69.375  1.00  0.00    -0.172 C  
HETATM    7  C   UNL     1      -8.716   7.740  68.774  1.00  0.00    -0.128 C  
HETATM    8  C   UNL     1      -9.427  10.236  68.862  1.00  0.00    -0.190 C  
BRANCH   7   9
HETATM    9  O   UNL     1      -8.762   7.675  67.340  1.00  0.00    -0.124 OA 
BRANCH   9  10
HETATM   10  C   UNL     1      -8.908   6.447  66.778  1.00  0.00    -0.124 C  
HETATM   11  O   UNL     1      -9.972   5.943  66.451  1.00  0.00    -0.163 OA 
HETATM   12  C   UNL     1      -7.569   5.808  66.546  1.00  0.00    -0.091 C  
ENDBRANCH   9  10
ENDBRANCH   7   9
BRANCH   8  13
HETATM   13  C   UNL     1      -9.646  10.412  67.359  1.00  0.00    -0.154 C  
BRANCH  13  14
HETATM   14  N   UNL     1      -9.703  11.797  66.949  1.00  0.00    -0.195 NA 
HETATM   15  C   UNL     1      -9.193  12.868  67.629  1.00  0.00    -0.193 A  
HETATM   16  N   UNL     1      -9.485  14.007  67.031  1.00  0.00    -0.240 NA 
HETATM   17  C   UNL     1     -10.248  13.648  65.945  1.00  0.00    -0.311 A  
HETATM   18  C   UNL     1     -10.881  14.372  64.945  1.00  0.00    -0.416 A  
HETATM   19  N   UNL     1     -11.611  13.716  64.004  1.00  0.00    -0.355 NA 
HETATM   20  C   UNL     1     -11.703  12.376  64.073  1.00  0.00    -0.420 A  
HETATM   21  N   UNL     1     -11.103  11.576  64.967  1.00  0.00    -0.244 NA 
HETATM   22  N   UNL     1     -12.477  11.766  63.107  1.00  0.00    -0.939 NA 
HETATM   23  H2  UNL     1     -12.152  12.041  62.181  1.00  0.00     0.000 HD 
HETATM   24  H1  UNL     1     -12.548  10.750  63.160  1.00  0.00     0.000 HD 
HETATM   25  C   UNL     1     -10.401  12.275  65.875  1.00  0.00    -0.252 A  
ENDBRANCH  13  14
ENDBRANCH   8  13
ENDBRANCH   4   5
ENDBRANCH   2   4
TORSDOF 6
ENDMDL
MODEL      159
REMARK 921   NORMALIZED FREE ENERGY PREDICTED BY IDOCK:   -4.46 KCAL/MOL
REMARK 922        TOTAL FREE ENERGY PREDICTED BY IDOCK:   -7.03 KCAL/MOL
REMARK 923 INTER-LIGAND FREE ENERGY PREDICTED BY IDOCK:   -6.16 KCAL/MOL
REMARK 924 INTRA-LIGAND FREE ENERGY PREDICTED BY IDOCK:   -0.87 KCAL/MOL
REMARK 927      BINDING AFFINITY PREDICTED BY RF-SCORE:    0.00 PKD
ROOT
HETATM    1  C   UNL     1     -12.540  13.793  65.648  1.00  0.00    -0.551 C  
HETATM    2  C   UNL     1     -12.360  12.543  64.840  1.00  0.00    -0.470 C  
HETATM    3  O   UNL     1     -13.167  12.135  64.018  1.00  0.00    -0.728 OA 
ENDROOT
BRANCH   2   4
HETATM    4  O   UNL     1     -11.198  11.922  65.181  1.00  0.00    -0.311 OA 
BRANCH   4   5
HETATM    5  C   UNL     1     -10.869  11.948  66.581  1.00  0.00    -0.276 C  
HETATM    6  C   UNL     1     -11.198  10.610  67.273  1.00  0.00    -0.237 C  
HETATM    7  C   UNL     1     -10.940  10.771  68.788  1.00  0.00    -0.247 C  
HETATM    8  C   UNL     1     -10.405   9.455  66.613  1.00  0.00    -0.284 C  
BRANCH   7   9
HETATM    9  O   UNL     1     -11.233   9.589  69.549  1.00  0.00    -0.189 OA 
BRANCH   9  10
HETATM   10  C   UNL     1     -11.133   9.681  70.901  1.00  0.00    -0.352 C  
HETATM   11  O   UNL     1     -11.994  10.130  71.642  1.00  0.00    -0.361 OA 
HETATM   12  C   UNL     1      -9.838   9.089  71.378  1.00  0.00    -0.381 C  
ENDBRANCH   9  10
ENDBRANCH   7   9
BRANCH   8  13
HETATM   13  C   UNL     1     -10.749   8.067  67.156  1.00  0.00    -0.215 C  
BRANCH  13  14
HETATM   14  N   UNL     1      -9.584   7.268  67.463  1.00  0.00    -0.138 NA 
HETATM   15  C   UNL     1      -8.480   7.675  68.161  1.00  0.00    -0.124 A  
HETATM   16  N   UNL     1      -7.555   6.737  68.196  1.00  0.00    -0.105 NA 
HETATM   17  C   UNL     1      -8.075   5.702  67.454  1.00  0.00    -0.102 A  
HETATM   18  C   UNL     1      -7.590   4.454  67.090  1.00  0.00    -0.085 A  
HETATM   19  N   UNL     1      -8.347   3.648  66.298  1.00  0.00    -0.104 NA 
HETATM   20  C   UNL     1      -9.547   4.090  65.882  1.00  0.00    -0.193 A  
HETATM   21  N   UNL     1     -10.129   5.255  66.205  1.00  0.00    -0.201 NA 
HETATM   22  N   UNL     1     -10.260   3.241  65.060  1.00  0.00    -0.385 NA 
HETATM   23  H2  UNL     1     -10.365   2.332  65.511  1.00  0.00     0.000 HD 
HETATM   24  H1  UNL     1     -11.170   3.576  64.744  1.00  0.00     0.000 HD 
HETATM   25  C   UNL     1      -9.337   6.013  66.982  1.00  0.00    -0.122 A  
ENDBRANCH  13  14
ENDBRANCH   8  13
ENDBRANCH   4   5
ENDBRANCH   2   4
TORSDOF 6
ENDMDL
MODEL      160
REMARK 921   NORMALIZED FREE ENERGY PREDICTED BY IDOCK:   -4.46 KCAL/MOL
REMARK 922        TOTAL FREE ENERGY PREDICTED BY IDOCK:   -7.03 KCAL/MOL
REMARK 923 INTER-LIGAND FREE ENERGY PREDICTED BY IDOCK:   -6.48 KCAL/MOL
REMARK 924 INTRA-LIGAND FREE ENERGY PREDICTED BY IDOCK:   -0.55 KCAL/MOL
REMARK 927      BINDING AFFINITY PREDICTED BY RF-SCORE:    0.00 PKD
ROOT
HETATM    1  C   UNL     1     -11.714  14.555  64.521  1.00  0.00    -0.421 C  
HETATM    2  C   UNL     1     -12.244  13.797  65.700  1.00  0.00    -0.454 C  
HETATM    3  O   UNL     1     -12.393  14.276  66.815  1.00  0.00    -0.429 OA 
ENDROOT
BRANCH   2   4
HETATM    4  O   UNL     1     -12.498  12.504  65.357  1.00  0.00    -0.630 OA 
BRANCH   4   5
HETATM    5  C   UNL     1     -11.364  11.755  64.887  1.00  0.00    -0.236 C  
HETATM    6  C   UNL     1     -10.294  11.584  65.984  1.00  0.00    -0.290 C  
HETATM    7  C   UNL     1      -9.065  10.888  65.359  1.00  0.00    -0.198 C  
HETATM    8  C   UNL     1     -10.891  10.840  67.205  1.00  0.00    -0.344 C  
BRANCH   7   9
HETATM    9  O   UNL     1      -7.984  10.691  66.284  1.00  0.00    -0.138 OA 
BRANCH   9  10
HETATM   10  C   UNL     1      -7.179   9.615  66.079  1.00  0.00    -0.098 C  
HETATM   11  O   UNL     1      -7.035   8.685  66.857  1.00  0.00    -0.075 OA 
HETATM   12  C   UNL     1      -6.533   9.687  64.725  1.00  0.00    -0.090 C  
ENDBRANCH   9  10
ENDBRANCH   7   9
BRANCH   8  13
HETATM   13  C   UNL     1      -9.937  10.721  68.395  1.00  0.00    -0.164 C  
BRANCH  13  14
HETATM   14  N   UNL     1     -10.255   9.619  69.275  1.00  0.00    -0.194 NA 
HETATM   15  C   UNL     1     -10.204   9.630  70.641  1.00  0.00    -0.278 A  
HETATM   16  N   UNL     1     -10.472   8.441  71.146  1.00  0.00    -0.205 NA 
HETATM   17  C   UNL     1     -10.662   7.629  70.052  1.00  0.00    -0.241 A  
HETATM   18  C   UNL     1     -10.942   6.278  69.907  1.00  0.00    -0.370 A  
HETATM   19  N   UNL     1     -11.040   5.746  68.659  1.00  0.00    -0.134 NA 
HETATM   20  C   UNL     1     -10.854   6.549  67.596  1.00  0.00    -0.337 A  
HETATM   21  N   UNL     1     -10.620   7.869  67.619  1.00  0.00    -0.231 NA 
HETATM   22  N   UNL     1     -10.939   5.950  66.355  1.00  0.00    -0.734 NA 
HETATM   23  H2  UNL     1     -11.831   5.464  66.268  1.00  0.00     0.000 HD 
HETATM   24  H1  UNL     1     -10.798   6.558  65.549  1.00  0.00     0.000 HD 
HETATM   25  C   UNL     1     -10.527   8.341  68.874  1.00  0.00    -0.191 A  
ENDBRANCH  13  14
ENDBRANCH   8  13
ENDBRANCH   4   5
ENDBRANCH   2   4
TORSDOF 6
ENDMDL
MODEL      161
REMARK 921   NORMALIZED FREE ENERGY PREDICTED BY IDOCK:   -4.44 KCAL/MOL
REMARK 922        TOTAL FREE ENERGY PREDICTED BY IDOCK:   -7.01 KCAL/MOL
REMARK 923 INTER-LIGAND FREE ENERGY PREDICTED BY IDOCK:   -6.58 KCAL/MOL
REMARK 924 INTRA-LIGAND FREE ENERGY PREDICTED BY IDOCK:   -0.43 KCAL/MOL
REMARK 927      BINDING AFFINITY PREDICTED BY RF-SCORE:    0.00 PKD
ROOT
HETATM    1  C   UNL     1      -5.610  11.581  67.529  1.00  0.00    -0.062 C  
HETATM    2  C   UNL     1      -7.092  11.694  67.334  1.00  0.00    -0.124 C  
HETATM    3  O   UNL     1      -7.751  10.945  66.627  1.00  0.00    -0.133 OA 
ENDROOT
BRANCH   2   4
HETATM    4  O   UNL     1      -7.581  12.761  68.023  1.00  0.00    -0.107 OA 
BRANCH   4   5
HETATM    5  C   UNL     1      -8.040  13.860  67.218  1.00  0.00    -0.145 C  
HETATM    6  C   UNL     1      -9.580  13.926  67.159  1.00  0.00    -0.247 C  
HETATM    7  C   UNL     1      -9.980  15.046  66.173  1.00  0.00    -0.291 C  
HETATM    8  C   UNL     1     -10.165  14.095  68.583  1.00  0.00    -0.238 C  
BRANCH   7   9
HETATM    9  O   UNL     1     -11.400  15.192  66.016  1.00  0.00    -0.318 OA 
BRANCH   9  10
HETATM   10  C   UNL     1     -12.038  14.266  65.252  1.00  0.00    -0.400 C  
HETATM   11  O   UNL     1     -13.237  14.035  65.280  1.00  0.00    -0.782 OA 
HETATM   12  C   UNL     1     -11.076  13.603  64.309  1.00  0.00    -0.332 C  
ENDBRANCH   9  10
ENDBRANCH   7   9
BRANCH   8  13
HETATM   13  C   UNL     1     -11.692  14.057  68.643  1.00  0.00    -0.354 C  
BRANCH  13  14
HETATM   14  N   UNL     1     -12.202  13.341  69.791  1.00  0.00    -0.264 NA 
HETATM   15  C   UNL     1     -12.807  13.891  70.887  1.00  0.00    -0.300 A  
HETATM   16  N   UNL     1     -13.081  12.978  71.798  1.00  0.00    -0.400 NA 
HETATM   17  C   UNL     1     -12.593  11.803  71.277  1.00  0.00    -0.296 A  
HETATM   18  C   UNL     1     -12.542  10.499  71.751  1.00  0.00    -0.342 A  
HETATM   19  N   UNL     1     -11.947   9.537  70.998  1.00  0.00    -0.311 NA 
HETATM   20  C   UNL     1     -11.415   9.880  69.811  1.00  0.00    -0.143 A  
HETATM   21  N   UNL     1     -11.442  11.093  69.240  1.00  0.00    -0.265 NA 
HETATM   22  N   UNL     1     -10.801   8.868  69.101  1.00  0.00    -0.407 NA 
HETATM   23  H2  UNL     1     -11.450   8.092  68.976  1.00  0.00     0.000 HD 
HETATM   24  H1  UNL     1     -10.396   9.127  68.201  1.00  0.00     0.000 HD 
HETATM   25  C   UNL     1     -12.035  12.006  70.028  1.00  0.00    -0.324 A  
ENDBRANCH  13  14
ENDBRANCH   8  13
ENDBRANCH   4   5
ENDBRANCH   2   4
TORSDOF 6
ENDMDL
MODEL      162
REMARK 921   NORMALIZED FREE ENERGY PREDICTED BY IDOCK:   -4.44 KCAL/MOL
REMARK 922        TOTAL FREE ENERGY PREDICTED BY IDOCK:   -7.01 KCAL/MOL
REMARK 923 INTER-LIGAND FREE ENERGY PREDICTED BY IDOCK:   -7.45 KCAL/MOL
REMARK 924 INTRA-LIGAND FREE ENERGY PREDICTED BY IDOCK:    0.44 KCAL/MOL
REMARK 927      BINDING AFFINITY PREDICTED BY RF-SCORE:    0.00 PKD
ROOT
HETATM    1  C   UNL     1      -9.923  20.346  67.144  1.00  0.00    -0.568 C  
HETATM    2  C   UNL     1      -8.460  20.186  66.858  1.00  0.00    -0.314 C  
HETATM    3  O   UNL     1      -7.571  20.723  67.503  1.00  0.00    -0.325 OA 
ENDROOT
BRANCH   2   4
HETATM    4  O   UNL     1      -8.274  19.394  65.767  1.00  0.00    -0.439 OA 
BRANCH   4   5
HETATM    5  C   UNL     1      -7.184  18.460  65.858  1.00  0.00    -0.232 C  
HETATM    6  C   UNL     1      -7.359  17.486  67.040  1.00  0.00    -0.222 C  
HETATM    7  C   UNL     1      -6.089  16.613  67.141  1.00  0.00    -0.167 C  
HETATM    8  C   UNL     1      -8.672  16.680  66.882  1.00  0.00    -0.241 C  
BRANCH   7   9
HETATM    9  O   UNL     1      -6.123  15.673  68.227  1.00  0.00    -0.102 OA 
BRANCH   9  10
HETATM   10  C   UNL     1      -5.830  16.146  69.467  1.00  0.00    -0.150 C  
HETATM   11  O   UNL     1      -5.922  15.508  70.504  1.00  0.00    -0.110 OA 
HETATM   12  C   UNL     1      -5.308  17.551  69.388  1.00  0.00    -0.181 C  
ENDBRANCH   9  10
ENDBRANCH   7   9
BRANCH   8  13
HETATM   13  C   UNL     1      -8.994  15.766  68.064  1.00  0.00    -0.178 C  
BRANCH  13  14
HETATM   14  N   UNL     1      -9.937  14.720  67.739  1.00  0.00    -0.222 NA 
HETATM   15  C   UNL     1     -10.086  13.528  68.392  1.00  0.00    -0.240 A  
HETATM   16  N   UNL     1     -10.974  12.756  67.798  1.00  0.00    -0.229 NA 
HETATM   17  C   UNL     1     -11.380  13.471  66.695  1.00  0.00    -0.322 A  
HETATM   18  C   UNL     1     -12.265  13.206  65.660  1.00  0.00    -0.466 A  
HETATM   19  N   UNL     1     -12.431  14.122  64.670  1.00  0.00    -0.638 NA 
HETATM   20  C   UNL     1     -11.721  15.264  64.719  1.00  0.00    -0.276 A  
HETATM   21  N   UNL     1     -10.873  15.641  65.687  1.00  0.00    -0.339 NA 
HETATM   22  N   UNL     1     -11.910  16.146  63.674  1.00  0.00    -1.180 NA 
HETATM   23  H2  UNL     1     -12.903  16.361  63.579  1.00  0.00     0.000 HD 
HETATM   24  H1  UNL     1     -11.372  17.012  63.710  1.00  0.00     0.000 HD 
HETATM   25  C   UNL     1     -10.743  14.697  66.635  1.00  0.00    -0.305 A  
ENDBRANCH  13  14
ENDBRANCH   8  13
ENDBRANCH   4   5
ENDBRANCH   2   4
TORSDOF 6
ENDMDL
MODEL      163
REMARK 921   NORMALIZED FREE ENERGY PREDICTED BY IDOCK:   -4.43 KCAL/MOL
REMARK 922        TOTAL FREE ENERGY PREDICTED BY IDOCK:   -6.99 KCAL/MOL
REMARK 923 INTER-LIGAND FREE ENERGY PREDICTED BY IDOCK:   -6.06 KCAL/MOL
REMARK 924 INTRA-LIGAND FREE ENERGY PREDICTED BY IDOCK:   -0.94 KCAL/MOL
REMARK 927      BINDING AFFINITY PREDICTED BY RF-SCORE:    0.00 PKD
ROOT
HETATM    1  C   UNL     1      -6.119  10.144  68.521  1.00  0.00    -0.044 C  
HETATM    2  C   UNL     1      -7.050  11.226  68.978  1.00  0.00    -0.116 C  
HETATM    3  O   UNL     1      -7.208  12.288  68.395  1.00  0.00    -0.088 OA 
ENDROOT
BRANCH   2   4
HETATM    4  O   UNL     1      -7.657  10.868  70.143  1.00  0.00     0.075 OA 
BRANCH   4   5
HETATM    5  C   UNL     1      -8.255   9.560  70.153  1.00  0.00    -0.177 C  
HETATM    6  C   UNL     1      -9.789   9.631  70.299  1.00  0.00    -0.321 C  
HETATM    7  C   UNL     1     -10.331   8.191  70.433  1.00  0.00    -0.206 C  
HETATM    8  C   UNL     1     -10.403  10.433  69.124  1.00  0.00    -0.241 C  
BRANCH   7   9
HETATM    9  O   UNL     1     -11.756   8.126  70.598  1.00  0.00    -0.251 OA 
BRANCH   9  10
HETATM   10  C   UNL     1     -12.225   7.828  71.838  1.00  0.00    -0.306 C  
HETATM   11  O   UNL     1     -11.534   7.629  72.824  1.00  0.00    -0.355 OA 
HETATM   12  C   UNL     1     -13.727   7.843  71.853  1.00  0.00    -0.366 C  
ENDBRANCH   9  10
ENDBRANCH   7   9
BRANCH   8  13
HETATM   13  C   UNL     1     -11.912  10.657  69.239  1.00  0.00    -0.197 C  
BRANCH  13  14
HETATM   14  N   UNL     1     -12.268  11.652  70.226  1.00  0.00    -0.332 NA 
HETATM   15  C   UNL     1     -12.897  11.423  71.418  1.00  0.00    -0.397 A  
HETATM   16  N   UNL     1     -13.157  12.549  72.053  1.00  0.00    -0.404 NA 
HETATM   17  C   UNL     1     -12.711  13.540  71.210  1.00  0.00    -0.348 A  
HETATM   18  C   UNL     1     -12.718  14.925  71.280  1.00  0.00    -0.340 A  
HETATM   19  N   UNL     1     -12.222  15.650  70.243  1.00  0.00    -0.396 NA 
HETATM   20  C   UNL     1     -11.741  14.999  69.169  1.00  0.00    -0.319 A  
HETATM   21  N   UNL     1     -11.647  13.670  69.012  1.00  0.00    -0.289 NA 
HETATM   22  N   UNL     1     -11.274  15.786  68.136  1.00  0.00    -0.343 NA 
HETATM   23  H2  UNL     1     -10.571  16.435  68.488  1.00  0.00     0.000 HD 
HETATM   24  H1  UNL     1     -10.909  15.293  67.321  1.00  0.00     0.000 HD 
HETATM   25  C   UNL     1     -12.157  13.004  70.062  1.00  0.00    -0.297 A  
ENDBRANCH  13  14
ENDBRANCH   8  13
ENDBRANCH   4   5
ENDBRANCH   2   4
TORSDOF 6
ENDMDL
MODEL      164
REMARK 921   NORMALIZED FREE ENERGY PREDICTED BY IDOCK:   -4.43 KCAL/MOL
REMARK 922        TOTAL FREE ENERGY PREDICTED BY IDOCK:   -6.99 KCAL/MOL
REMARK 923 INTER-LIGAND FREE ENERGY PREDICTED BY IDOCK:   -6.15 KCAL/MOL
REMARK 924 INTRA-LIGAND FREE ENERGY PREDICTED BY IDOCK:   -0.84 KCAL/MOL
REMARK 927      BINDING AFFINITY PREDICTED BY RF-SCORE:    0.00 PKD
ROOT
HETATM    1  C   UNL     1      -6.955  14.042  67.642  1.00  0.00    -0.198 C  
HETATM    2  C   UNL     1      -6.286  12.718  67.861  1.00  0.00    -0.118 C  
HETATM    3  O   UNL     1      -5.533  12.475  68.793  1.00  0.00    -0.057 OA 
ENDROOT
BRANCH   2   4
HETATM    4  O   UNL     1      -6.610  11.853  66.862  1.00  0.00    -0.142 OA 
BRANCH   4   5
HETATM    5  C   UNL     1      -7.373  10.702  67.263  1.00  0.00    -0.092 C  
HETATM    6  C   UNL     1      -8.812  11.080  67.670  1.00  0.00    -0.131 C  
HETATM    7  C   UNL     1      -9.513   9.813  68.208  1.00  0.00    -0.139 C  
HETATM    8  C   UNL     1      -9.545  11.756  66.484  1.00  0.00    -0.225 C  
BRANCH   7   9
HETATM    9  O   UNL     1     -10.862  10.045  68.642  1.00  0.00    -0.223 OA 
BRANCH   9  10
HETATM   10  C   UNL     1     -11.056  10.288  69.965  1.00  0.00    -0.311 C  
HETATM   11  O   UNL     1     -11.931  11.002  70.429  1.00  0.00    -0.310 OA 
HETATM   12  C   UNL     1     -10.083   9.502  70.796  1.00  0.00    -0.352 C  
ENDBRANCH   9  10
ENDBRANCH   7   9
BRANCH   8  13
HETATM   13  C   UNL     1     -10.944  12.272  66.824  1.00  0.00    -0.276 C  
BRANCH  13  14
HETATM   14  N   UNL     1     -11.608  12.903  65.705  1.00  0.00    -0.343 NA 
HETATM   15  C   UNL     1     -12.361  12.277  64.750  1.00  0.00    -0.339 A  
HETATM   16  N   UNL     1     -12.758  13.119  63.817  1.00  0.00    -0.698 NA 
HETATM   17  C   UNL     1     -12.200  14.326  64.171  1.00  0.00    -0.378 A  
HETATM   18  C   UNL     1     -12.215  15.588  63.595  1.00  0.00     0.743 A  
HETATM   19  N   UNL     1     -11.520  16.598  64.180  1.00  0.00    -1.112 NA 
HETATM   20  C   UNL     1     -10.827  16.342  65.305  1.00  0.00    -0.258 A  
HETATM   21  N   UNL     1     -10.776  15.177  65.967  1.00  0.00    -0.319 NA 
HETATM   22  N   UNL     1     -10.119  17.399  65.841  1.00  0.00    -0.551 NA 
HETATM   23  H2  UNL     1     -10.744  18.190  65.994  1.00  0.00     0.000 HD 
HETATM   24  H1  UNL     1      -9.594  17.205  66.693  1.00  0.00     0.000 HD 
HETATM   25  C   UNL     1     -11.475  14.213  65.343  1.00  0.00    -0.325 A  
ENDBRANCH  13  14
ENDBRANCH   8  13
ENDBRANCH   4   5
ENDBRANCH   2   4
TORSDOF 6
ENDMDL
MODEL      165
REMARK 921   NORMALIZED FREE ENERGY PREDICTED BY IDOCK:   -4.43 KCAL/MOL
REMARK 922        TOTAL FREE ENERGY PREDICTED BY IDOCK:   -6.99 KCAL/MOL
REMARK 923 INTER-LIGAND FREE ENERGY PREDICTED BY IDOCK:   -6.31 KCAL/MOL
REMARK 924 INTRA-LIGAND FREE ENERGY PREDICTED BY IDOCK:   -0.68 KCAL/MOL
REMARK 927      BINDING AFFINITY PREDICTED BY RF-SCORE:    0.00 PKD
ROOT
HETATM    1  C   UNL     1     -11.554   8.184  72.327  1.00  0.00    -0.436 C  
HETATM    2  C   UNL     1     -12.438   9.212  71.688  1.00  0.00    -0.359 C  
HETATM    3  O   UNL     1     -13.588   9.439  72.034  1.00  0.00    -0.405 OA 
ENDROOT
BRANCH   2   4
HETATM    4  O   UNL     1     -11.790   9.820  70.657  1.00  0.00    -0.273 OA 
BRANCH   4   5
HETATM    5  C   UNL     1     -10.357   9.865  70.767  1.00  0.00    -0.128 C  
HETATM    6  C   UNL     1      -9.687  10.204  69.420  1.00  0.00    -0.247 C  
HETATM    7  C   UNL     1      -8.157  10.101  69.599  1.00  0.00    -0.168 C  
HETATM    8  C   UNL     1     -10.175  11.584  68.911  1.00  0.00    -0.166 C  
BRANCH   7   9
HETATM    9  O   UNL     1      -7.418  10.376  68.399  1.00  0.00    -0.086 OA 
BRANCH   9  10
HETATM   10  C   UNL     1      -6.363   9.567  68.119  1.00  0.00    -0.057 C  
HETATM   11  O   UNL     1      -5.479   9.814  67.314  1.00  0.00    -0.039 OA 
HETATM   12  C   UNL     1      -6.390   8.343  68.989  1.00  0.00    -0.044 C  
ENDBRANCH   9  10
ENDBRANCH   7   9
BRANCH   8  13
HETATM   13  C   UNL     1      -9.654  11.960  67.524  1.00  0.00    -0.175 C  
BRANCH  13  14
HETATM   14  N   UNL     1     -10.642  12.622  66.702  1.00  0.00    -0.246 NA 
HETATM   15  C   UNL     1     -11.773  12.058  66.178  1.00  0.00    -0.241 A  
HETATM   16  N   UNL     1     -12.423  12.904  65.403  1.00  0.00    -0.557 NA 
HETATM   17  C   UNL     1     -11.652  14.044  65.403  1.00  0.00    -0.328 A  
HETATM   18  C   UNL     1     -11.770  15.272  64.768  1.00  0.00    -0.276 A  
HETATM   19  N   UNL     1     -10.801  16.210  64.942  1.00  0.00    -0.643 NA 
HETATM   20  C   UNL     1      -9.747  15.915  65.724  1.00  0.00    -0.325 A  
HETATM   21  N   UNL     1      -9.553  14.782  66.415  1.00  0.00    -0.285 NA 
HETATM   22  N   UNL     1      -8.782  16.895  65.845  1.00  0.00    -0.524 NA 
HETATM   23  H2  UNL     1      -9.212  17.765  66.159  1.00  0.00     0.000 HD 
HETATM   24  H1  UNL     1      -7.983  16.672  66.437  1.00  0.00     0.000 HD 
HETATM   25  C   UNL     1     -10.535  13.889  66.202  1.00  0.00    -0.297 A  
ENDBRANCH  13  14
ENDBRANCH   8  13
ENDBRANCH   4   5
ENDBRANCH   2   4
TORSDOF 6
ENDMDL
MODEL      166
REMARK 921   NORMALIZED FREE ENERGY PREDICTED BY IDOCK:   -4.40 KCAL/MOL
REMARK 922        TOTAL FREE ENERGY PREDICTED BY IDOCK:   -6.96 KCAL/MOL
REMARK 923 INTER-LIGAND FREE ENERGY PREDICTED BY IDOCK:   -6.00 KCAL/MOL
REMARK 924 INTRA-LIGAND FREE ENERGY PREDICTED BY IDOCK:   -0.95 KCAL/MOL
REMARK 927      BINDING AFFINITY PREDICTED BY RF-SCORE:    0.00 PKD
ROOT
HETATM    1  C   UNL     1     -12.791   7.250  71.439  1.00  0.00    -0.425 C  
HETATM    2  C   UNL     1     -13.121   8.629  71.925  1.00  0.00    -0.373 C  
HETATM    3  O   UNL     1     -14.190   8.941  72.431  1.00  0.00    -0.466 OA 
ENDROOT
BRANCH   2   4
HETATM    4  O   UNL     1     -12.083   9.477  71.690  1.00  0.00    -0.354 OA 
BRANCH   4   5
HETATM    5  C   UNL     1     -12.449  10.820  71.329  1.00  0.00    -0.399 C  
HETATM    6  C   UNL     1     -11.615  11.344  70.142  1.00  0.00    -0.368 C  
HETATM    7  C   UNL     1     -11.980  12.827  69.911  1.00  0.00    -0.298 C  
HETATM    8  C   UNL     1     -11.821  10.439  68.902  1.00  0.00    -0.046 C  
BRANCH   7   9
HETATM    9  O   UNL     1     -11.248  13.436  68.836  1.00  0.00    -0.252 OA 
BRANCH   9  10
HETATM   10  C   UNL     1     -11.870  14.426  68.143  1.00  0.00    -0.327 C  
HETATM   11  O   UNL     1     -12.387  14.300  67.045  1.00  0.00    -0.386 OA 
HETATM   12  C   UNL     1     -11.898  15.696  68.945  1.00  0.00    -0.368 C  
ENDBRANCH   9  10
ENDBRANCH   7   9
BRANCH   8  13
HETATM   13  C   UNL     1     -10.947  10.810  67.703  1.00  0.00    -0.306 C  
BRANCH  13  14
HETATM   14  N   UNL     1      -9.827   9.916  67.514  1.00  0.00    -0.163 NA 
HETATM   15  C   UNL     1      -9.826   8.757  66.787  1.00  0.00    -0.247 A  
HETATM   16  N   UNL     1      -8.672   8.127  66.881  1.00  0.00    -0.126 NA 
HETATM   17  C   UNL     1      -7.918   8.897  67.736  1.00  0.00    -0.102 A  
HETATM   18  C   UNL     1      -6.639   8.768  68.257  1.00  0.00    -0.060 A  
HETATM   19  N   UNL     1      -6.175   9.701  69.129  1.00  0.00    -0.041 NA 
HETATM   20  C   UNL     1      -6.978  10.725  69.470  1.00  0.00    -0.130 A  
HETATM   21  N   UNL     1      -8.210  10.970  68.999  1.00  0.00    -0.133 NA 
HETATM   22  N   UNL     1      -6.464  11.628  70.379  1.00  0.00    -0.515 NA 
HETATM   23  H2  UNL     1      -5.572  11.988  70.041  1.00  0.00     0.000 HD 
HETATM   24  H1  UNL     1      -7.073  12.405  70.638  1.00  0.00     0.000 HD 
HETATM   25  C   UNL     1      -8.620  10.015  68.147  1.00  0.00    -0.118 A  
ENDBRANCH  13  14
ENDBRANCH   8  13
ENDBRANCH   4   5
ENDBRANCH   2   4
TORSDOF 6
ENDMDL
MODEL      167
REMARK 921   NORMALIZED FREE ENERGY PREDICTED BY IDOCK:   -4.40 KCAL/MOL
REMARK 922        TOTAL FREE ENERGY PREDICTED BY IDOCK:   -6.95 KCAL/MOL
REMARK 923 INTER-LIGAND FREE ENERGY PREDICTED BY IDOCK:   -6.20 KCAL/MOL
REMARK 924 INTRA-LIGAND FREE ENERGY PREDICTED BY IDOCK:   -0.75 KCAL/MOL
REMARK 927      BINDING AFFINITY PREDICTED BY RF-SCORE:    0.00 PKD
ROOT
HETATM    1  C   UNL     1      -9.325   7.088  69.940  1.00  0.00    -0.150 C  
HETATM    2  C   UNL     1     -10.624   7.249  69.210  1.00  0.00    -0.221 C  
HETATM    3  O   UNL     1     -11.428   6.345  69.031  1.00  0.00    -0.337 OA 
ENDROOT
BRANCH   2   4
HETATM    4  O   UNL     1     -10.755   8.523  68.750  1.00  0.00    -0.169 OA 
BRANCH   4   5
HETATM    5  C   UNL     1      -9.564   9.327  68.806  1.00  0.00    -0.154 C  
HETATM    6  C   UNL     1      -9.132   9.812  67.408  1.00  0.00    -0.148 C  
HETATM    7  C   UNL     1      -7.782  10.550  67.546  1.00  0.00    -0.098 C  
HETATM    8  C   UNL     1     -10.256  10.661  66.763  1.00  0.00    -0.284 C  
BRANCH   7   9
HETATM    9  O   UNL     1      -7.262  11.034  66.298  1.00  0.00    -0.138 OA 
BRANCH   9  10
HETATM   10  C   UNL     1      -5.914  10.991  66.128  1.00  0.00    -0.132 C  
HETATM   11  O   UNL     1      -5.338  11.041  65.053  1.00  0.00    -0.188 OA 
HETATM   12  C   UNL     1      -5.215  10.942  67.455  1.00  0.00    -0.037 C  
ENDBRANCH   9  10
ENDBRANCH   7   9
BRANCH   8  13
HETATM   13  C   UNL     1      -9.969  11.095  65.325  1.00  0.00    -0.260 C  
BRANCH  13  14
HETATM   14  N   UNL     1     -10.890  12.096  64.835  1.00  0.00    -0.297 NA 
HETATM   15  C   UNL     1     -11.978  11.876  64.037  1.00  0.00    -0.356 A  
HETATM   16  N   UNL     1     -12.565  13.006  63.695  1.00  0.00    -0.731 NA 
HETATM   17  C   UNL     1     -11.794  13.990  64.268  1.00  0.00    -0.410 A  
HETATM   18  C   UNL     1     -11.859  15.376  64.260  1.00  0.00    -0.199 A  
HETATM   19  N   UNL     1     -10.904  16.094  64.909  1.00  0.00    -0.643 NA 
HETATM   20  C   UNL     1      -9.914  15.435  65.537  1.00  0.00    -0.344 A  
HETATM   21  N   UNL     1      -9.775  14.106  65.643  1.00  0.00    -0.233 NA 
HETATM   22  N   UNL     1      -8.958  16.215  66.157  1.00  0.00    -0.331 NA 
HETATM   23  H2  UNL     1      -9.408  16.861  66.805  1.00  0.00     0.000 HD 
HETATM   24  H1  UNL     1      -8.206  15.716  66.633  1.00  0.00     0.000 HD 
HETATM   25  C   UNL     1     -10.741  13.446  64.980  1.00  0.00    -0.343 A  
ENDBRANCH  13  14
ENDBRANCH   8  13
ENDBRANCH   4   5
ENDBRANCH   2   4
TORSDOF 6
ENDMDL
MODEL      168
REMARK 921   NORMALIZED FREE ENERGY PREDICTED BY IDOCK:   -4.39 KCAL/MOL
REMARK 922        TOTAL FREE ENERGY PREDICTED BY IDOCK:   -6.94 KCAL/MOL
REMARK 923 INTER-LIGAND FREE ENERGY PREDICTED BY IDOCK:   -6.03 KCAL/MOL
REMARK 924 INTRA-LIGAND FREE ENERGY PREDICTED BY IDOCK:   -0.91 KCAL/MOL
REMARK 927      BINDING AFFINITY PREDICTED BY RF-SCORE:    0.00 PKD
ROOT
HETATM    1  C   UNL     1      -7.053  13.861  67.812  1.00  0.00    -0.181 C  
HETATM    2  C   UNL     1      -6.506  12.625  68.460  1.00  0.00    -0.074 C  
HETATM    3  O   UNL     1      -5.758  12.631  69.427  1.00  0.00    -0.075 OA 
ENDROOT
BRANCH   2   4
HETATM    4  O   UNL     1      -6.930  11.515  67.798  1.00  0.00    -0.071 OA 
BRANCH   4   5
HETATM    5  C   UNL     1      -7.537  10.500  68.616  1.00  0.00    -0.099 C  
HETATM    6  C   UNL     1      -9.062  10.691  68.734  1.00  0.00    -0.170 C  
HETATM    7  C   UNL     1      -9.608   9.644  69.730  1.00  0.00    -0.219 C  
HETATM    8  C   UNL     1      -9.719  10.636  67.332  1.00  0.00    -0.192 C  
BRANCH   7   9
HETATM    9  O   UNL     1     -11.025   9.737  69.941  1.00  0.00    -0.238 OA 
BRANCH   9  10
HETATM   10  C   UNL     1     -11.471   9.628  71.220  1.00  0.00    -0.392 C  
HETATM   11  O   UNL     1     -12.367  10.295  71.713  1.00  0.00    -0.377 OA 
HETATM   12  C   UNL     1     -10.755   8.520  71.938  1.00  0.00    -0.394 C  
ENDBRANCH   9  10
ENDBRANCH   7   9
BRANCH   8  13
HETATM   13  C   UNL     1     -11.220  10.930  67.331  1.00  0.00    -0.273 C  
BRANCH  13  14
HETATM   14  N   UNL     1     -11.541  12.265  66.879  1.00  0.00    -0.435 NA 
HETATM   15  C   UNL     1     -11.925  12.625  65.617  1.00  0.00    -0.452 A  
HETATM   16  N   UNL     1     -12.062  13.932  65.506  1.00  0.00    -0.383 NA 
HETATM   17  C   UNL     1     -11.711  14.429  66.740  1.00  0.00    -0.397 A  
HETATM   18  C   UNL     1     -11.619  15.712  67.258  1.00  0.00     0.065 A  
HETATM   19  N   UNL     1     -11.198  15.887  68.539  1.00  0.00    -0.344 NA 
HETATM   20  C   UNL     1     -10.873  14.805  69.268  1.00  0.00    -0.264 A  
HETATM   21  N   UNL     1     -10.963  13.523  68.884  1.00  0.00    -0.256 NA 
HETATM   22  N   UNL     1     -10.427  15.044  70.552  1.00  0.00    -0.518 NA 
HETATM   23  H2  UNL     1     -11.113  15.605  71.056  1.00  0.00     0.000 HD 
HETATM   24  H1  UNL     1     -10.180  14.223  71.105  1.00  0.00     0.000 HD 
HETATM   25  C   UNL     1     -11.378  13.408  67.611  1.00  0.00    -0.290 A  
ENDBRANCH  13  14
ENDBRANCH   8  13
ENDBRANCH   4   5
ENDBRANCH   2   4
TORSDOF 6
ENDMDL
MODEL      169
REMARK 921   NORMALIZED FREE ENERGY PREDICTED BY IDOCK:   -4.36 KCAL/MOL
REMARK 922        TOTAL FREE ENERGY PREDICTED BY IDOCK:   -6.89 KCAL/MOL
REMARK 923 INTER-LIGAND FREE ENERGY PREDICTED BY IDOCK:   -5.99 KCAL/MOL
REMARK 924 INTRA-LIGAND FREE ENERGY PREDICTED BY IDOCK:   -0.90 KCAL/MOL
REMARK 927      BINDING AFFINITY PREDICTED BY RF-SCORE:    0.00 PKD
ROOT
HETATM    1  C   UNL     1     -14.024   8.643  71.934  1.00  0.00    -0.501 C  
HETATM    2  C   UNL     1     -13.182   9.827  71.565  1.00  0.00    -0.404 C  
HETATM    3  O   UNL     1     -13.281  10.928  72.085  1.00  0.00    -0.474 OA 
ENDROOT
BRANCH   2   4
HETATM    4  O   UNL     1     -12.331   9.506  70.553  1.00  0.00    -0.145 OA 
BRANCH   4   5
HETATM    5  C   UNL     1     -10.935   9.491  70.899  1.00  0.00    -0.337 C  
HETATM    6  C   UNL     1     -10.033   9.663  69.660  1.00  0.00    -0.239 C  
HETATM    7  C   UNL     1      -8.563   9.502  70.105  1.00  0.00    -0.224 C  
HETATM    8  C   UNL     1     -10.340  11.008  68.956  1.00  0.00    -0.229 C  
BRANCH   7   9
HETATM    9  O   UNL     1      -7.621   9.622  69.027  1.00  0.00    -0.072 OA 
BRANCH   9  10
HETATM   10  C   UNL     1      -6.383  10.089  69.333  1.00  0.00    -0.046 C  
HETATM   11  O   UNL     1      -5.442  10.153  68.557  1.00  0.00    -0.039 OA 
HETATM   12  C   UNL     1      -6.339  10.586  70.749  1.00  0.00     0.032 C  
ENDBRANCH   9  10
ENDBRANCH   7   9
BRANCH   8  13
HETATM   13  C   UNL     1      -9.576  11.220  67.649  1.00  0.00    -0.171 C  
BRANCH  13  14
HETATM   14  N   UNL     1      -9.104  12.575  67.476  1.00  0.00    -0.179 NA 
HETATM   15  C   UNL     1      -8.174  13.216  68.248  1.00  0.00    -0.154 A  
HETATM   16  N   UNL     1      -8.024  14.474  67.883  1.00  0.00    -0.134 NA 
HETATM   17  C   UNL     1      -8.926  14.654  66.861  1.00  0.00    -0.253 A  
HETATM   18  C   UNL     1      -9.276  15.746  66.080  1.00  0.00    -0.350 A  
HETATM   19  N   UNL     1     -10.257  15.616  65.148  1.00  0.00    -0.429 NA 
HETATM   20  C   UNL     1     -10.869  14.425  65.014  1.00  0.00    -0.407 A  
HETATM   21  N   UNL     1     -10.585  13.298  65.682  1.00  0.00    -0.278 NA 
HETATM   22  N   UNL     1     -11.874  14.358  64.071  1.00  0.00    -0.678 NA 
HETATM   23  H2  UNL     1     -11.519  14.666  63.166  1.00  0.00     0.000 HD 
HETATM   24  H1  UNL     1     -12.339  13.455  63.969  1.00  0.00     0.000 HD 
HETATM   25  C   UNL     1      -9.614  13.484  66.593  1.00  0.00    -0.278 A  
ENDBRANCH  13  14
ENDBRANCH   8  13
ENDBRANCH   4   5
ENDBRANCH   2   4
TORSDOF 6
ENDMDL
MODEL      170
REMARK 921   NORMALIZED FREE ENERGY PREDICTED BY IDOCK:   -4.34 KCAL/MOL
REMARK 922        TOTAL FREE ENERGY PREDICTED BY IDOCK:   -6.87 KCAL/MOL
REMARK 923 INTER-LIGAND FREE ENERGY PREDICTED BY IDOCK:   -6.10 KCAL/MOL
REMARK 924 INTRA-LIGAND FREE ENERGY PREDICTED BY IDOCK:   -0.76 KCAL/MOL
REMARK 927      BINDING AFFINITY PREDICTED BY RF-SCORE:    0.00 PKD
ROOT
HETATM    1  C   UNL     1      -7.044   6.842  68.922  1.00  0.00    -0.089 C  
HETATM    2  C   UNL     1      -8.303   6.436  68.217  1.00  0.00    -0.116 C  
HETATM    3  O   UNL     1      -8.596   5.281  67.944  1.00  0.00    -0.105 OA 
ENDROOT
BRANCH   2   4
HETATM    4  O   UNL     1      -9.043   7.534  67.899  1.00  0.00    -0.131 OA 
BRANCH   4   5
HETATM    5  C   UNL     1      -8.293   8.738  67.660  1.00  0.00    -0.114 C  
HETATM    6  C   UNL     1      -9.206   9.979  67.590  1.00  0.00    -0.148 C  
HETATM    7  C   UNL     1      -8.339  11.197  67.202  1.00  0.00    -0.136 C  
HETATM    8  C   UNL     1      -9.982  10.150  68.919  1.00  0.00    -0.207 C  
BRANCH   7   9
HETATM    9  O   UNL     1      -9.086  12.418  67.083  1.00  0.00    -0.185 OA 
BRANCH   9  10
HETATM   10  C   UNL     1      -8.539  13.536  67.627  1.00  0.00    -0.185 C  
HETATM   11  O   UNL     1      -7.367  13.664  67.947  1.00  0.00    -0.113 OA 
HETATM   12  C   UNL     1      -9.561  14.633  67.724  1.00  0.00    -0.213 C  
ENDBRANCH   9  10
ENDBRANCH   7   9
BRANCH   8  13
HETATM   13  C   UNL     1     -11.002  11.289  68.908  1.00  0.00    -0.223 C  
BRANCH  13  14
HETATM   14  N   UNL     1     -11.787  11.366  70.120  1.00  0.00    -0.337 NA 
HETATM   15  C   UNL     1     -12.202  10.312  70.886  1.00  0.00    -0.365 A  
HETATM   16  N   UNL     1     -12.974  10.708  71.879  1.00  0.00    -0.469 NA 
HETATM   17  C   UNL     1     -13.089  12.069  71.714  1.00  0.00    -0.355 A  
HETATM   18  C   UNL     1     -13.778  13.057  72.402  1.00  0.00    -0.494 A  
HETATM   19  N   UNL     1     -13.721  14.342  71.962  1.00  0.00    -0.408 NA 
HETATM   20  C   UNL     1     -12.999  14.619  70.862  1.00  0.00    -0.365 A  
HETATM   21  N   UNL     1     -12.264  13.754  70.147  1.00  0.00    -0.350 NA 
HETATM   22  N   UNL     1     -12.997  15.935  70.447  1.00  0.00    -0.710 NA 
HETATM   23  H2  UNL     1     -12.701  16.538  71.214  1.00  0.00     0.000 HD 
HETATM   24  H1  UNL     1     -12.450  16.145  69.612  1.00  0.00     0.000 HD 
HETATM   25  C   UNL     1     -12.361  12.500  70.620  1.00  0.00    -0.282 A  
ENDBRANCH  13  14
ENDBRANCH   8  13
ENDBRANCH   4   5
ENDBRANCH   2   4
TORSDOF 6
ENDMDL
MODEL      171
REMARK 921   NORMALIZED FREE ENERGY PREDICTED BY IDOCK:   -4.32 KCAL/MOL
REMARK 922        TOTAL FREE ENERGY PREDICTED BY IDOCK:   -6.85 KCAL/MOL
REMARK 923 INTER-LIGAND FREE ENERGY PREDICTED BY IDOCK:   -6.05 KCAL/MOL
REMARK 924 INTRA-LIGAND FREE ENERGY PREDICTED BY IDOCK:   -0.80 KCAL/MOL
REMARK 927      BINDING AFFINITY PREDICTED BY RF-SCORE:    0.00 PKD
ROOT
HETATM    1  C   UNL     1      -7.203  10.855  66.327  1.00  0.00    -0.126 C  
HETATM    2  C   UNL     1      -7.461  11.912  67.358  1.00  0.00    -0.148 C  
HETATM    3  O   UNL     1      -6.804  12.052  68.378  1.00  0.00    -0.062 OA 
ENDROOT
BRANCH   2   4
HETATM    4  O   UNL     1      -8.544  12.659  67.009  1.00  0.00    -0.194 OA 
BRANCH   4   5
HETATM    5  C   UNL     1      -9.063  13.518  68.039  1.00  0.00    -0.201 C  
HETATM    6  C   UNL     1     -10.538  13.204  68.361  1.00  0.00    -0.264 C  
HETATM    7  C   UNL     1     -11.047  14.252  69.375  1.00  0.00    -0.246 C  
HETATM    8  C   UNL     1     -10.682  11.737  68.838  1.00  0.00    -0.241 C  
BRANCH   7   9
HETATM    9  O   UNL     1     -12.425  14.076  69.739  1.00  0.00    -0.325 OA 
BRANCH   9  10
HETATM   10  C   UNL     1     -12.835  14.637  70.907  1.00  0.00    -0.365 C  
HETATM   11  O   UNL     1     -13.927  14.466  71.425  1.00  0.00    -0.377 OA 
HETATM   12  C   UNL     1     -11.732  15.451  71.520  1.00  0.00    -0.467 C  
ENDBRANCH   9  10
ENDBRANCH   7   9
BRANCH   8  13
HETATM   13  C   UNL     1     -12.127  11.294  69.074  1.00  0.00    -0.257 C  
BRANCH  13  14
HETATM   14  N   UNL     1     -12.307  10.566  70.310  1.00  0.00    -0.308 NA 
HETATM   15  C   UNL     1     -13.020  10.982  71.401  1.00  0.00    -0.414 A  
HETATM   16  N   UNL     1     -12.921  10.127  72.400  1.00  0.00    -0.216 NA 
HETATM   17  C   UNL     1     -12.075   9.145  71.940  1.00  0.00    -0.378 A  
HETATM   18  C   UNL     1     -11.553   7.993  72.512  1.00  0.00    -0.403 A  
HETATM   19  N   UNL     1     -10.691   7.224  71.796  1.00  0.00    -0.217 NA 
HETATM   20  C   UNL     1     -10.361   7.607  70.550  1.00  0.00    -0.211 A  
HETATM   21  N   UNL     1     -10.834   8.673  69.887  1.00  0.00    -0.231 NA 
HETATM   22  N   UNL     1      -9.462   6.801  69.880  1.00  0.00    -0.156 NA 
HETATM   23  H2  UNL     1      -9.805   5.841  69.866  1.00  0.00     0.000 HD 
HETATM   24  H1  UNL     1      -9.212   7.092  68.935  1.00  0.00     0.000 HD 
HETATM   25  C   UNL     1     -11.675   9.401  70.641  1.00  0.00    -0.240 A  
ENDBRANCH  13  14
ENDBRANCH   8  13
ENDBRANCH   4   5
ENDBRANCH   2   4
TORSDOF 6
ENDMDL
MODEL      172
REMARK 921   NORMALIZED FREE ENERGY PREDICTED BY IDOCK:   -4.31 KCAL/MOL
REMARK 922        TOTAL FREE ENERGY PREDICTED BY IDOCK:   -6.83 KCAL/MOL
REMARK 923 INTER-LIGAND FREE ENERGY PREDICTED BY IDOCK:   -6.26 KCAL/MOL
REMARK 924 INTRA-LIGAND FREE ENERGY PREDICTED BY IDOCK:   -0.57 KCAL/MOL
REMARK 927      BINDING AFFINITY PREDICTED BY RF-SCORE:    0.00 PKD
ROOT
HETATM    1  C   UNL     1      -8.674  10.620  67.660  1.00  0.00    -0.121 C  
HETATM    2  C   UNL     1      -8.747  12.101  67.439  1.00  0.00    -0.177 C  
HETATM    3  O   UNL     1      -7.862  12.886  67.745  1.00  0.00    -0.131 OA 
ENDROOT
BRANCH   2   4
HETATM    4  O   UNL     1      -9.945  12.439  66.887  1.00  0.00    -0.210 OA 
BRANCH   4   5
HETATM    5  C   UNL     1     -11.044  12.545  67.808  1.00  0.00    -0.249 C  
HETATM    6  C   UNL     1     -10.801  13.636  68.870  1.00  0.00    -0.264 C  
HETATM    7  C   UNL     1     -11.961  13.589  69.888  1.00  0.00    -0.348 C  
HETATM    8  C   UNL     1     -10.609  15.014  68.189  1.00  0.00    -0.248 C  
BRANCH   7   9
HETATM    9  O   UNL     1     -11.836  14.553  70.946  1.00  0.00    -0.307 OA 
BRANCH   9  10
HETATM   10  C   UNL     1     -12.602  14.364  72.052  1.00  0.00    -0.314 C  
HETATM   11  O   UNL     1     -13.520  13.564  72.145  1.00  0.00    -0.449 OA 
HETATM   12  C   UNL     1     -12.125  15.231  73.181  1.00  0.00    -0.537 C  
ENDBRANCH   9  10
ENDBRANCH   7   9
BRANCH   8  13
HETATM   13  C   UNL     1     -10.248  16.145  69.152  1.00  0.00    -0.255 C  
BRANCH  13  14
HETATM   14  N   UNL     1      -9.137  16.951  68.697  1.00  0.00    -0.259 NA 
HETATM   15  C   UNL     1      -7.891  17.006  69.258  1.00  0.00     0.016 A  
HETATM   16  N   UNL     1      -7.129  17.901  68.660  1.00  0.00    -0.257 NA 
HETATM   17  C   UNL     1      -7.938  18.469  67.703  1.00  0.00    -0.246 A  
HETATM   18  C   UNL     1      -7.746  19.478  66.771  1.00  0.00    -0.258 A  
HETATM   19  N   UNL     1      -8.777  19.850  65.966  1.00  0.00    -0.327 NA 
HETATM   20  C   UNL     1      -9.962  19.228  66.102  1.00  0.00    -0.397 A  
HETATM   21  N   UNL     1     -10.246  18.217  66.937  1.00  0.00    -0.356 NA 
HETATM   22  N   UNL     1     -10.979  19.664  65.277  1.00  0.00    -0.309 NA 
HETATM   23  H2  UNL     1     -10.676  19.619  64.304  1.00  0.00     0.000 HD 
HETATM   24  H1  UNL     1     -11.878  19.193  65.380  1.00  0.00     0.000 HD 
HETATM   25  C   UNL     1      -9.196  17.895  67.712  1.00  0.00    -0.258 A  
ENDBRANCH  13  14
ENDBRANCH   8  13
ENDBRANCH   4   5
ENDBRANCH   2   4
TORSDOF 6
ENDMDL
MODEL      173
REMARK 921   NORMALIZED FREE ENERGY PREDICTED BY IDOCK:   -4.31 KCAL/MOL
REMARK 922        TOTAL FREE ENERGY PREDICTED BY IDOCK:   -6.83 KCAL/MOL
REMARK 923 INTER-LIGAND FREE ENERGY PREDICTED BY IDOCK:   -5.97 KCAL/MOL
REMARK 924 INTRA-LIGAND FREE ENERGY PREDICTED BY IDOCK:   -0.86 KCAL/MOL
REMARK 927      BINDING AFFINITY PREDICTED BY RF-SCORE:    0.00 PKD
ROOT
HETATM    1  C   UNL     1     -10.217   4.518  65.793  1.00  0.00    -0.289 C  
HETATM    2  C   UNL     1      -9.861   5.027  67.157  1.00  0.00    -0.182 C  
HETATM    3  O   UNL     1      -8.956   4.576  67.844  1.00  0.00    -0.108 OA 
ENDROOT
BRANCH   2   4
HETATM    4  O   UNL     1     -10.707   6.028  67.525  1.00  0.00    -0.247 OA 
BRANCH   4   5
HETATM    5  C   UNL     1     -10.645   7.218  66.721  1.00  0.00    -0.217 C  
HETATM    6  C   UNL     1     -10.429   8.481  67.578  1.00  0.00    -0.328 C  
HETATM    7  C   UNL     1     -10.508   9.715  66.653  1.00  0.00    -0.163 C  
HETATM    8  C   UNL     1      -9.104   8.368  68.374  1.00  0.00    -0.135 C  
BRANCH   7   9
HETATM    9  O   UNL     1     -10.341  10.963  67.345  1.00  0.00    -0.193 OA 
BRANCH   9  10
HETATM   10  C   UNL     1     -11.389  11.828  67.328  1.00  0.00    -0.315 C  
HETATM   11  O   UNL     1     -12.031  12.136  66.336  1.00  0.00    -0.611 OA 
HETATM   12  C   UNL     1     -11.700  12.310  68.715  1.00  0.00    -0.390 C  
ENDBRANCH   9  10
ENDBRANCH   7   9
BRANCH   8  13
HETATM   13  C   UNL     1      -8.855   9.524  69.344  1.00  0.00    -0.170 C  
BRANCH  13  14
HETATM   14  N   UNL     1      -8.498   9.086  70.675  1.00  0.00    -0.178 NA 
HETATM   15  C   UNL     1      -7.239   9.048  71.207  1.00  0.00    -0.074 A  
HETATM   16  N   UNL     1      -7.238   8.519  72.415  1.00  0.00    -0.235 NA 
HETATM   17  C   UNL     1      -8.548   8.168  72.646  1.00  0.00    -0.200 A  
HETATM   18  C   UNL     1      -9.195   7.550  73.706  1.00  0.00    -0.275 A  
HETATM   19  N   UNL     1     -10.529   7.301  73.621  1.00  0.00    -0.370 NA 
HETATM   20  C   UNL     1     -11.185   7.657  72.502  1.00  0.00    -0.346 A  
HETATM   21  N   UNL     1     -10.671   8.292  71.439  1.00  0.00    -0.220 NA 
HETATM   22  N   UNL     1     -12.531   7.356  72.461  1.00  0.00    -0.508 NA 
HETATM   23  H2  UNL     1     -12.999   7.755  73.275  1.00  0.00     0.000 HD 
HETATM   24  H1  UNL     1     -13.029   7.625  71.612  1.00  0.00     0.000 HD 
HETATM   25  C   UNL     1      -9.351   8.508  71.573  1.00  0.00    -0.222 A  
ENDBRANCH  13  14
ENDBRANCH   8  13
ENDBRANCH   4   5
ENDBRANCH   2   4
TORSDOF 6
ENDMDL
MODEL      174
REMARK 921   NORMALIZED FREE ENERGY PREDICTED BY IDOCK:   -4.30 KCAL/MOL
REMARK 922        TOTAL FREE ENERGY PREDICTED BY IDOCK:   -6.82 KCAL/MOL
REMARK 923 INTER-LIGAND FREE ENERGY PREDICTED BY IDOCK:   -5.98 KCAL/MOL
REMARK 924 INTRA-LIGAND FREE ENERGY PREDICTED BY IDOCK:   -0.84 KCAL/MOL
REMARK 927      BINDING AFFINITY PREDICTED BY RF-SCORE:    0.00 PKD
ROOT
HETATM    1  C   UNL     1     -12.599  14.033  65.722  1.00  0.00    -0.512 C  
HETATM    2  C   UNL     1     -11.875  14.141  67.030  1.00  0.00    -0.429 C  
HETATM    3  O   UNL     1     -12.252  14.824  67.970  1.00  0.00    -0.200 OA 
ENDROOT
BRANCH   2   4
HETATM    4  O   UNL     1     -10.732  13.402  67.000  1.00  0.00    -0.266 OA 
BRANCH   4   5
HETATM    5  C   UNL     1     -10.561  12.572  65.839  1.00  0.00    -0.265 C  
HETATM    6  C   UNL     1      -9.993  11.185  66.203  1.00  0.00    -0.273 C  
HETATM    7  C   UNL     1      -9.719  10.414  64.892  1.00  0.00    -0.309 C  
HETATM    8  C   UNL     1     -10.946  10.454  67.181  1.00  0.00    -0.263 C  
BRANCH   7   9
HETATM    9  O   UNL     1      -9.164   9.106  65.101  1.00  0.00    -0.219 OA 
BRANCH   9  10
HETATM   10  C   UNL     1      -8.092   8.757  64.342  1.00  0.00    -0.155 C  
HETATM   11  O   UNL     1      -8.069   7.844  63.532  1.00  0.00    -0.145 OA 
HETATM   12  C   UNL     1      -6.945   9.696  64.583  1.00  0.00    -0.112 C  
ENDBRANCH   9  10
ENDBRANCH   7   9
BRANCH   8  13
HETATM   13  C   UNL     1     -10.415   9.115  67.692  1.00  0.00    -0.261 C  
BRANCH  13  14
HETATM   14  N   UNL     1      -9.830   9.197  69.011  1.00  0.00    -0.170 NA 
HETATM   15  C   UNL     1      -8.555   9.592  69.311  1.00  0.00    -0.153 A  
HETATM   16  N   UNL     1      -8.302   9.477  70.600  1.00  0.00    -0.244 NA 
HETATM   17  C   UNL     1      -9.452   8.946  71.138  1.00  0.00    -0.265 A  
HETATM   18  C   UNL     1      -9.814   8.566  72.422  1.00  0.00    -0.288 A  
HETATM   19  N   UNL     1     -11.043   8.027  72.637  1.00  0.00    -0.371 NA 
HETATM   20  C   UNL     1     -11.875   7.871  71.591  1.00  0.00    -0.288 A  
HETATM   21  N   UNL     1     -11.645   8.239  70.322  1.00  0.00    -0.073 NA 
HETATM   22  N   UNL     1     -13.099   7.295  71.864  1.00  0.00    -0.511 NA 
HETATM   23  H2  UNL     1     -13.569   7.818  72.603  1.00  0.00     0.000 HD 
HETATM   24  H1  UNL     1     -13.730   7.176  71.071  1.00  0.00     0.000 HD 
HETATM   25  C   UNL     1     -10.416   8.759  70.165  1.00  0.00    -0.213 A  
ENDBRANCH  13  14
ENDBRANCH   8  13
ENDBRANCH   4   5
ENDBRANCH   2   4
TORSDOF 6
ENDMDL
MODEL      175
REMARK 921   NORMALIZED FREE ENERGY PREDICTED BY IDOCK:   -4.29 KCAL/MOL
REMARK 922        TOTAL FREE ENERGY PREDICTED BY IDOCK:   -6.80 KCAL/MOL
REMARK 923 INTER-LIGAND FREE ENERGY PREDICTED BY IDOCK:   -6.23 KCAL/MOL
REMARK 924 INTRA-LIGAND FREE ENERGY PREDICTED BY IDOCK:   -0.57 KCAL/MOL
REMARK 927      BINDING AFFINITY PREDICTED BY RF-SCORE:    0.00 PKD
ROOT
HETATM    1  C   UNL     1     -10.345  10.404  64.291  1.00  0.00    -0.057 C  
HETATM    2  C   UNL     1     -10.439  11.843  63.882  1.00  0.00    -0.397 C  
HETATM    3  O   UNL     1      -9.696  12.376  63.071  1.00  0.00    -0.159 OA 
ENDROOT
BRANCH   2   4
HETATM    4  O   UNL     1     -11.438  12.466  64.565  1.00  0.00    -0.312 OA 
BRANCH   4   5
HETATM    5  C   UNL     1     -11.076  13.705  65.199  1.00  0.00    -0.318 C  
HETATM    6  C   UNL     1     -10.990  13.563  66.732  1.00  0.00    -0.297 C  
HETATM    7  C   UNL     1     -10.728  14.960  67.335  1.00  0.00    -0.292 C  
HETATM    8  C   UNL     1      -9.930  12.498  67.114  1.00  0.00    -0.217 C  
BRANCH   7   9
HETATM    9  O   UNL     1     -10.649  14.961  68.769  1.00  0.00    -0.232 OA 
BRANCH   9  10
HETATM   10  C   UNL     1     -11.021  16.099  69.412  1.00  0.00    -0.333 C  
HETATM   11  O   UNL     1     -11.758  16.151  70.383  1.00  0.00    -0.334 OA 
HETATM   12  C   UNL     1     -10.344  17.294  68.805  1.00  0.00    -0.358 C  
ENDBRANCH   9  10
ENDBRANCH   7   9
BRANCH   8  13
HETATM   13  C   UNL     1      -9.851  12.202  68.612  1.00  0.00    -0.101 C  
BRANCH  13  14
HETATM   14  N   UNL     1      -9.930  10.792  68.920  1.00  0.00    -0.196 NA 
HETATM   15  C   UNL     1      -9.261   9.782  68.285  1.00  0.00    -0.129 A  
HETATM   16  N   UNL     1      -9.615   8.599  68.747  1.00  0.00    -0.154 NA 
HETATM   17  C   UNL     1     -10.580   8.865  69.691  1.00  0.00    -0.226 A  
HETATM   18  C   UNL     1     -11.360   8.059  70.508  1.00  0.00    -0.225 A  
HETATM   19  N   UNL     1     -12.276   8.631  71.333  1.00  0.00    -0.298 NA 
HETATM   20  C   UNL     1     -12.406   9.970  71.328  1.00  0.00    -0.398 A  
HETATM   21  N   UNL     1     -11.681  10.843  70.613  1.00  0.00    -0.340 NA 
HETATM   22  N   UNL     1     -13.369  10.494  72.166  1.00  0.00    -0.569 NA 
HETATM   23  H2  UNL     1     -13.212  10.168  73.119  1.00  0.00     0.000 HD 
HETATM   24  H1  UNL     1     -13.469  11.510  72.162  1.00  0.00     0.000 HD 
HETATM   25  C   UNL     1     -10.797  10.225  69.812  1.00  0.00    -0.287 A  
ENDBRANCH  13  14
ENDBRANCH   8  13
ENDBRANCH   4   5
ENDBRANCH   2   4
TORSDOF 6
ENDMDL
MODEL      176
REMARK 921   NORMALIZED FREE ENERGY PREDICTED BY IDOCK:   -4.29 KCAL/MOL
REMARK 922        TOTAL FREE ENERGY PREDICTED BY IDOCK:   -6.80 KCAL/MOL
REMARK 923 INTER-LIGAND FREE ENERGY PREDICTED BY IDOCK:   -6.89 KCAL/MOL
REMARK 924 INTRA-LIGAND FREE ENERGY PREDICTED BY IDOCK:    0.09 KCAL/MOL
REMARK 927      BINDING AFFINITY PREDICTED BY RF-SCORE:    0.00 PKD
ROOT
HETATM    1  C   UNL     1     -10.100   9.577  66.275  1.00  0.00    -0.327 C  
HETATM    2  C   UNL     1     -10.188  10.638  65.219  1.00  0.00    -0.282 C  
HETATM    3  O   UNL     1     -10.048  10.430  64.023  1.00  0.00    -0.307 OA 
ENDROOT
BRANCH   2   4
HETATM    4  O   UNL     1     -10.409  11.855  65.788  1.00  0.00    -0.232 OA 
BRANCH   4   5
HETATM    5  C   UNL     1      -9.256  12.482  66.376  1.00  0.00    -0.177 C  
HETATM    6  C   UNL     1      -9.611  13.826  67.044  1.00  0.00    -0.251 C  
HETATM    7  C   UNL     1      -8.302  14.487  67.528  1.00  0.00    -0.188 C  
HETATM    8  C   UNL     1     -10.663  13.609  68.160  1.00  0.00    -0.260 C  
BRANCH   7   9
HETATM    9  O   UNL     1      -8.502  15.765  68.153  1.00  0.00    -0.158 OA 
BRANCH   9  10
HETATM   10  C   UNL     1      -7.885  16.836  67.589  1.00  0.00    -0.175 C  
HETATM   11  O   UNL     1      -6.780  17.256  67.896  1.00  0.00    -0.158 OA 
HETATM   12  C   UNL     1      -8.721  17.403  66.478  1.00  0.00    -0.290 C  
ENDBRANCH   9  10
ENDBRANCH   7   9
BRANCH   8  13
HETATM   13  C   UNL     1     -11.166  14.900  68.808  1.00  0.00    -0.275 C  
BRANCH  13  14
HETATM   14  N   UNL     1     -11.998  14.671  69.967  1.00  0.00    -0.301 NA 
HETATM   15  C   UNL     1     -12.455  15.620  70.839  1.00  0.00    -0.445 A  
HETATM   16  N   UNL     1     -13.120  15.079  71.841  1.00  0.00    -0.325 NA 
HETATM   17  C   UNL     1     -13.050  13.723  71.618  1.00  0.00    -0.375 A  
HETATM   18  C   UNL     1     -13.518  12.618  72.315  1.00  0.00    -0.438 A  
HETATM   19  N   UNL     1     -13.251  11.370  71.847  1.00  0.00    -0.458 NA 
HETATM   20  C   UNL     1     -12.529  11.242  70.719  1.00  0.00    -0.376 A  
HETATM   21  N   UNL     1     -12.064  12.236  69.947  1.00  0.00    -0.282 NA 
HETATM   22  N   UNL     1     -12.267   9.952  70.304  1.00  0.00    -0.479 NA 
HETATM   23  H2  UNL     1     -13.141   9.434  70.215  1.00  0.00     0.000 HD 
HETATM   24  H1  UNL     1     -11.719   9.854  69.449  1.00  0.00     0.000 HD 
HETATM   25  C   UNL     1     -12.350  13.445  70.458  1.00  0.00    -0.329 A  
ENDBRANCH  13  14
ENDBRANCH   8  13
ENDBRANCH   4   5
ENDBRANCH   2   4
TORSDOF 6
ENDMDL
MODEL      177
REMARK 921   NORMALIZED FREE ENERGY PREDICTED BY IDOCK:   -4.27 KCAL/MOL
REMARK 922        TOTAL FREE ENERGY PREDICTED BY IDOCK:   -6.77 KCAL/MOL
REMARK 923 INTER-LIGAND FREE ENERGY PREDICTED BY IDOCK:   -6.01 KCAL/MOL
REMARK 924 INTRA-LIGAND FREE ENERGY PREDICTED BY IDOCK:   -0.76 KCAL/MOL
REMARK 927      BINDING AFFINITY PREDICTED BY RF-SCORE:    0.00 PKD
ROOT
HETATM    1  C   UNL     1      -5.267  12.076  68.421  1.00  0.00    -0.050 C  
HETATM    2  C   UNL     1      -6.637  11.491  68.252  1.00  0.00    -0.061 C  
HETATM    3  O   UNL     1      -6.862  10.411  67.725  1.00  0.00    -0.073 OA 
ENDROOT
BRANCH   2   4
HETATM    4  O   UNL     1      -7.581  12.345  68.733  1.00  0.00    -0.106 OA 
BRANCH   4   5
HETATM    5  C   UNL     1      -8.401  12.985  67.740  1.00  0.00    -0.175 C  
HETATM    6  C   UNL     1      -9.736  12.241  67.531  1.00  0.00    -0.190 C  
HETATM    7  C   UNL     1     -10.489  12.914  66.363  1.00  0.00    -0.267 C  
HETATM    8  C   UNL     1     -10.535  12.191  68.857  1.00  0.00    -0.142 C  
BRANCH   7   9
HETATM    9  O   UNL     1     -11.747  12.293  66.057  1.00  0.00    -0.399 OA 
BRANCH   9  10
HETATM   10  C   UNL     1     -12.488  12.848  65.062  1.00  0.00    -0.492 C  
HETATM   11  O   UNL     1     -12.795  12.293  64.019  1.00  0.00    -0.696 OA 
HETATM   12  C   UNL     1     -12.943  14.226  65.447  1.00  0.00    -0.230 C  
ENDBRANCH   9  10
ENDBRANCH   7   9
BRANCH   8  13
HETATM   13  C   UNL     1     -11.825  11.374  68.781  1.00  0.00    -0.323 C  
BRANCH  13  14
HETATM   14  N   UNL     1     -12.127  10.667  70.006  1.00  0.00    -0.313 NA 
HETATM   15  C   UNL     1     -12.888  11.129  71.044  1.00  0.00    -0.329 A  
HETATM   16  N   UNL     1     -12.902  10.279  72.051  1.00  0.00    -0.405 NA 
HETATM   17  C   UNL     1     -12.081   9.249  71.654  1.00  0.00    -0.379 A  
HETATM   18  C   UNL     1     -11.662   8.075  72.264  1.00  0.00    -0.371 A  
HETATM   19  N   UNL     1     -10.797   7.255  71.612  1.00  0.00    -0.220 NA 
HETATM   20  C   UNL     1     -10.364   7.610  70.389  1.00  0.00    -0.214 A  
HETATM   21  N   UNL     1     -10.733   8.694  69.691  1.00  0.00    -0.224 NA 
HETATM   22  N   UNL     1      -9.467   6.752  69.785  1.00  0.00    -0.145 NA 
HETATM   23  H2  UNL     1      -9.860   5.811  69.752  1.00  0.00     0.000 HD 
HETATM   24  H1  UNL     1      -9.139   7.021  68.858  1.00  0.00     0.000 HD 
HETATM   25  C   UNL     1     -11.583   9.472  70.384  1.00  0.00    -0.212 A  
ENDBRANCH  13  14
ENDBRANCH   8  13
ENDBRANCH   4   5
ENDBRANCH   2   4
TORSDOF 6
ENDMDL
MODEL      178
REMARK 921   NORMALIZED FREE ENERGY PREDICTED BY IDOCK:   -4.26 KCAL/MOL
REMARK 922        TOTAL FREE ENERGY PREDICTED BY IDOCK:   -6.76 KCAL/MOL
REMARK 923 INTER-LIGAND FREE ENERGY PREDICTED BY IDOCK:   -6.00 KCAL/MOL
REMARK 924 INTRA-LIGAND FREE ENERGY PREDICTED BY IDOCK:   -0.76 KCAL/MOL
REMARK 927      BINDING AFFINITY PREDICTED BY RF-SCORE:    0.00 PKD
ROOT
HETATM    1  C   UNL     1      -8.704   4.771  66.111  1.00  0.00    -0.116 C  
HETATM    2  C   UNL     1      -8.392   5.875  65.146  1.00  0.00    -0.143 C  
HETATM    3  O   UNL     1      -8.392   5.746  63.931  1.00  0.00    -0.112 OA 
ENDROOT
BRANCH   2   4
HETATM    4  O   UNL     1      -8.077   7.016  65.818  1.00  0.00    -0.109 OA 
BRANCH   4   5
HETATM    5  C   UNL     1      -8.527   8.238  65.207  1.00  0.00    -0.162 C  
HETATM    6  C   UNL     1      -9.474   9.029  66.133  1.00  0.00    -0.318 C  
HETATM    7  C   UNL     1     -10.008  10.250  65.352  1.00  0.00    -0.302 C  
HETATM    8  C   UNL     1      -8.753   9.389  67.456  1.00  0.00    -0.123 C  
BRANCH   7   9
HETATM    9  O   UNL     1     -10.924  11.058  66.107  1.00  0.00    -0.205 OA 
BRANCH   9  10
HETATM   10  C   UNL     1     -11.424  12.165  65.497  1.00  0.00    -0.343 C  
HETATM   11  O   UNL     1     -12.601  12.349  65.227  1.00  0.00    -0.636 OA 
HETATM   12  C   UNL     1     -10.338  13.173  65.256  1.00  0.00    -0.319 C  
ENDBRANCH   9  10
ENDBRANCH   7   9
BRANCH   8  13
HETATM   13  C   UNL     1      -9.645  10.076  68.490  1.00  0.00    -0.151 C  
BRANCH  13  14
HETATM   14  N   UNL     1      -9.411   9.621  69.841  1.00  0.00    -0.215 NA 
HETATM   15  C   UNL     1      -8.204   9.566  70.482  1.00  0.00    -0.167 A  
HETATM   16  N   UNL     1      -8.313   9.023  71.679  1.00  0.00    -0.349 NA 
HETATM   17  C   UNL     1      -9.641   8.680  71.789  1.00  0.00    -0.290 A  
HETATM   18  C   UNL     1     -10.384   8.055  72.780  1.00  0.00    -0.339 A  
HETATM   19  N   UNL     1     -11.706   7.817  72.574  1.00  0.00    -0.350 NA 
HETATM   20  C   UNL     1     -12.258   8.191  71.406  1.00  0.00    -0.297 A  
HETATM   21  N   UNL     1     -11.648   8.835  70.400  1.00  0.00    -0.159 NA 
HETATM   22  N   UNL     1     -13.598   7.901  71.242  1.00  0.00    -0.567 NA 
HETATM   23  H2  UNL     1     -14.133   8.294  72.016  1.00  0.00     0.000 HD 
HETATM   24  H1  UNL     1     -14.017   8.184  70.356  1.00  0.00     0.000 HD 
HETATM   25  C   UNL     1     -10.343   9.039  70.653  1.00  0.00    -0.229 A  
ENDBRANCH  13  14
ENDBRANCH   8  13
ENDBRANCH   4   5
ENDBRANCH   2   4
TORSDOF 6
ENDMDL
MODEL      179
REMARK 921   NORMALIZED FREE ENERGY PREDICTED BY IDOCK:   -4.26 KCAL/MOL
REMARK 922        TOTAL FREE ENERGY PREDICTED BY IDOCK:   -6.76 KCAL/MOL
REMARK 923 INTER-LIGAND FREE ENERGY PREDICTED BY IDOCK:   -6.04 KCAL/MOL
REMARK 924 INTRA-LIGAND FREE ENERGY PREDICTED BY IDOCK:   -0.72 KCAL/MOL
REMARK 927      BINDING AFFINITY PREDICTED BY RF-SCORE:    0.00 PKD
ROOT
HETATM    1  C   UNL     1      -8.083   8.681  68.625  1.00  0.00    -0.117 C  
HETATM    2  C   UNL     1      -8.112  10.030  69.277  1.00  0.00    -0.141 C  
HETATM    3  O   UNL     1      -7.278  10.423  70.079  1.00  0.00    -0.154 OA 
ENDROOT
BRANCH   2   4
HETATM    4  O   UNL     1      -9.211  10.726  68.876  1.00  0.00    -0.175 OA 
BRANCH   4   5
HETATM    5  C   UNL     1      -9.495  10.676  67.467  1.00  0.00    -0.153 C  
HETATM    6  C   UNL     1      -9.834  12.069  66.899  1.00  0.00    -0.217 C  
HETATM    7  C   UNL     1     -10.251  11.903  65.421  1.00  0.00    -0.263 C  
HETATM    8  C   UNL     1      -8.647  13.041  67.117  1.00  0.00    -0.195 C  
BRANCH   7   9
HETATM    9  O   UNL     1     -10.614  13.138  64.785  1.00  0.00    -0.330 OA 
BRANCH   9  10
HETATM   10  C   UNL     1     -11.855  13.213  64.236  1.00  0.00    -0.406 C  
HETATM   11  O   UNL     1     -12.494  14.241  64.076  1.00  0.00    -0.700 OA 
HETATM   12  C   UNL     1     -12.316  11.857  63.783  1.00  0.00    -0.541 C  
ENDBRANCH   9  10
ENDBRANCH   7   9
BRANCH   8  13
HETATM   13  C   UNL     1      -8.929  14.482  66.690  1.00  0.00    -0.219 C  
BRANCH  13  14
HETATM   14  N   UNL     1      -7.860  15.396  67.022  1.00  0.00    -0.219 NA 
HETATM   15  C   UNL     1      -6.699  15.086  67.674  1.00  0.00    -0.177 A  
HETATM   16  N   UNL     1      -5.967  16.159  67.900  1.00  0.00    -0.121 NA 
HETATM   17  C   UNL     1      -6.714  17.204  67.406  1.00  0.00    -0.148 A  
HETATM   18  C   UNL     1      -6.518  18.577  67.363  1.00  0.00    -0.195 A  
HETATM   19  N   UNL     1      -7.481  19.373  66.827  1.00  0.00    -0.229 NA 
HETATM   20  C   UNL     1      -8.605  18.803  66.356  1.00  0.00    -0.284 A  
HETATM   21  N   UNL     1      -8.880  17.491  66.310  1.00  0.00    -0.430 NA 
HETATM   22  N   UNL     1      -9.559  19.661  65.847  1.00  0.00    -0.407 NA 
HETATM   23  H2  UNL     1      -9.143  20.248  65.125  1.00  0.00     0.000 HD 
HETATM   24  H1  UNL     1     -10.411  19.229  65.490  1.00  0.00     0.000 HD 
HETATM   25  C   UNL     1      -7.900  16.752  66.858  1.00  0.00    -0.218 A  
ENDBRANCH  13  14
ENDBRANCH   8  13
ENDBRANCH   4   5
ENDBRANCH   2   4
TORSDOF 6
ENDMDL
MODEL      180
REMARK 921   NORMALIZED FREE ENERGY PREDICTED BY IDOCK:   -4.24 KCAL/MOL
REMARK 922        TOTAL FREE ENERGY PREDICTED BY IDOCK:   -6.73 KCAL/MOL
REMARK 923 INTER-LIGAND FREE ENERGY PREDICTED BY IDOCK:   -6.01 KCAL/MOL
REMARK 924 INTRA-LIGAND FREE ENERGY PREDICTED BY IDOCK:   -0.72 KCAL/MOL
REMARK 927      BINDING AFFINITY PREDICTED BY RF-SCORE:    0.00 PKD
ROOT
HETATM    1  C   UNL     1      -8.034   8.189  64.001  1.00  0.00    -0.139 C  
HETATM    2  C   UNL     1      -8.344   7.501  65.296  1.00  0.00    -0.106 C  
HETATM    3  O   UNL     1      -8.128   6.317  65.513  1.00  0.00    -0.115 OA 
ENDROOT
BRANCH   2   4
HETATM    4  O   UNL     1      -8.926   8.369  66.168  1.00  0.00    -0.156 OA 
BRANCH   4   5
HETATM    5  C   UNL     1      -9.582   7.767  67.297  1.00  0.00    -0.161 C  
HETATM    6  C   UNL     1     -10.043   8.821  68.324  1.00  0.00    -0.220 C  
HETATM    7  C   UNL     1     -10.612   8.083  69.555  1.00  0.00    -0.214 C  
HETATM    8  C   UNL     1     -11.033   9.814  67.665  1.00  0.00    -0.226 C  
BRANCH   7   9
HETATM    9  O   UNL     1     -11.059   8.965  70.597  1.00  0.00    -0.248 OA 
BRANCH   9  10
HETATM   10  C   UNL     1     -12.071   8.526  71.391  1.00  0.00    -0.303 C  
HETATM   11  O   UNL     1     -12.701   9.218  72.176  1.00  0.00    -0.377 OA 
HETATM   12  C   UNL     1     -12.361   7.077  71.126  1.00  0.00    -0.423 C  
ENDBRANCH   9  10
ENDBRANCH   7   9
BRANCH   8  13
HETATM   13  C   UNL     1     -11.461  10.968  68.572  1.00  0.00    -0.309 C  
BRANCH  13  14
HETATM   14  N   UNL     1     -11.158  12.270  68.023  1.00  0.00    -0.224 NA 
HETATM   15  C   UNL     1     -10.365  12.530  66.939  1.00  0.00    -0.229 A  
HETATM   16  N   UNL     1     -10.219  13.826  66.744  1.00  0.00    -0.264 NA 
HETATM   17  C   UNL     1     -10.917  14.417  67.771  1.00  0.00    -0.274 A  
HETATM   18  C   UNL     1     -11.128  15.737  68.143  1.00  0.00    -0.341 A  
HETATM   19  N   UNL     1     -11.854  16.009  69.260  1.00  0.00    -0.315 NA 
HETATM   20  C   UNL     1     -12.345  14.984  69.979  1.00  0.00    -0.309 A  
HETATM   21  N   UNL     1     -12.238  13.678  69.691  1.00  0.00    -0.302 NA 
HETATM   22  N   UNL     1     -13.053  15.318  71.116  1.00  0.00    -0.445 NA 
HETATM   23  H2  UNL     1     -13.806  15.962  70.876  1.00  0.00     0.000 HD 
HETATM   24  H1  UNL     1     -13.425  14.541  71.662  1.00  0.00     0.000 HD 
HETATM   25  C   UNL     1     -11.507  13.466  68.584  1.00  0.00    -0.310 A  
ENDBRANCH  13  14
ENDBRANCH   8  13
ENDBRANCH   4   5
ENDBRANCH   2   4
TORSDOF 6
ENDMDL
MODEL      181
REMARK 921   NORMALIZED FREE ENERGY PREDICTED BY IDOCK:   -4.24 KCAL/MOL
REMARK 922        TOTAL FREE ENERGY PREDICTED BY IDOCK:   -6.73 KCAL/MOL
REMARK 923 INTER-LIGAND FREE ENERGY PREDICTED BY IDOCK:   -5.85 KCAL/MOL
REMARK 924 INTRA-LIGAND FREE ENERGY PREDICTED BY IDOCK:   -0.88 KCAL/MOL
REMARK 927      BINDING AFFINITY PREDICTED BY RF-SCORE:    0.00 PKD
ROOT
HETATM    1  C   UNL     1      -8.728  10.089  63.849  1.00  0.00    -0.219 C  
HETATM    2  C   UNL     1      -8.363   9.301  65.070  1.00  0.00    -0.154 C  
HETATM    3  O   UNL     1      -8.822   8.201  65.341  1.00  0.00    -0.142 OA 
ENDROOT
BRANCH   2   4
HETATM    4  O   UNL     1      -7.484  10.000  65.840  1.00  0.00    -0.104 OA 
BRANCH   4   5
HETATM    5  C   UNL     1      -7.924  11.307  66.250  1.00  0.00    -0.086 C  
HETATM    6  C   UNL     1      -8.995  11.232  67.356  1.00  0.00    -0.144 C  
HETATM    7  C   UNL     1      -9.501  12.664  67.638  1.00  0.00    -0.189 C  
HETATM    8  C   UNL     1      -8.432  10.501  68.600  1.00  0.00    -0.138 C  
BRANCH   7   9
HETATM    9  O   UNL     1     -10.526  12.723  68.643  1.00  0.00    -0.244 OA 
BRANCH   9  10
HETATM   10  C   UNL     1     -11.611  13.496  68.379  1.00  0.00    -0.343 C  
HETATM   11  O   UNL     1     -12.049  13.740  67.266  1.00  0.00    -0.389 OA 
HETATM   12  C   UNL     1     -12.251  13.963  69.655  1.00  0.00    -0.374 C  
ENDBRANCH   9  10
ENDBRANCH   7   9
BRANCH   8  13
HETATM   13  C   UNL     1      -9.457  10.275  69.712  1.00  0.00    -0.091 C  
BRANCH  13  14
HETATM   14  N   UNL     1      -9.947   8.916  69.771  1.00  0.00    -0.186 NA 
HETATM   15  C   UNL     1      -9.570   7.881  68.960  1.00  0.00    -0.155 A  
HETATM   16  N   UNL     1     -10.263   6.788  69.214  1.00  0.00    -0.174 NA 
HETATM   17  C   UNL     1     -11.147   7.154  70.202  1.00  0.00    -0.272 A  
HETATM   18  C   UNL     1     -12.154   6.479  70.877  1.00  0.00    -0.230 A  
HETATM   19  N   UNL     1     -12.899   7.140  71.802  1.00  0.00    -0.347 NA 
HETATM   20  C   UNL     1     -12.641   8.440  72.032  1.00  0.00    -0.356 A  
HETATM   21  N   UNL     1     -11.672   9.178  71.471  1.00  0.00    -0.336 NA 
HETATM   22  N   UNL     1     -13.446   9.068  72.962  1.00  0.00    -0.936 NA 
HETATM   23  H2  UNL     1     -13.424   8.551  73.841  1.00  0.00     0.000 HD 
HETATM   24  H1  UNL     1     -13.252  10.054  73.136  1.00  0.00     0.000 HD 
HETATM   25  C   UNL     1     -10.971   8.478  70.562  1.00  0.00    -0.241 A  
ENDBRANCH  13  14
ENDBRANCH   8  13
ENDBRANCH   4   5
ENDBRANCH   2   4
TORSDOF 6
ENDMDL
MODEL      182
REMARK 921   NORMALIZED FREE ENERGY PREDICTED BY IDOCK:   -4.24 KCAL/MOL
REMARK 922        TOTAL FREE ENERGY PREDICTED BY IDOCK:   -6.73 KCAL/MOL
REMARK 923 INTER-LIGAND FREE ENERGY PREDICTED BY IDOCK:   -5.97 KCAL/MOL
REMARK 924 INTRA-LIGAND FREE ENERGY PREDICTED BY IDOCK:   -0.76 KCAL/MOL
REMARK 927      BINDING AFFINITY PREDICTED BY RF-SCORE:    0.00 PKD
ROOT
HETATM    1  C   UNL     1     -10.726   4.001  73.460  1.00  0.00    -0.306 C  
HETATM    2  C   UNL     1      -9.947   4.463  72.266  1.00  0.00    -0.177 C  
HETATM    3  O   UNL     1      -8.747   4.693  72.276  1.00  0.00    -0.116 OA 
ENDROOT
BRANCH   2   4
HETATM    4  O   UNL     1     -10.771   4.621  71.195  1.00  0.00     0.022 OA 
BRANCH   4   5
HETATM    5  C   UNL     1     -10.116   4.898  69.945  1.00  0.00    -0.262 C  
HETATM    6  C   UNL     1     -10.638   6.197  69.298  1.00  0.00    -0.348 C  
HETATM    7  C   UNL     1      -9.980   6.345  67.908  1.00  0.00    -0.131 C  
HETATM    8  C   UNL     1     -10.400   7.400  70.244  1.00  0.00    -0.217 C  
BRANCH   7   9
HETATM    9  O   UNL     1     -10.407   7.516  67.194  1.00  0.00    -0.252 OA 
BRANCH   9  10
HETATM   10  C   UNL     1      -9.484   8.137  66.413  1.00  0.00    -0.218 C  
HETATM   11  O   UNL     1      -8.585   7.579  65.805  1.00  0.00    -0.149 OA 
HETATM   12  C   UNL     1      -9.759   9.611  66.340  1.00  0.00    -0.285 C  
ENDBRANCH   9  10
ENDBRANCH   7   9
BRANCH   8  13
HETATM   13  C   UNL     1     -10.986   8.720  69.741  1.00  0.00    -0.140 C  
BRANCH  13  14
HETATM   14  N   UNL     1     -11.786   9.405  70.731  1.00  0.00    -0.283 NA 
HETATM   15  C   UNL     1     -12.481   8.825  71.756  1.00  0.00    -0.350 A  
HETATM   16  N   UNL     1     -13.179   9.715  72.434  1.00  0.00    -0.391 NA 
HETATM   17  C   UNL     1     -12.950  10.908  71.788  1.00  0.00    -0.451 A  
HETATM   18  C   UNL     1     -13.410  12.202  71.986  1.00  0.00    -0.365 A  
HETATM   19  N   UNL     1     -13.020  13.187  71.135  1.00  0.00    -0.250 NA 
HETATM   20  C   UNL     1     -12.200  12.876  70.115  1.00  0.00    -0.266 A  
HETATM   21  N   UNL     1     -11.665  11.674  69.854  1.00  0.00    -0.331 NA 
HETATM   22  N   UNL     1     -11.858  13.911  69.268  1.00  0.00    -0.326 NA 
HETATM   23  H2  UNL     1     -11.460  14.680  69.807  1.00  0.00     0.000 HD 
HETATM   24  H1  UNL     1     -11.237  13.675  68.494  1.00  0.00     0.000 HD 
HETATM   25  C   UNL     1     -12.088  10.738  70.720  1.00  0.00    -0.372 A  
ENDBRANCH  13  14
ENDBRANCH   8  13
ENDBRANCH   4   5
ENDBRANCH   2   4
TORSDOF 6
ENDMDL
MODEL      183
REMARK 921   NORMALIZED FREE ENERGY PREDICTED BY IDOCK:   -4.21 KCAL/MOL
REMARK 922        TOTAL FREE ENERGY PREDICTED BY IDOCK:   -6.70 KCAL/MOL
REMARK 923 INTER-LIGAND FREE ENERGY PREDICTED BY IDOCK:   -5.99 KCAL/MOL
REMARK 924 INTRA-LIGAND FREE ENERGY PREDICTED BY IDOCK:   -0.71 KCAL/MOL
REMARK 927      BINDING AFFINITY PREDICTED BY RF-SCORE:    0.00 PKD
ROOT
HETATM    1  C   UNL     1     -11.766   6.607  71.589  1.00  0.00    -0.362 C  
HETATM    2  C   UNL     1     -10.656   6.028  70.764  1.00  0.00    -0.255 C  
HETATM    3  O   UNL     1     -10.737   4.978  70.144  1.00  0.00    -0.176 OA 
ENDROOT
BRANCH   2   4
HETATM    4  O   UNL     1      -9.549   6.817  70.838  1.00  0.00    -0.168 OA 
BRANCH   4   5
HETATM    5  C   UNL     1      -8.901   7.093  69.585  1.00  0.00    -0.141 C  
HETATM    6  C   UNL     1      -9.764   7.993  68.677  1.00  0.00    -0.163 C  
HETATM    7  C   UNL     1      -9.055   8.128  67.312  1.00  0.00    -0.138 C  
HETATM    8  C   UNL     1     -10.053   9.344  69.379  1.00  0.00    -0.204 C  
BRANCH   7   9
HETATM    9  O   UNL     1      -9.778   8.932  66.367  1.00  0.00    -0.220 OA 
BRANCH   9  10
HETATM   10  C   UNL     1      -9.158   9.218  65.192  1.00  0.00    -0.206 C  
HETATM   11  O   UNL     1      -8.216   8.598  64.723  1.00  0.00    -0.145 OA 
HETATM   12  C   UNL     1      -9.835  10.368  64.503  1.00  0.00    -0.405 C  
ENDBRANCH   9  10
ENDBRANCH   7   9
BRANCH   8  13
HETATM   13  C   UNL     1     -10.998  10.263  68.606  1.00  0.00    -0.244 C  
BRANCH  13  14
HETATM   14  N   UNL     1     -10.350  11.447  68.089  1.00  0.00    -0.182 NA 
HETATM   15  C   UNL     1      -9.226  12.043  68.593  1.00  0.00    -0.037 A  
HETATM   16  N   UNL     1      -8.936  13.156  67.948  1.00  0.00    -0.190 NA 
HETATM   17  C   UNL     1      -9.941  13.295  67.019  1.00  0.00    -0.238 A  
HETATM   18  C   UNL     1     -10.226  14.260  66.062  1.00  0.00    -0.315 A  
HETATM   19  N   UNL     1     -11.342  14.133  65.298  1.00  0.00    -0.317 NA 
HETATM   20  C   UNL     1     -12.147  13.073  65.496  1.00  0.00    -0.452 A  
HETATM   21  N   UNL     1     -11.948  12.066  66.358  1.00  0.00    -0.593 NA 
HETATM   22  N   UNL     1     -13.279  13.009  64.709  1.00  0.00    -0.594 NA 
HETATM   23  H2  UNL     1     -13.018  13.064  63.724  1.00  0.00     0.000 HD 
HETATM   24  H1  UNL     1     -13.890  12.206  64.859  1.00  0.00     0.000 HD 
HETATM   25  C   UNL     1     -10.836  12.244  67.092  1.00  0.00    -0.244 A  
ENDBRANCH  13  14
ENDBRANCH   8  13
ENDBRANCH   4   5
ENDBRANCH   2   4
TORSDOF 6
ENDMDL
MODEL      184
REMARK 921   NORMALIZED FREE ENERGY PREDICTED BY IDOCK:   -4.20 KCAL/MOL
REMARK 922        TOTAL FREE ENERGY PREDICTED BY IDOCK:   -6.69 KCAL/MOL
REMARK 923 INTER-LIGAND FREE ENERGY PREDICTED BY IDOCK:   -5.76 KCAL/MOL
REMARK 924 INTRA-LIGAND FREE ENERGY PREDICTED BY IDOCK:   -0.92 KCAL/MOL
REMARK 927      BINDING AFFINITY PREDICTED BY RF-SCORE:    0.00 PKD
ROOT
HETATM    1  C   UNL     1     -10.260  12.722  66.086  1.00  0.00    -0.286 C  
HETATM    2  C   UNL     1     -11.542  12.744  66.863  1.00  0.00    -0.366 C  
HETATM    3  O   UNL     1     -12.237  13.738  67.012  1.00  0.00    -0.401 OA 
ENDROOT
BRANCH   2   4
HETATM    4  O   UNL     1     -11.791  11.518  67.400  1.00  0.00    -0.607 OA 
BRANCH   4   5
HETATM    5  C   UNL     1     -11.991  11.495  68.824  1.00  0.00    -0.271 C  
HETATM    6  C   UNL     1     -11.193  10.361  69.499  1.00  0.00    -0.325 C  
HETATM    7  C   UNL     1     -11.568  10.328  70.996  1.00  0.00    -0.343 C  
HETATM    8  C   UNL     1      -9.678  10.536  69.227  1.00  0.00    -0.215 C  
BRANCH   7   9
HETATM    9  O   UNL     1     -10.901   9.291  71.733  1.00  0.00    -0.368 OA 
BRANCH   9  10
HETATM   10  C   UNL     1     -11.672   8.292  72.237  1.00  0.00    -0.388 C  
HETATM   11  O   UNL     1     -12.850   8.110  71.974  1.00  0.00    -0.324 OA 
HETATM   12  C   UNL     1     -10.858   7.389  73.119  1.00  0.00    -0.435 C  
ENDBRANCH   9  10
ENDBRANCH   7   9
BRANCH   8  13
HETATM   13  C   UNL     1      -8.810   9.395  69.760  1.00  0.00    -0.183 C  
BRANCH  13  14
HETATM   14  N   UNL     1      -8.998   8.152  69.046  1.00  0.00    -0.144 NA 
HETATM   15  C   UNL     1      -9.390   6.958  69.584  1.00  0.00    -0.145 A  
HETATM   16  N   UNL     1      -9.386   5.995  68.683  1.00  0.00    -0.118 NA 
HETATM   17  C   UNL     1      -8.932   6.594  67.531  1.00  0.00    -0.114 A  
HETATM   18  C   UNL     1      -8.678   6.124  66.250  1.00  0.00    -0.143 A  
HETATM   19  N   UNL     1      -8.188   6.975  65.311  1.00  0.00    -0.137 NA 
HETATM   20  C   UNL     1      -7.957   8.255  65.654  1.00  0.00    -0.113 A  
HETATM   21  N   UNL     1      -8.204   8.824  66.843  1.00  0.00    -0.108 NA 
HETATM   22  N   UNL     1      -7.436   9.068  64.667  1.00  0.00    -0.101 NA 
HETATM   23  H2  UNL     1      -8.034   9.035  63.842  1.00  0.00     0.000 HD 
HETATM   24  H1  UNL     1      -7.260  10.038  64.927  1.00  0.00     0.000 HD 
HETATM   25  C   UNL     1      -8.680   7.938  67.734  1.00  0.00    -0.127 A  
ENDBRANCH  13  14
ENDBRANCH   8  13
ENDBRANCH   4   5
ENDBRANCH   2   4
TORSDOF 6
ENDMDL
MODEL      185
REMARK 921   NORMALIZED FREE ENERGY PREDICTED BY IDOCK:   -4.17 KCAL/MOL
REMARK 922        TOTAL FREE ENERGY PREDICTED BY IDOCK:   -6.64 KCAL/MOL
REMARK 923 INTER-LIGAND FREE ENERGY PREDICTED BY IDOCK:   -6.01 KCAL/MOL
REMARK 924 INTRA-LIGAND FREE ENERGY PREDICTED BY IDOCK:   -0.62 KCAL/MOL
REMARK 927      BINDING AFFINITY PREDICTED BY RF-SCORE:    0.00 PKD
ROOT
HETATM    1  C   UNL     1     -10.756   8.467  72.120  1.00  0.00    -0.426 C  
HETATM    2  C   UNL     1      -9.297   8.740  71.911  1.00  0.00    -0.273 C  
HETATM    3  O   UNL     1      -8.456   8.694  72.797  1.00  0.00    -0.396 OA 
ENDROOT
BRANCH   2   4
HETATM    4  O   UNL     1      -9.058   9.078  70.614  1.00  0.00    -0.193 OA 
BRANCH   4   5
HETATM    5  C   UNL     1      -8.472   8.045  69.803  1.00  0.00    -0.127 C  
HETATM    6  C   UNL     1      -9.291   7.785  68.523  1.00  0.00    -0.147 C  
HETATM    7  C   UNL     1      -8.668   6.580  67.785  1.00  0.00    -0.115 C  
HETATM    8  C   UNL     1      -9.378   9.076  67.671  1.00  0.00    -0.154 C  
BRANCH   7   9
HETATM    9  O   UNL     1      -9.362   6.225  66.578  1.00  0.00    -0.147 OA 
BRANCH   9  10
HETATM   10  C   UNL     1     -10.037   5.046  66.573  1.00  0.00    -0.248 C  
HETATM   11  O   UNL     1     -10.897   4.729  65.767  1.00  0.00    -0.295 OA 
HETATM   12  C   UNL     1      -9.532   4.143  67.662  1.00  0.00    -0.225 C  
ENDBRANCH   9  10
ENDBRANCH   7   9
BRANCH   8  13
HETATM   13  C   UNL     1     -10.268   8.952  66.433  1.00  0.00    -0.203 C  
BRANCH  13  14
HETATM   14  N   UNL     1     -10.257  10.134  65.601  1.00  0.00    -0.256 NA 
HETATM   15  C   UNL     1      -9.728  10.237  64.344  1.00  0.00    -0.315 A  
HETATM   16  N   UNL     1      -9.802  11.471  63.886  1.00  0.00    -0.284 NA 
HETATM   17  C   UNL     1     -10.368  12.193  64.912  1.00  0.00    -0.289 A  
HETATM   18  C   UNL     1     -10.684  13.535  65.070  1.00  0.00    -0.357 A  
HETATM   19  N   UNL     1     -11.216  13.962  66.246  1.00  0.00    -0.305 NA 
HETATM   20  C   UNL     1     -11.415  13.067  67.230  1.00  0.00    -0.332 A  
HETATM   21  N   UNL     1     -11.185  11.747  67.172  1.00  0.00    -0.298 NA 
HETATM   22  N   UNL     1     -11.933  13.561  68.410  1.00  0.00    -0.363 NA 
HETATM   23  H2  UNL     1     -12.800  14.065  68.222  1.00  0.00     0.000 HD 
HETATM   24  H1  UNL     1     -12.084  12.883  69.157  1.00  0.00     0.000 HD 
HETATM   25  C   UNL     1     -10.655  11.381  65.993  1.00  0.00    -0.266 A  
ENDBRANCH  13  14
ENDBRANCH   8  13
ENDBRANCH   4   5
ENDBRANCH   2   4
TORSDOF 6
ENDMDL
MODEL      186
REMARK 921   NORMALIZED FREE ENERGY PREDICTED BY IDOCK:   -4.16 KCAL/MOL
REMARK 922        TOTAL FREE ENERGY PREDICTED BY IDOCK:   -6.63 KCAL/MOL
REMARK 923 INTER-LIGAND FREE ENERGY PREDICTED BY IDOCK:   -5.89 KCAL/MOL
REMARK 924 INTRA-LIGAND FREE ENERGY PREDICTED BY IDOCK:   -0.73 KCAL/MOL
REMARK 927      BINDING AFFINITY PREDICTED BY RF-SCORE:    0.00 PKD
ROOT
HETATM    1  C   UNL     1     -12.360   7.123  71.098  1.00  0.00    -0.404 C  
HETATM    2  C   UNL     1     -13.123   8.296  71.634  1.00  0.00    -0.334 C  
HETATM    3  O   UNL     1     -14.338   8.320  71.771  1.00  0.00    -0.431 OA 
ENDROOT
BRANCH   2   4
HETATM    4  O   UNL     1     -12.278   9.327  71.907  1.00  0.00    -0.356 OA 
BRANCH   4   5
HETATM    5  C   UNL     1     -12.828  10.643  71.728  1.00  0.00    -0.444 C  
HETATM    6  C   UNL     1     -12.079  11.437  70.639  1.00  0.00    -0.469 C  
HETATM    7  C   UNL     1     -12.646  12.873  70.608  1.00  0.00    -0.177 C  
HETATM    8  C   UNL     1     -12.158  10.693  69.283  1.00  0.00    -0.206 C  
BRANCH   7   9
HETATM    9  O   UNL     1     -12.009  13.721  69.640  1.00  0.00    -0.303 OA 
BRANCH   9  10
HETATM   10  C   UNL     1     -11.920  15.044  69.936  1.00  0.00    -0.334 C  
HETATM   11  O   UNL     1     -11.832  15.945  69.117  1.00  0.00    -0.389 OA 
HETATM   12  C   UNL     1     -12.013  15.262  71.419  1.00  0.00    -0.428 C  
ENDBRANCH   9  10
ENDBRANCH   7   9
BRANCH   8  13
HETATM   13  C   UNL     1     -11.347  11.344  68.162  1.00  0.00    -0.304 C  
BRANCH  13  14
HETATM   14  N   UNL     1      -9.936  11.033  68.223  1.00  0.00    -0.173 NA 
HETATM   15  C   UNL     1      -8.912  11.931  68.347  1.00  0.00    -0.163 A  
HETATM   16  N   UNL     1      -7.736  11.337  68.287  1.00  0.00    -0.114 NA 
HETATM   17  C   UNL     1      -8.024  10.008  68.075  1.00  0.00    -0.101 A  
HETATM   18  C   UNL     1      -7.236   8.880  67.896  1.00  0.00    -0.083 A  
HETATM   19  N   UNL     1      -7.831   7.679  67.667  1.00  0.00    -0.121 NA 
HETATM   20  C   UNL     1      -9.173   7.621  67.613  1.00  0.00    -0.135 A  
HETATM   21  N   UNL     1     -10.029   8.634  67.811  1.00  0.00    -0.179 NA 
HETATM   22  N   UNL     1      -9.721   6.381  67.351  1.00  0.00    -0.118 NA 
HETATM   23  H2  UNL     1      -9.374   5.701  68.028  1.00  0.00     0.000 HD 
HETATM   24  H1  UNL     1     -10.739   6.336  67.310  1.00  0.00     0.000 HD 
HETATM   25  C   UNL     1      -9.390   9.796  68.027  1.00  0.00    -0.128 A  
ENDBRANCH  13  14
ENDBRANCH   8  13
ENDBRANCH   4   5
ENDBRANCH   2   4
TORSDOF 6
ENDMDL
MODEL      187
REMARK 921   NORMALIZED FREE ENERGY PREDICTED BY IDOCK:   -4.15 KCAL/MOL
REMARK 922        TOTAL FREE ENERGY PREDICTED BY IDOCK:   -6.61 KCAL/MOL
REMARK 923 INTER-LIGAND FREE ENERGY PREDICTED BY IDOCK:   -6.25 KCAL/MOL
REMARK 924 INTRA-LIGAND FREE ENERGY PREDICTED BY IDOCK:   -0.36 KCAL/MOL
REMARK 927      BINDING AFFINITY PREDICTED BY RF-SCORE:    0.00 PKD
ROOT
HETATM    1  C   UNL     1      -9.170   7.068  70.307  1.00  0.00    -0.156 C  
HETATM    2  C   UNL     1     -10.642   7.212  70.064  1.00  0.00    -0.232 C  
HETATM    3  O   UNL     1     -11.473   7.358  70.948  1.00  0.00    -0.274 OA 
ENDROOT
BRANCH   2   4
HETATM    4  O   UNL     1     -10.914   7.122  68.733  1.00  0.00    -0.156 OA 
BRANCH   4   5
HETATM    5  C   UNL     1      -9.834   7.481  67.855  1.00  0.00    -0.154 C  
HETATM    6  C   UNL     1     -10.172   8.724  67.007  1.00  0.00    -0.351 C  
HETATM    7  C   UNL     1      -9.018   8.957  66.007  1.00  0.00    -0.193 C  
HETATM    8  C   UNL     1     -10.469   9.936  67.926  1.00  0.00    -0.282 C  
BRANCH   7   9
HETATM    9  O   UNL     1      -9.229  10.083  65.140  1.00  0.00    -0.185 OA 
BRANCH   9  10
HETATM   10  C   UNL     1      -8.864   9.943  63.839  1.00  0.00    -0.227 C  
HETATM   11  O   UNL     1      -9.628   9.970  62.886  1.00  0.00    -0.267 OA 
HETATM   12  C   UNL     1      -7.373   9.814  63.718  1.00  0.00    -0.129 C  
ENDBRANCH   9  10
ENDBRANCH   7   9
BRANCH   8  13
HETATM   13  C   UNL     1     -10.927  11.190  67.181  1.00  0.00    -0.291 C  
BRANCH  13  14
HETATM   14  N   UNL     1     -11.337  12.260  68.063  1.00  0.00    -0.270 NA 
HETATM   15  C   UNL     1     -11.101  13.596  67.883  1.00  0.00    -0.261 A  
HETATM   16  N   UNL     1     -11.529  14.306  68.908  1.00  0.00    -0.267 NA 
HETATM   17  C   UNL     1     -12.024  13.379  69.796  1.00  0.00    -0.330 A  
HETATM   18  C   UNL     1     -12.585  13.478  71.061  1.00  0.00    -0.359 A  
HETATM   19  N   UNL     1     -12.953  12.347  71.719  1.00  0.00    -0.362 NA 
HETATM   20  C   UNL     1     -12.756  11.158  71.123  1.00  0.00    -0.408 A  
HETATM   21  N   UNL     1     -12.263  10.948  69.894  1.00  0.00    -0.342 NA 
HETATM   22  N   UNL     1     -13.126  10.042  71.848  1.00  0.00    -0.442 NA 
HETATM   23  H2  UNL     1     -14.101  10.126  72.136  1.00  0.00     0.000 HD 
HETATM   24  H1  UNL     1     -12.976   9.140  71.397  1.00  0.00     0.000 HD 
HETATM   25  C   UNL     1     -11.910  12.097  69.292  1.00  0.00    -0.313 A  
ENDBRANCH  13  14
ENDBRANCH   8  13
ENDBRANCH   4   5
ENDBRANCH   2   4
TORSDOF 6
ENDMDL
MODEL      188
REMARK 921   NORMALIZED FREE ENERGY PREDICTED BY IDOCK:   -4.15 KCAL/MOL
REMARK 922        TOTAL FREE ENERGY PREDICTED BY IDOCK:   -6.61 KCAL/MOL
REMARK 923 INTER-LIGAND FREE ENERGY PREDICTED BY IDOCK:   -5.73 KCAL/MOL
REMARK 924 INTRA-LIGAND FREE ENERGY PREDICTED BY IDOCK:   -0.88 KCAL/MOL
REMARK 927      BINDING AFFINITY PREDICTED BY RF-SCORE:    0.00 PKD
ROOT
HETATM    1  C   UNL     1      -9.793   8.349  72.291  1.00  0.00    -0.383 C  
HETATM    2  C   UNL     1     -11.272   8.491  72.089  1.00  0.00    -0.362 C  
HETATM    3  O   UNL     1     -12.115   7.938  72.779  1.00  0.00    -0.255 OA 
ENDROOT
BRANCH   2   4
HETATM    4  O   UNL     1     -11.529   9.288  71.016  1.00  0.00    -0.274 OA 
BRANCH   4   5
HETATM    5  C   UNL     1     -12.337  10.447  71.285  1.00  0.00    -0.401 C  
HETATM    6  C   UNL     1     -11.951  11.639  70.387  1.00  0.00    -0.448 C  
HETATM    7  C   UNL     1     -12.772  12.869  70.832  1.00  0.00    -0.207 C  
HETATM    8  C   UNL     1     -12.127  11.265  68.894  1.00  0.00    -0.292 C  
BRANCH   7   9
HETATM    9  O   UNL     1     -12.482  14.056  70.078  1.00  0.00    -0.335 OA 
BRANCH   9  10
HETATM   10  C   UNL     1     -11.572  14.919  70.602  1.00  0.00    -0.291 C  
HETATM   11  O   UNL     1     -11.582  15.344  71.746  1.00  0.00    -0.363 OA 
HETATM   12  C   UNL     1     -10.500  15.232  69.598  1.00  0.00    -0.279 C  
ENDBRANCH   9  10
ENDBRANCH   7   9
BRANCH   8  13
HETATM   13  C   UNL     1     -11.660  12.344  67.917  1.00  0.00    -0.356 C  
BRANCH  13  14
HETATM   14  N   UNL     1     -10.502  11.954  67.144  1.00  0.00    -0.217 NA 
HETATM   15  C   UNL     1     -10.510  11.305  65.941  1.00  0.00    -0.259 A  
HETATM   16  N   UNL     1      -9.289  11.016  65.536  1.00  0.00    -0.209 NA 
HETATM   17  C   UNL     1      -8.469  11.465  66.546  1.00  0.00    -0.170 A  
HETATM   18  C   UNL     1      -7.096  11.437  66.741  1.00  0.00    -0.132 A  
HETATM   19  N   UNL     1      -6.573  11.943  67.889  1.00  0.00    -0.069 NA 
HETATM   20  C   UNL     1      -7.408  12.455  68.811  1.00  0.00    -0.076 A  
HETATM   21  N   UNL     1      -8.740  12.570  68.710  1.00  0.00     0.069 NA 
HETATM   22  N   UNL     1      -6.824  12.931  69.967  1.00  0.00    -0.244 NA 
HETATM   23  H2  UNL     1      -6.107  13.618  69.734  1.00  0.00     0.000 HD 
HETATM   24  H1  UNL     1      -7.457  13.319  70.667  1.00  0.00     0.000 HD 
HETATM   25  C   UNL     1      -9.204  12.049  67.561  1.00  0.00    -0.180 A  
ENDBRANCH  13  14
ENDBRANCH   8  13
ENDBRANCH   4   5
ENDBRANCH   2   4
TORSDOF 6
ENDMDL
MODEL      189
REMARK 921   NORMALIZED FREE ENERGY PREDICTED BY IDOCK:   -4.14 KCAL/MOL
REMARK 922        TOTAL FREE ENERGY PREDICTED BY IDOCK:   -6.61 KCAL/MOL
REMARK 923 INTER-LIGAND FREE ENERGY PREDICTED BY IDOCK:   -5.73 KCAL/MOL
REMARK 924 INTRA-LIGAND FREE ENERGY PREDICTED BY IDOCK:   -0.88 KCAL/MOL
REMARK 927      BINDING AFFINITY PREDICTED BY RF-SCORE:    0.00 PKD
ROOT
HETATM    1  C   UNL     1      -5.802  11.159  67.266  1.00  0.00    -0.063 C  
HETATM    2  C   UNL     1      -7.167  10.905  66.699  1.00  0.00    -0.139 C  
HETATM    3  O   UNL     1      -8.040  11.755  66.604  1.00  0.00    -0.161 OA 
ENDROOT
BRANCH   2   4
HETATM    4  O   UNL     1      -7.298   9.597  66.346  1.00  0.00    -0.092 OA 
BRANCH   4   5
HETATM    5  C   UNL     1      -6.931   8.643  67.357  1.00  0.00    -0.078 C  
HETATM    6  C   UNL     1      -7.973   8.580  68.492  1.00  0.00    -0.117 C  
HETATM    7  C   UNL     1      -7.438   7.635  69.590  1.00  0.00    -0.091 C  
HETATM    8  C   UNL     1      -9.358   8.175  67.927  1.00  0.00    -0.145 C  
BRANCH   7   9
HETATM    9  O   UNL     1      -8.318   7.510  70.719  1.00  0.00    -0.115 OA 
BRANCH   9  10
HETATM   10  C   UNL     1      -8.085   8.326  71.781  1.00  0.00    -0.141 C  
HETATM   11  O   UNL     1      -7.156   9.112  71.875  1.00  0.00    -0.314 OA 
HETATM   12  C   UNL     1      -9.172   8.180  72.807  1.00  0.00    -0.341 C  
ENDBRANCH   9  10
ENDBRANCH   7   9
BRANCH   8  13
HETATM   13  C   UNL     1     -10.487   8.196  68.958  1.00  0.00    -0.198 C  
BRANCH  13  14
HETATM   14  N   UNL     1     -10.970   9.526  69.251  1.00  0.00    -0.190 NA 
HETATM   15  C   UNL     1     -10.546  10.690  68.671  1.00  0.00    -0.203 A  
HETATM   16  N   UNL     1     -11.123  11.743  69.216  1.00  0.00    -0.238 NA 
HETATM   17  C   UNL     1     -11.920  11.229  70.214  1.00  0.00    -0.379 A  
HETATM   18  C   UNL     1     -12.754  11.809  71.160  1.00  0.00    -0.305 A  
HETATM   19  N   UNL     1     -13.397  11.017  72.058  1.00  0.00    -0.403 NA 
HETATM   20  C   UNL     1     -13.201   9.687  72.007  1.00  0.00    -0.453 A  
HETATM   21  N   UNL     1     -12.454   9.020  71.115  1.00  0.00    -0.272 NA 
HETATM   22  N   UNL     1     -13.859   8.935  72.959  1.00  0.00    -1.107 NA 
HETATM   23  H2  UNL     1     -14.859   9.137  72.927  1.00  0.00     0.000 HD 
HETATM   24  H1  UNL     1     -13.710   7.927  72.922  1.00  0.00     0.000 HD 
HETATM   25  C   UNL     1     -11.837   9.850  70.257  1.00  0.00    -0.184 A  
ENDBRANCH  13  14
ENDBRANCH   8  13
ENDBRANCH   4   5
ENDBRANCH   2   4
TORSDOF 6
ENDMDL
MODEL      190
REMARK 921   NORMALIZED FREE ENERGY PREDICTED BY IDOCK:   -4.14 KCAL/MOL
REMARK 922        TOTAL FREE ENERGY PREDICTED BY IDOCK:   -6.60 KCAL/MOL
REMARK 923 INTER-LIGAND FREE ENERGY PREDICTED BY IDOCK:   -5.73 KCAL/MOL
REMARK 924 INTRA-LIGAND FREE ENERGY PREDICTED BY IDOCK:   -0.87 KCAL/MOL
REMARK 927      BINDING AFFINITY PREDICTED BY RF-SCORE:    0.00 PKD
ROOT
HETATM    1  C   UNL     1     -11.977   9.686  71.483  1.00  0.00    -0.485 C  
HETATM    2  C   UNL     1     -10.919  10.223  70.567  1.00  0.00    -0.270 C  
HETATM    3  O   UNL     1      -9.852   9.667  70.351  1.00  0.00    -0.248 OA 
ENDROOT
BRANCH   2   4
HETATM    4  O   UNL     1     -11.303  11.422  70.050  1.00  0.00    -0.260 OA 
BRANCH   4   5
HETATM    5  C   UNL     1     -11.948  11.363  68.765  1.00  0.00    -0.287 C  
HETATM    6  C   UNL     1     -11.319  12.351  67.761  1.00  0.00    -0.356 C  
HETATM    7  C   UNL     1     -12.152  12.316  66.461  1.00  0.00    -0.015 C  
HETATM    8  C   UNL     1      -9.817  12.029  67.562  1.00  0.00    -0.190 C  
BRANCH   7   9
HETATM    9  O   UNL     1     -11.673  13.217  65.449  1.00  0.00    -0.323 OA 
BRANCH   9  10
HETATM   10  C   UNL     1     -11.673  12.767  64.167  1.00  0.00    -0.401 C  
HETATM   11  O   UNL     1     -12.195  13.335  63.221  1.00  0.00    -0.663 OA 
HETATM   12  C   UNL     1     -10.879  11.497  64.052  1.00  0.00    -0.453 C  
ENDBRANCH   9  10
ENDBRANCH   7   9
BRANCH   8  13
HETATM   13  C   UNL     1      -9.075  13.024  66.669  1.00  0.00    -0.176 C  
BRANCH  13  14
HETATM   14  N   UNL     1      -8.947  14.337  67.261  1.00  0.00    -0.202 NA 
HETATM   15  C   UNL     1      -9.662  15.453  66.924  1.00  0.00    -0.231 A  
HETATM   16  N   UNL     1      -9.249  16.514  67.590  1.00  0.00    -0.200 NA 
HETATM   17  C   UNL     1      -8.199  16.061  68.354  1.00  0.00    -0.165 A  
HETATM   18  C   UNL     1      -7.331  16.681  69.242  1.00  0.00    -0.184 A  
HETATM   19  N   UNL     1      -6.345  15.954  69.831  1.00  0.00    -0.167 NA 
HETATM   20  C   UNL     1      -6.234  14.648  69.529  1.00  0.00    -0.120 A  
HETATM   21  N   UNL     1      -7.038  13.941  68.721  1.00  0.00    -0.106 NA 
HETATM   22  N   UNL     1      -5.199  13.966  70.136  1.00  0.00    -0.092 NA 
HETATM   23  H2  UNL     1      -5.257  14.081  71.148  1.00  0.00     0.000 HD 
HETATM   24  H1  UNL     1      -5.114  12.976  69.907  1.00  0.00     0.000 HD 
HETATM   25  C   UNL     1      -7.989  14.708  68.162  1.00  0.00    -0.136 A  
ENDBRANCH  13  14
ENDBRANCH   8  13
ENDBRANCH   4   5
ENDBRANCH   2   4
TORSDOF 6
ENDMDL
MODEL      191
REMARK 921   NORMALIZED FREE ENERGY PREDICTED BY IDOCK:   -4.13 KCAL/MOL
REMARK 922        TOTAL FREE ENERGY PREDICTED BY IDOCK:   -6.59 KCAL/MOL
REMARK 923 INTER-LIGAND FREE ENERGY PREDICTED BY IDOCK:   -5.88 KCAL/MOL
REMARK 924 INTRA-LIGAND FREE ENERGY PREDICTED BY IDOCK:   -0.71 KCAL/MOL
REMARK 927      BINDING AFFINITY PREDICTED BY RF-SCORE:    0.00 PKD
ROOT
HETATM    1  C   UNL     1     -10.545  14.174  64.834  1.00  0.00    -0.449 C  
HETATM    2  C   UNL     1     -10.549  13.497  66.172  1.00  0.00    -0.290 C  
HETATM    3  O   UNL     1      -9.973  13.926  67.160  1.00  0.00    -0.233 OA 
ENDROOT
BRANCH   2   4
HETATM    4  O   UNL     1     -11.250  12.331  66.111  1.00  0.00    -0.296 OA 
BRANCH   4   5
HETATM    5  C   UNL     1     -10.645  11.285  65.331  1.00  0.00    -0.250 C  
HETATM    6  C   UNL     1      -9.665  10.438  66.168  1.00  0.00    -0.262 C  
HETATM    7  C   UNL     1      -8.968   9.431  65.226  1.00  0.00    -0.204 C  
HETATM    8  C   UNL     1     -10.405   9.783  67.360  1.00  0.00    -0.297 C  
BRANCH   7   9
HETATM    9  O   UNL     1      -8.009   8.594  65.890  1.00  0.00    -0.099 OA 
BRANCH   9  10
HETATM   10  C   UNL     1      -7.786   7.363  65.359  1.00  0.00    -0.110 C  
HETATM   11  O   UNL     1      -7.438   7.144  64.209  1.00  0.00    -0.083 OA 
HETATM   12  C   UNL     1      -7.961   6.297  66.402  1.00  0.00    -0.109 C  
ENDBRANCH   9  10
ENDBRANCH   7   9
BRANCH   8  13
HETATM   13  C   UNL     1      -9.495   9.013  68.317  1.00  0.00    -0.146 C  
BRANCH  13  14
HETATM   14  N   UNL     1     -10.205   8.056  69.136  1.00  0.00    -0.213 NA 
HETATM   15  C   UNL     1     -10.180   6.695  69.001  1.00  0.00    -0.177 A  
HETATM   16  N   UNL     1     -11.002   6.108  69.849  1.00  0.00    -0.353 NA 
HETATM   17  C   UNL     1     -11.606   7.142  70.526  1.00  0.00    -0.290 A  
HETATM   18  C   UNL     1     -12.576   7.193  71.516  1.00  0.00    -0.390 A  
HETATM   19  N   UNL     1     -13.004   8.401  71.970  1.00  0.00    -0.350 NA 
HETATM   20  C   UNL     1     -12.476   9.518  71.439  1.00  0.00    -0.362 A  
HETATM   21  N   UNL     1     -11.509   9.585  70.512  1.00  0.00    -0.271 NA 
HETATM   22  N   UNL     1     -12.967  10.715  71.920  1.00  0.00    -0.469 NA 
HETATM   23  H2  UNL     1     -12.877  10.741  72.935  1.00  0.00     0.000 HD 
HETATM   24  H1  UNL     1     -12.566  11.562  71.517  1.00  0.00     0.000 HD 
HETATM   25  C   UNL     1     -11.128   8.366  70.094  1.00  0.00    -0.182 A  
ENDBRANCH  13  14
ENDBRANCH   8  13
ENDBRANCH   4   5
ENDBRANCH   2   4
TORSDOF 6
ENDMDL
MODEL      192
REMARK 921   NORMALIZED FREE ENERGY PREDICTED BY IDOCK:   -4.13 KCAL/MOL
REMARK 922        TOTAL FREE ENERGY PREDICTED BY IDOCK:   -6.59 KCAL/MOL
REMARK 923 INTER-LIGAND FREE ENERGY PREDICTED BY IDOCK:   -6.08 KCAL/MOL
REMARK 924 INTRA-LIGAND FREE ENERGY PREDICTED BY IDOCK:   -0.51 KCAL/MOL
REMARK 927      BINDING AFFINITY PREDICTED BY RF-SCORE:    0.00 PKD
ROOT
HETATM    1  C   UNL     1      -7.117   8.779  68.109  1.00  0.00    -0.078 C  
HETATM    2  C   UNL     1      -8.184   9.177  67.134  1.00  0.00    -0.113 C  
HETATM    3  O   UNL     1      -8.302   8.702  66.014  1.00  0.00    -0.119 OA 
ENDROOT
BRANCH   2   4
HETATM    4  O   UNL     1      -8.966  10.157  67.662  1.00  0.00    -0.131 OA 
BRANCH   4   5
HETATM    5  C   UNL     1      -8.268  11.328  68.120  1.00  0.00    -0.140 C  
HETATM    6  C   UNL     1      -9.063  12.619  67.836  1.00  0.00    -0.200 C  
HETATM    7  C   UNL     1      -8.187  13.826  68.236  1.00  0.00    -0.156 C  
HETATM    8  C   UNL     1     -10.439  12.569  68.547  1.00  0.00    -0.246 C  
BRANCH   7   9
HETATM    9  O   UNL     1      -8.815  15.096  67.997  1.00  0.00    -0.166 OA 
BRANCH   9  10
HETATM   10  C   UNL     1      -8.244  16.189  68.566  1.00  0.00    -0.186 C  
HETATM   11  O   UNL     1      -8.640  17.337  68.441  1.00  0.00    -0.236 OA 
HETATM   12  C   UNL     1      -7.085  15.789  69.434  1.00  0.00    -0.209 C  
ENDBRANCH   9  10
ENDBRANCH   7   9
BRANCH   8  13
HETATM   13  C   UNL     1     -11.350  13.756  68.234  1.00  0.00    -0.285 C  
BRANCH  13  14
HETATM   14  N   UNL     1     -11.906  14.377  69.416  1.00  0.00    -0.306 NA 
HETATM   15  C   UNL     1     -11.868  15.708  69.728  1.00  0.00    -0.363 A  
HETATM   16  N   UNL     1     -12.389  15.943  70.916  1.00  0.00    -0.392 NA 
HETATM   17  C   UNL     1     -12.738  14.703  71.398  1.00  0.00    -0.333 A  
HETATM   18  C   UNL     1     -13.300  14.269  72.590  1.00  0.00    -0.525 A  
HETATM   19  N   UNL     1     -13.496  12.939  72.791  1.00  0.00    -0.422 NA 
HETATM   20  C   UNL     1     -13.131  12.077  71.825  1.00  0.00    -0.355 A  
HETATM   21  N   UNL     1     -12.620  12.387  70.625  1.00  0.00    -0.212 NA 
HETATM   22  N   UNL     1     -13.330  10.738  72.094  1.00  0.00    -0.579 NA 
HETATM   23  H2  UNL     1     -14.305  10.578  72.348  1.00  0.00     0.000 HD 
HETATM   24  H1  UNL     1     -13.053  10.083  71.362  1.00  0.00     0.000 HD 
HETATM   25  C   UNL     1     -12.441  13.711  70.482  1.00  0.00    -0.324 A  
ENDBRANCH  13  14
ENDBRANCH   8  13
ENDBRANCH   4   5
ENDBRANCH   2   4
TORSDOF 6
ENDMDL
MODEL      193
REMARK 921   NORMALIZED FREE ENERGY PREDICTED BY IDOCK:   -4.12 KCAL/MOL
REMARK 922        TOTAL FREE ENERGY PREDICTED BY IDOCK:   -6.57 KCAL/MOL
REMARK 923 INTER-LIGAND FREE ENERGY PREDICTED BY IDOCK:   -5.71 KCAL/MOL
REMARK 924 INTRA-LIGAND FREE ENERGY PREDICTED BY IDOCK:   -0.85 KCAL/MOL
REMARK 927      BINDING AFFINITY PREDICTED BY RF-SCORE:    0.00 PKD
ROOT
HETATM    1  C   UNL     1     -10.935  14.541  66.275  1.00  0.00    -0.323 C  
HETATM    2  C   UNL     1     -11.834  13.626  65.499  1.00  0.00    -0.362 C  
HETATM    3  O   UNL     1     -12.061  13.739  64.303  1.00  0.00    -0.426 OA 
ENDROOT
BRANCH   2   4
HETATM    4  O   UNL     1     -12.378  12.688  66.321  1.00  0.00    -0.550 OA 
BRANCH   4   5
HETATM    5  C   UNL     1     -11.973  12.761  67.698  1.00  0.00    -0.273 C  
HETATM    6  C   UNL     1     -11.690  11.365  68.289  1.00  0.00    -0.359 C  
HETATM    7  C   UNL     1     -11.393  11.527  69.796  1.00  0.00    -0.226 C  
HETATM    8  C   UNL     1     -10.563  10.663  67.492  1.00  0.00    -0.297 C  
BRANCH   7   9
HETATM    9  O   UNL     1     -11.133  10.284  70.467  1.00  0.00    -0.302 OA 
BRANCH   9  10
HETATM   10  C   UNL     1     -12.098   9.815  71.302  1.00  0.00    -0.382 C  
HETATM   11  O   UNL     1     -12.835  10.507  71.985  1.00  0.00    -0.429 OA 
HETATM   12  C   UNL     1     -12.184   8.318  71.223  1.00  0.00    -0.295 C  
ENDBRANCH   9  10
ENDBRANCH   7   9
BRANCH   8  13
HETATM   13  C   UNL     1     -10.287   9.224  67.930  1.00  0.00    -0.227 C  
BRANCH  13  14
HETATM   14  N   UNL     1      -8.921   8.809  67.703  1.00  0.00    -0.135 NA 
HETATM   15  C   UNL     1      -8.512   7.716  66.990  1.00  0.00    -0.125 A  
HETATM   16  N   UNL     1      -7.203   7.566  67.040  1.00  0.00    -0.083 NA 
HETATM   17  C   UNL     1      -6.763   8.585  67.853  1.00  0.00    -0.066 A  
HETATM   18  C   UNL     1      -5.510   8.957  68.318  1.00  0.00    -0.038 A  
HETATM   19  N   UNL     1      -5.399  10.020  69.159  1.00  0.00    -0.035 NA 
HETATM   20  C   UNL     1      -6.514  10.679  69.523  1.00  0.00    -0.078 A  
HETATM   21  N   UNL     1      -7.764  10.432  69.103  1.00  0.00    -0.114 NA 
HETATM   22  N   UNL     1      -6.343  11.732  70.398  1.00  0.00    -0.501 NA 
HETATM   23  H2  UNL     1      -5.664  12.390  70.017  1.00  0.00     0.000 HD 
HETATM   24  H1  UNL     1      -7.189  12.232  70.674  1.00  0.00     0.000 HD 
HETATM   25  C   UNL     1      -7.817   9.370  68.281  1.00  0.00    -0.090 A  
ENDBRANCH  13  14
ENDBRANCH   8  13
ENDBRANCH   4   5
ENDBRANCH   2   4
TORSDOF 6
ENDMDL
MODEL      194
REMARK 921   NORMALIZED FREE ENERGY PREDICTED BY IDOCK:   -4.11 KCAL/MOL
REMARK 922        TOTAL FREE ENERGY PREDICTED BY IDOCK:   -6.56 KCAL/MOL
REMARK 923 INTER-LIGAND FREE ENERGY PREDICTED BY IDOCK:   -6.17 KCAL/MOL
REMARK 924 INTRA-LIGAND FREE ENERGY PREDICTED BY IDOCK:   -0.39 KCAL/MOL
REMARK 927      BINDING AFFINITY PREDICTED BY RF-SCORE:    0.00 PKD
ROOT
HETATM    1  C   UNL     1      -7.585   9.237  68.170  1.00  0.00    -0.084 C  
HETATM    2  C   UNL     1      -7.797  10.608  68.736  1.00  0.00    -0.125 C  
HETATM    3  O   UNL     1      -7.011  11.172  69.482  1.00  0.00    -0.121 OA 
ENDROOT
BRANCH   2   4
HETATM    4  O   UNL     1      -8.996  11.108  68.329  1.00  0.00    -0.151 OA 
BRANCH   4   5
HETATM    5  C   UNL     1      -9.027  11.630  66.989  1.00  0.00    -0.182 C  
HETATM    6  C   UNL     1     -10.035  12.788  66.846  1.00  0.00    -0.232 C  
HETATM    7  C   UNL     1     -10.098  13.195  65.357  1.00  0.00    -0.248 C  
HETATM    8  C   UNL     1      -9.663  13.946  67.805  1.00  0.00    -0.225 C  
BRANCH   7   9
HETATM    9  O   UNL     1     -11.027  14.258  65.092  1.00  0.00    -0.324 OA 
BRANCH   9  10
HETATM   10  C   UNL     1     -12.043  13.994  64.230  1.00  0.00    -0.445 C  
HETATM   11  O   UNL     1     -12.770  14.832  63.720  1.00  0.00    -0.767 OA 
HETATM   12  C   UNL     1     -12.116  12.525  63.931  1.00  0.00    -0.581 C  
ENDBRANCH   9  10
ENDBRANCH   7   9
BRANCH   8  13
HETATM   13  C   UNL     1     -10.670  15.096  67.821  1.00  0.00    -0.279 C  
BRANCH  13  14
HETATM   14  N   UNL     1     -10.076  16.380  67.524  1.00  0.00    -0.255 NA 
HETATM   15  C   UNL     1     -10.515  17.284  66.596  1.00  0.00    -0.257 A  
HETATM   16  N   UNL     1      -9.706  18.321  66.508  1.00  0.00    -0.329 NA 
HETATM   17  C   UNL     1      -8.686  18.047  67.389  1.00  0.00    -0.248 A  
HETATM   18  C   UNL     1      -7.523  18.719  67.739  1.00  0.00    -0.228 A  
HETATM   19  N   UNL     1      -6.673  18.160  68.641  1.00  0.00    -0.229 NA 
HETATM   20  C   UNL     1      -6.983  16.961  69.166  1.00  0.00    -0.234 A  
HETATM   21  N   UNL     1      -8.092  16.246  68.932  1.00  0.00    -0.220 NA 
HETATM   22  N   UNL     1      -6.071  16.430  70.056  1.00  0.00    -0.190 NA 
HETATM   23  H2  UNL     1      -5.892  17.099  70.806  1.00  0.00     0.000 HD 
HETATM   24  H1  UNL     1      -6.305  15.521  70.454  1.00  0.00     0.000 HD 
HETATM   25  C   UNL     1      -8.893  16.840  68.031  1.00  0.00    -0.216 A  
ENDBRANCH  13  14
ENDBRANCH   8  13
ENDBRANCH   4   5
ENDBRANCH   2   4
TORSDOF 6
ENDMDL
MODEL      195
REMARK 921   NORMALIZED FREE ENERGY PREDICTED BY IDOCK:   -4.09 KCAL/MOL
REMARK 922        TOTAL FREE ENERGY PREDICTED BY IDOCK:   -6.53 KCAL/MOL
REMARK 923 INTER-LIGAND FREE ENERGY PREDICTED BY IDOCK:   -5.91 KCAL/MOL
REMARK 924 INTRA-LIGAND FREE ENERGY PREDICTED BY IDOCK:   -0.63 KCAL/MOL
REMARK 927      BINDING AFFINITY PREDICTED BY RF-SCORE:    0.00 PKD
ROOT
HETATM    1  C   UNL     1     -13.521  13.586  72.372  1.00  0.00    -0.685 C  
HETATM    2  C   UNL     1     -12.720  13.353  71.126  1.00  0.00    -0.328 C  
HETATM    3  O   UNL     1     -12.377  14.238  70.356  1.00  0.00    -0.313 OA 
ENDROOT
BRANCH   2   4
HETATM    4  O   UNL     1     -12.468  12.025  70.966  1.00  0.00    -0.368 OA 
BRANCH   4   5
HETATM    5  C   UNL     1     -12.394  11.569  69.604  1.00  0.00    -0.142 C  
HETATM    6  C   UNL     1     -11.078  10.818  69.320  1.00  0.00    -0.312 C  
HETATM    7  C   UNL     1     -11.026  10.483  67.814  1.00  0.00    -0.313 C  
HETATM    8  C   UNL     1     -10.954   9.584  70.249  1.00  0.00    -0.317 C  
BRANCH   7   9
HETATM    9  O   UNL     1      -9.828   9.796  67.419  1.00  0.00    -0.160 OA 
BRANCH   9  10
HETATM   10  C   UNL     1      -9.925   8.924  66.382  1.00  0.00    -0.284 C  
HETATM   11  O   UNL     1      -9.528   9.132  65.246  1.00  0.00    -0.221 OA 
HETATM   12  C   UNL     1     -10.531   7.627  66.836  1.00  0.00    -0.388 C  
ENDBRANCH   9  10
ENDBRANCH   7   9
BRANCH   8  13
HETATM   13  C   UNL     1      -9.626   8.836  70.124  1.00  0.00    -0.173 C  
BRANCH  13  14
HETATM   14  N   UNL     1      -9.104   8.380  71.392  1.00  0.00    -0.168 NA 
HETATM   15  C   UNL     1      -7.874   8.667  71.915  1.00  0.00    -0.070 A  
HETATM   16  N   UNL     1      -7.668   8.031  73.051  1.00  0.00    -0.134 NA 
HETATM   17  C   UNL     1      -8.801   7.273  73.240  1.00  0.00    -0.146 A  
HETATM   18  C   UNL     1      -9.191   6.372  74.220  1.00  0.00    -0.176 A  
HETATM   19  N   UNL     1     -10.389   5.739  74.107  1.00  0.00    -0.276 NA 
HETATM   20  C   UNL     1     -11.163   6.002  73.039  1.00  0.00    -0.197 A  
HETATM   21  N   UNL     1     -10.905   6.881  72.058  1.00  0.00    -0.221 NA 
HETATM   22  N   UNL     1     -12.356   5.312  72.963  1.00  0.00    -0.357 NA 
HETATM   23  H2  UNL     1     -12.891   5.455  73.820  1.00  0.00     0.000 HD 
HETATM   24  H1  UNL     1     -12.943   5.511  72.153  1.00  0.00     0.000 HD 
HETATM   25  C   UNL     1      -9.708   7.472  72.216  1.00  0.00    -0.160 A  
ENDBRANCH  13  14
ENDBRANCH   8  13
ENDBRANCH   4   5
ENDBRANCH   2   4
TORSDOF 6
ENDMDL
MODEL      196
REMARK 921   NORMALIZED FREE ENERGY PREDICTED BY IDOCK:   -4.09 KCAL/MOL
REMARK 922        TOTAL FREE ENERGY PREDICTED BY IDOCK:   -6.53 KCAL/MOL
REMARK 923 INTER-LIGAND FREE ENERGY PREDICTED BY IDOCK:   -5.73 KCAL/MOL
REMARK 924 INTRA-LIGAND FREE ENERGY PREDICTED BY IDOCK:   -0.80 KCAL/MOL
REMARK 927      BINDING AFFINITY PREDICTED BY RF-SCORE:    0.00 PKD
ROOT
HETATM    1  C   UNL     1     -11.653  14.719  67.748  1.00  0.00    -0.378 C  
HETATM    2  C   UNL     1     -12.109  13.928  66.559  1.00  0.00    -0.449 C  
HETATM    3  O   UNL     1     -12.423  14.422  65.486  1.00  0.00    -0.408 OA 
ENDROOT
BRANCH   2   4
HETATM    4  O   UNL     1     -12.154  12.602  66.861  1.00  0.00    -0.490 OA 
BRANCH   4   5
HETATM    5  C   UNL     1     -11.379  11.745  66.004  1.00  0.00    -0.273 C  
HETATM    6  C   UNL     1     -10.332  10.935  66.796  1.00  0.00    -0.289 C  
HETATM    7  C   UNL     1      -9.464  10.149  65.789  1.00  0.00    -0.208 C  
HETATM    8  C   UNL     1     -11.030  10.050  67.858  1.00  0.00    -0.311 C  
BRANCH   7   9
HETATM    9  O   UNL     1      -8.431   9.368  66.409  1.00  0.00    -0.123 OA 
BRANCH   9  10
HETATM   10  C   UNL     1      -7.156   9.826  66.304  1.00  0.00    -0.095 C  
HETATM   11  O   UNL     1      -6.594  10.109  65.258  1.00  0.00    -0.107 OA 
HETATM   12  C   UNL     1      -6.544  10.005  67.663  1.00  0.00    -0.067 C  
ENDBRANCH   9  10
ENDBRANCH   7   9
BRANCH   8  13
HETATM   13  C   UNL     1     -10.068   9.292  68.774  1.00  0.00    -0.195 C  
BRANCH  13  14
HETATM   14  N   UNL     1     -10.591   9.082  70.105  1.00  0.00    -0.216 NA 
HETATM   15  C   UNL     1     -11.526   9.851  70.741  1.00  0.00    -0.354 A  
HETATM   16  N   UNL     1     -11.728   9.444  71.979  1.00  0.00    -0.303 NA 
HETATM   17  C   UNL     1     -10.855   8.395  72.151  1.00  0.00    -0.337 A  
HETATM   18  C   UNL     1     -10.562   7.568  73.226  1.00  0.00    -0.384 A  
HETATM   19  N   UNL     1      -9.597   6.619  73.094  1.00  0.00    -0.149 NA 
HETATM   20  C   UNL     1      -8.947   6.514  71.922  1.00  0.00    -0.137 A  
HETATM   21  N   UNL     1      -9.176   7.229  70.811  1.00  0.00    -0.156 NA 
HETATM   22  N   UNL     1      -7.961   5.550  71.854  1.00  0.00    -0.112 NA 
HETATM   23  H2  UNL     1      -8.346   4.644  72.117  1.00  0.00     0.000 HD 
HETATM   24  H1  UNL     1      -7.467   5.471  70.965  1.00  0.00     0.000 HD 
HETATM   25  C   UNL     1     -10.133   8.155  70.997  1.00  0.00    -0.187 A  
ENDBRANCH  13  14
ENDBRANCH   8  13
ENDBRANCH   4   5
ENDBRANCH   2   4
TORSDOF 6
ENDMDL
MODEL      197
REMARK 921   NORMALIZED FREE ENERGY PREDICTED BY IDOCK:   -4.07 KCAL/MOL
REMARK 922        TOTAL FREE ENERGY PREDICTED BY IDOCK:   -6.50 KCAL/MOL
REMARK 923 INTER-LIGAND FREE ENERGY PREDICTED BY IDOCK:   -5.70 KCAL/MOL
REMARK 924 INTRA-LIGAND FREE ENERGY PREDICTED BY IDOCK:   -0.80 KCAL/MOL
REMARK 927      BINDING AFFINITY PREDICTED BY RF-SCORE:    0.00 PKD
ROOT
HETATM    1  C   UNL     1     -12.785  13.796  65.816  1.00  0.00    -0.494 C  
HETATM    2  C   UNL     1     -11.789  13.593  66.917  1.00  0.00    -0.411 C  
HETATM    3  O   UNL     1     -10.802  14.294  67.088  1.00  0.00    -0.288 OA 
ENDROOT
BRANCH   2   4
HETATM    4  O   UNL     1     -12.123  12.506  67.665  1.00  0.00    -0.436 OA 
BRANCH   4   5
HETATM    5  C   UNL     1     -11.396  11.302  67.367  1.00  0.00    -0.276 C  
HETATM    6  C   UNL     1     -10.693  10.731  68.615  1.00  0.00    -0.242 C  
HETATM    7  C   UNL     1      -9.835   9.523  68.179  1.00  0.00    -0.155 C  
HETATM    8  C   UNL     1     -11.735  10.405  69.715  1.00  0.00    -0.310 C  
BRANCH   7   9
HETATM    9  O   UNL     1      -9.110   8.915  69.259  1.00  0.00    -0.142 OA 
BRANCH   9  10
HETATM   10  C   UNL     1      -7.754   9.004  69.225  1.00  0.00    -0.090 C  
HETATM   11  O   UNL     1      -7.007   8.188  68.709  1.00  0.00    -0.064 OA 
HETATM   12  C   UNL     1      -7.292  10.286  69.856  1.00  0.00    -0.166 C  
ENDBRANCH   9  10
ENDBRANCH   7   9
BRANCH   8  13
HETATM   13  C   UNL     1     -11.125   9.939  71.037  1.00  0.00    -0.331 C  
BRANCH  13  14
HETATM   14  N   UNL     1     -11.461   8.572  71.371  1.00  0.00    -0.273 NA 
HETATM   15  C   UNL     1     -12.579   7.891  70.976  1.00  0.00    -0.091 A  
HETATM   16  N   UNL     1     -12.632   6.690  71.518  1.00  0.00    -0.303 NA 
HETATM   17  C   UNL     1     -11.520   6.619  72.325  1.00  0.00    -0.283 A  
HETATM   18  C   UNL     1     -11.023   5.643  73.177  1.00  0.00    -0.285 A  
HETATM   19  N   UNL     1      -9.889   5.889  73.885  1.00  0.00    -0.173 NA 
HETATM   20  C   UNL     1      -9.282   7.081  73.743  1.00  0.00    -0.201 A  
HETATM   21  N   UNL     1      -9.650   8.076  72.923  1.00  0.00    -0.261 NA 
HETATM   22  N   UNL     1      -8.149   7.285  74.506  1.00  0.00    -0.162 NA 
HETATM   23  H2  UNL     1      -7.479   6.535  74.335  1.00  0.00     0.000 HD 
HETATM   24  H1  UNL     1      -7.689   8.189  74.399  1.00  0.00     0.000 HD 
HETATM   25  C   UNL     1     -10.778   7.783  72.253  1.00  0.00    -0.269 A  
ENDBRANCH  13  14
ENDBRANCH   8  13
ENDBRANCH   4   5
ENDBRANCH   2   4
TORSDOF 6
ENDMDL
MODEL      198
REMARK 921   NORMALIZED FREE ENERGY PREDICTED BY IDOCK:   -4.06 KCAL/MOL
REMARK 922        TOTAL FREE ENERGY PREDICTED BY IDOCK:   -6.50 KCAL/MOL
REMARK 923 INTER-LIGAND FREE ENERGY PREDICTED BY IDOCK:   -5.72 KCAL/MOL
REMARK 924 INTRA-LIGAND FREE ENERGY PREDICTED BY IDOCK:   -0.78 KCAL/MOL
REMARK 927      BINDING AFFINITY PREDICTED BY RF-SCORE:    0.00 PKD
ROOT
HETATM    1  C   UNL     1      -6.624  10.245  65.532  1.00  0.00    -0.128 C  
HETATM    2  C   UNL     1      -7.792  10.390  66.460  1.00  0.00    -0.124 C  
HETATM    3  O   UNL     1      -8.072   9.592  67.343  1.00  0.00    -0.109 OA 
ENDROOT
BRANCH   2   4
HETATM    4  O   UNL     1      -8.505  11.509  66.153  1.00  0.00    -0.154 OA 
BRANCH   4   5
HETATM    5  C   UNL     1      -9.889  11.487  66.542  1.00  0.00    -0.202 C  
HETATM    6  C   UNL     1     -10.233  12.641  67.505  1.00  0.00    -0.215 C  
HETATM    7  C   UNL     1     -11.695  12.464  67.972  1.00  0.00    -0.356 C  
HETATM    8  C   UNL     1      -9.943  14.006  66.833  1.00  0.00    -0.263 C  
BRANCH   7   9
HETATM    9  O   UNL     1     -12.129  13.473  68.896  1.00  0.00    -0.341 OA 
BRANCH   9  10
HETATM   10  C   UNL     1     -12.194  13.127  70.209  1.00  0.00    -0.306 C  
HETATM   11  O   UNL     1     -12.167  11.985  70.639  1.00  0.00    -0.374 OA 
HETATM   12  C   UNL     1     -12.235  14.351  71.077  1.00  0.00    -0.422 C  
ENDBRANCH   9  10
ENDBRANCH   7   9
BRANCH   8  13
HETATM   13  C   UNL     1     -10.145  15.213  67.750  1.00  0.00    -0.230 C  
BRANCH  13  14
HETATM   14  N   UNL     1      -9.776  16.467  67.134  1.00  0.00    -0.240 NA 
HETATM   15  C   UNL     1     -10.434  17.097  66.114  1.00  0.00    -0.275 A  
HETATM   16  N   UNL     1      -9.796  18.181  65.721  1.00  0.00    -0.501 NA 
HETATM   17  C   UNL     1      -8.661  18.222  66.497  1.00  0.00    -0.266 A  
HETATM   18  C   UNL     1      -7.577  19.087  66.553  1.00  0.00    -0.251 A  
HETATM   19  N   UNL     1      -6.566  18.835  67.426  1.00  0.00    -0.194 NA 
HETATM   20  C   UNL     1      -6.644  17.745  68.211  1.00  0.00    -0.196 A  
HETATM   21  N   UNL     1      -7.658  16.869  68.269  1.00  0.00    -0.194 NA 
HETATM   22  N   UNL     1      -5.578  17.526  69.060  1.00  0.00    -0.175 NA 
HETATM   23  H2  UNL     1      -5.419  18.353  69.635  1.00  0.00     0.000 HD 
HETATM   24  H1  UNL     1      -5.636  16.699  69.654  1.00  0.00     0.000 HD 
HETATM   25  C   UNL     1      -8.625  17.161  67.382  1.00  0.00    -0.203 A  
ENDBRANCH  13  14
ENDBRANCH   8  13
ENDBRANCH   4   5
ENDBRANCH   2   4
TORSDOF 6
ENDMDL
MODEL      199
REMARK 921   NORMALIZED FREE ENERGY PREDICTED BY IDOCK:   -4.06 KCAL/MOL
REMARK 922        TOTAL FREE ENERGY PREDICTED BY IDOCK:   -6.49 KCAL/MOL
REMARK 923 INTER-LIGAND FREE ENERGY PREDICTED BY IDOCK:   -5.69 KCAL/MOL
REMARK 924 INTRA-LIGAND FREE ENERGY PREDICTED BY IDOCK:   -0.80 KCAL/MOL
REMARK 927      BINDING AFFINITY PREDICTED BY RF-SCORE:    0.00 PKD
ROOT
HETATM    1  C   UNL     1     -10.840   7.832  72.826  1.00  0.00    -0.438 C  
HETATM    2  C   UNL     1      -9.518   8.519  72.660  1.00  0.00    -0.225 C  
HETATM    3  O   UNL     1      -8.642   8.535  73.511  1.00  0.00    -0.341 OA 
ENDROOT
BRANCH   2   4
HETATM    4  O   UNL     1      -9.456   9.142  71.451  1.00  0.00    -0.267 OA 
BRANCH   4   5
HETATM    5  C   UNL     1     -10.679   9.754  71.007  1.00  0.00    -0.272 C  
HETATM    6  C   UNL     1     -10.646  10.075  69.499  1.00  0.00    -0.267 C  
HETATM    7  C   UNL     1     -11.936  10.844  69.138  1.00  0.00    -0.288 C  
HETATM    8  C   UNL     1     -10.430   8.778  68.679  1.00  0.00    -0.213 C  
BRANCH   7   9
HETATM    9  O   UNL     1     -12.012  11.220  67.754  1.00  0.00    -0.637 OA 
BRANCH   9  10
HETATM   10  C   UNL     1     -11.937  12.546  67.466  1.00  0.00    -0.219 C  
HETATM   11  O   UNL     1     -12.092  13.452  68.270  1.00  0.00    -0.343 OA 
HETATM   12  C   UNL     1     -11.567  12.754  66.025  1.00  0.00    -0.432 C  
ENDBRANCH   9  10
ENDBRANCH   7   9
BRANCH   8  13
HETATM   13  C   UNL     1     -10.269   9.007  67.176  1.00  0.00    -0.265 C  
BRANCH  13  14
HETATM   14  N   UNL     1      -9.067   8.414  66.633  1.00  0.00    -0.154 NA 
HETATM   15  C   UNL     1      -7.922   9.076  66.283  1.00  0.00    -0.103 A  
HETATM   16  N   UNL     1      -7.038   8.262  65.740  1.00  0.00    -0.070 NA 
HETATM   17  C   UNL     1      -7.662   7.037  65.706  1.00  0.00    -0.103 A  
HETATM   18  C   UNL     1      -7.283   5.788  65.235  1.00  0.00    -0.070 A  
HETATM   19  N   UNL     1      -8.158   4.751  65.313  1.00  0.00    -0.103 NA 
HETATM   20  C   UNL     1      -9.376   4.968  65.842  1.00  0.00    -0.159 A  
HETATM   21  N   UNL     1      -9.831   6.117  66.363  1.00  0.00    -0.132 NA 
HETATM   22  N   UNL     1     -10.231   3.885  65.873  1.00  0.00    -0.430 NA 
HETATM   23  H2  UNL     1      -9.782   3.104  66.351  1.00  0.00     0.000 HD 
HETATM   24  H1  UNL     1     -11.155   4.049  66.273  1.00  0.00     0.000 HD 
HETATM   25  C   UNL     1      -8.930   7.109  66.254  1.00  0.00    -0.155 A  
ENDBRANCH  13  14
ENDBRANCH   8  13
ENDBRANCH   4   5
ENDBRANCH   2   4
TORSDOF 6
ENDMDL
MODEL      200
REMARK 921   NORMALIZED FREE ENERGY PREDICTED BY IDOCK:   -4.06 KCAL/MOL
REMARK 922        TOTAL FREE ENERGY PREDICTED BY IDOCK:   -6.49 KCAL/MOL
REMARK 923 INTER-LIGAND FREE ENERGY PREDICTED BY IDOCK:   -5.73 KCAL/MOL
REMARK 924 INTRA-LIGAND FREE ENERGY PREDICTED BY IDOCK:   -0.75 KCAL/MOL
REMARK 927      BINDING AFFINITY PREDICTED BY RF-SCORE:    0.00 PKD
ROOT
HETATM    1  C   UNL     1     -13.543   9.513  72.079  1.00  0.00    -0.492 C  
HETATM    2  C   UNL     1     -12.181   9.070  71.634  1.00  0.00    -0.348 C  
HETATM    3  O   UNL     1     -11.509   8.229  72.213  1.00  0.00    -0.331 OA 
ENDROOT
BRANCH   2   4
HETATM    4  O   UNL     1     -11.797   9.761  70.525  1.00  0.00    -0.266 OA 
BRANCH   4   5
HETATM    5  C   UNL     1     -12.163  11.151  70.505  1.00  0.00    -0.384 C  
HETATM    6  C   UNL     1     -11.045  12.031  69.910  1.00  0.00     0.124 C  
HETATM    7  C   UNL     1     -11.467  13.511  70.048  1.00  0.00    -0.070 C  
HETATM    8  C   UNL     1     -10.733  11.593  68.457  1.00  0.00    -0.250 C  
BRANCH   7   9
HETATM    9  O   UNL     1     -10.490  14.435  69.545  1.00  0.00    -0.144 OA 
BRANCH   9  10
HETATM   10  C   UNL     1     -10.949  15.502  68.839  1.00  0.00    -0.266 C  
HETATM   11  O   UNL     1     -10.509  16.638  68.913  1.00  0.00    -0.279 OA 
HETATM   12  C   UNL     1     -12.037  15.081  67.894  1.00  0.00    -0.011 C  
ENDBRANCH   9  10
ENDBRANCH   7   9
BRANCH   8  13
HETATM   13  C   UNL     1      -9.557  12.333  67.818  1.00  0.00    -0.200 C  
BRANCH  13  14
HETATM   14  N   UNL     1      -8.854  11.544  66.831  1.00  0.00    -0.175 NA 
HETATM   15  C   UNL     1      -7.573  11.074  66.929  1.00  0.00    -0.133 A  
HETATM   16  N   UNL     1      -7.196  10.461  65.824  1.00  0.00    -0.139 NA 
HETATM   17  C   UNL     1      -8.269  10.580  64.972  1.00  0.00    -0.120 A  
HETATM   18  C   UNL     1      -8.495  10.177  63.664  1.00  0.00    -0.184 A  
HETATM   19  N   UNL     1      -9.677  10.481  63.065  1.00  0.00    -0.321 NA 
HETATM   20  C   UNL     1     -10.596  11.174  63.761  1.00  0.00    -0.356 A  
HETATM   21  N   UNL     1     -10.501  11.576  65.037  1.00  0.00    -0.277 NA 
HETATM   22  N   UNL     1     -11.767  11.476  63.095  1.00  0.00    -0.890 NA 
HETATM   23  H2  UNL     1     -12.185  10.622  62.728  1.00  0.00     0.000 HD 
HETATM   24  H1  UNL     1     -12.464  12.002  63.622  1.00  0.00     0.000 HD 
HETATM   25  C   UNL     1      -9.313  11.256  65.577  1.00  0.00    -0.221 A  
ENDBRANCH  13  14
ENDBRANCH   8  13
ENDBRANCH   4   5
ENDBRANCH   2   4
TORSDOF 6
ENDMDL
MODEL      201
REMARK 921   NORMALIZED FREE ENERGY PREDICTED BY IDOCK:   -4.05 KCAL/MOL
REMARK 922        TOTAL FREE ENERGY PREDICTED BY IDOCK:   -6.48 KCAL/MOL
REMARK 923 INTER-LIGAND FREE ENERGY PREDICTED BY IDOCK:   -5.34 KCAL/MOL
REMARK 924 INTRA-LIGAND FREE ENERGY PREDICTED BY IDOCK:   -1.14 KCAL/MOL
REMARK 927      BINDING AFFINITY PREDICTED BY RF-SCORE:    0.00 PKD
ROOT
HETATM    1  C   UNL     1      -7.337  14.908  68.821  1.00  0.00    -0.127 C  
HETATM    2  C   UNL     1      -6.455  13.696  68.849  1.00  0.00    -0.101 C  
HETATM    3  O   UNL     1      -5.621  13.474  69.715  1.00  0.00    -0.091 OA 
ENDROOT
BRANCH   2   4
HETATM    4  O   UNL     1      -6.692  12.912  67.763  1.00  0.00    -0.108 OA 
BRANCH   4   5
HETATM    5  C   UNL     1      -7.046  11.548  68.049  1.00  0.00    -0.079 C  
HETATM    6  C   UNL     1      -8.529  11.410  68.446  1.00  0.00    -0.155 C  
HETATM    7  C   UNL     1      -8.786   9.944  68.862  1.00  0.00    -0.145 C  
HETATM    8  C   UNL     1      -9.441  11.913  67.299  1.00  0.00    -0.176 C  
BRANCH   7   9
HETATM    9  O   UNL     1     -10.138   9.694  69.276  1.00  0.00    -0.175 OA 
BRANCH   9  10
HETATM   10  C   UNL     1     -10.485   8.402  69.516  1.00  0.00    -0.224 C  
HETATM   11  O   UNL     1     -10.193   7.451  68.808  1.00  0.00    -0.181 OA 
HETATM   12  C   UNL     1     -11.227   8.286  70.817  1.00  0.00    -0.284 C  
ENDBRANCH   9  10
ENDBRANCH   7   9
BRANCH   8  13
HETATM   13  C   UNL     1     -10.931  11.923  67.640  1.00  0.00    -0.235 C  
BRANCH  13  14
HETATM   14  N   UNL     1     -11.323  13.051  68.455  1.00  0.00    -0.270 NA 
HETATM   15  C   UNL     1     -11.009  14.363  68.231  1.00  0.00    -0.247 A  
HETATM   16  N   UNL     1     -11.445  15.139  69.204  1.00  0.00    -0.287 NA 
HETATM   17  C   UNL     1     -12.028  14.279  70.105  1.00  0.00    -0.326 A  
HETATM   18  C   UNL     1     -12.641  14.462  71.337  1.00  0.00    -0.354 A  
HETATM   19  N   UNL     1     -13.099  13.382  72.023  1.00  0.00    -0.380 NA 
HETATM   20  C   UNL     1     -12.938  12.158  71.487  1.00  0.00    -0.295 A  
HETATM   21  N   UNL     1     -12.401  11.870  70.293  1.00  0.00    -0.247 NA 
HETATM   22  N   UNL     1     -13.399  11.096  72.239  1.00  0.00    -0.552 NA 
HETATM   23  H2  UNL     1     -14.380  11.242  72.476  1.00  0.00     0.000 HD 
HETATM   24  H1  UNL     1     -13.277  10.168  71.834  1.00  0.00     0.000 HD 
HETATM   25  C   UNL     1     -11.960  12.971  69.661  1.00  0.00    -0.302 A  
ENDBRANCH  13  14
ENDBRANCH   8  13
ENDBRANCH   4   5
ENDBRANCH   2   4
TORSDOF 6
ENDMDL
MODEL      202
REMARK 921   NORMALIZED FREE ENERGY PREDICTED BY IDOCK:   -4.05 KCAL/MOL
REMARK 922        TOTAL FREE ENERGY PREDICTED BY IDOCK:   -6.47 KCAL/MOL
REMARK 923 INTER-LIGAND FREE ENERGY PREDICTED BY IDOCK:   -5.90 KCAL/MOL
REMARK 924 INTRA-LIGAND FREE ENERGY PREDICTED BY IDOCK:   -0.57 KCAL/MOL
REMARK 927      BINDING AFFINITY PREDICTED BY RF-SCORE:    0.00 PKD
ROOT
HETATM    1  C   UNL     1      -5.645  10.699  69.102  1.00  0.00    -0.040 C  
HETATM    2  C   UNL     1      -6.442   9.545  69.632  1.00  0.00    -0.041 C  
HETATM    3  O   UNL     1      -6.557   8.470  69.061  1.00  0.00    -0.047 OA 
ENDROOT
BRANCH   2   4
HETATM    4  O   UNL     1      -7.037   9.881  70.809  1.00  0.00    -0.294 OA 
BRANCH   4   5
HETATM    5  C   UNL     1      -7.844   8.853  71.410  1.00  0.00    -0.097 C  
HETATM    6  C   UNL     1      -9.327   9.264  71.498  1.00  0.00    -0.052 C  
HETATM    7  C   UNL     1     -10.091   8.166  72.271  1.00  0.00    -0.269 C  
HETATM    8  C   UNL     1      -9.889   9.551  70.083  1.00  0.00    -0.288 C  
BRANCH   7   9
HETATM    9  O   UNL     1     -11.489   8.448  72.438  1.00  0.00    -0.367 OA 
BRANCH   9  10
HETATM   10  C   UNL     1     -12.369   7.519  71.979  1.00  0.00    -0.271 C  
HETATM   11  O   UNL     1     -12.113   6.341  71.786  1.00  0.00    -0.323 OA 
HETATM   12  C   UNL     1     -13.732   8.124  71.802  1.00  0.00    -0.422 C  
ENDBRANCH   9  10
ENDBRANCH   7   9
BRANCH   8  13
HETATM   13  C   UNL     1     -11.325  10.078  70.073  1.00  0.00    -0.275 C  
BRANCH  13  14
HETATM   14  N   UNL     1     -11.447  11.393  69.486  1.00  0.00    -0.286 NA 
HETATM   15  C   UNL     1     -10.821  11.840  68.355  1.00  0.00    -0.223 A  
HETATM   16  N   UNL     1     -11.074  13.114  68.131  1.00  0.00    -0.243 NA 
HETATM   17  C   UNL     1     -11.863  13.507  69.188  1.00  0.00    -0.340 A  
HETATM   18  C   UNL     1     -12.434  14.718  69.550  1.00  0.00    -0.100 A  
HETATM   19  N   UNL     1     -13.151  14.801  70.702  1.00  0.00    -0.335 NA 
HETATM   20  C   UNL     1     -13.281  13.701  71.465  1.00  0.00    -0.331 A  
HETATM   21  N   UNL     1     -12.809  12.475  71.192  1.00  0.00    -0.281 NA 
HETATM   22  N   UNL     1     -13.997  13.849  72.636  1.00  0.00    -0.713 NA 
HETATM   23  H2  UNL     1     -14.918  14.236  72.429  1.00  0.00     0.000 HD 
HETATM   24  H1  UNL     1     -14.095  13.015  73.215  1.00  0.00     0.000 HD 
HETATM   25  C   UNL     1     -12.104  12.452  70.048  1.00  0.00    -0.263 A  
ENDBRANCH  13  14
ENDBRANCH   8  13
ENDBRANCH   4   5
ENDBRANCH   2   4
TORSDOF 6
ENDMDL
MODEL      203
REMARK 921   NORMALIZED FREE ENERGY PREDICTED BY IDOCK:   -4.01 KCAL/MOL
REMARK 922        TOTAL FREE ENERGY PREDICTED BY IDOCK:   -6.42 KCAL/MOL
REMARK 923 INTER-LIGAND FREE ENERGY PREDICTED BY IDOCK:   -5.84 KCAL/MOL
REMARK 924 INTRA-LIGAND FREE ENERGY PREDICTED BY IDOCK:   -0.58 KCAL/MOL
REMARK 927      BINDING AFFINITY PREDICTED BY RF-SCORE:    0.00 PKD
ROOT
HETATM    1  C   UNL     1      -9.610   3.926  67.388  1.00  0.00    -0.218 C  
HETATM    2  C   UNL     1      -9.562   5.107  66.466  1.00  0.00    -0.158 C  
HETATM    3  O   UNL     1      -9.454   5.026  65.252  1.00  0.00    -0.139 OA 
ENDROOT
BRANCH   2   4
HETATM    4  O   UNL     1      -9.619   6.266  67.178  1.00  0.00    -0.125 OA 
BRANCH   4   5
HETATM    5  C   UNL     1      -9.424   7.470  66.416  1.00  0.00    -0.147 C  
HETATM    6  C   UNL     1      -9.881   8.722  67.192  1.00  0.00    -0.268 C  
HETATM    7  C   UNL     1      -9.760   9.945  66.256  1.00  0.00    -0.222 C  
HETATM    8  C   UNL     1      -9.085   8.854  68.514  1.00  0.00    -0.137 C  
BRANCH   7   9
HETATM    9  O   UNL     1     -10.181  11.176  66.863  1.00  0.00    -0.207 OA 
BRANCH   9  10
HETATM   10  C   UNL     1     -11.208  11.841  66.272  1.00  0.00    -0.312 C  
HETATM   11  O   UNL     1     -12.133  12.377  66.863  1.00  0.00    -0.564 OA 
HETATM   12  C   UNL     1     -11.021  11.890  64.783  1.00  0.00    -0.366 C  
ENDBRANCH   9  10
ENDBRANCH   7   9
BRANCH   8  13
HETATM   13  C   UNL     1      -9.545  10.004  69.411  1.00  0.00    -0.222 C  
BRANCH  13  14
HETATM   14  N   UNL     1     -10.847   9.784  69.999  1.00  0.00    -0.258 NA 
HETATM   15  C   UNL     1     -11.836  10.716  70.154  1.00  0.00    -0.337 A  
HETATM   16  N   UNL     1     -12.872  10.221  70.802  1.00  0.00    -0.358 NA 
HETATM   17  C   UNL     1     -12.511   8.929  71.108  1.00  0.00    -0.214 A  
HETATM   18  C   UNL     1     -13.141   7.902  71.797  1.00  0.00    -0.325 A  
HETATM   19  N   UNL     1     -12.495   6.719  71.969  1.00  0.00    -0.290 NA 
HETATM   20  C   UNL     1     -11.254   6.579  71.469  1.00  0.00    -0.276 A  
HETATM   21  N   UNL     1     -10.570   7.485  70.755  1.00  0.00    -0.218 NA 
HETATM   22  N   UNL     1     -10.637   5.365  71.696  1.00  0.00    -0.230 NA 
HETATM   23  H2  UNL     1     -11.232   4.608  71.358  1.00  0.00     0.000 HD 
HETATM   24  H1  UNL     1      -9.696   5.258  71.317  1.00  0.00     0.000 HD 
HETATM   25  C   UNL     1     -11.251   8.636  70.621  1.00  0.00    -0.252 A  
ENDBRANCH  13  14
ENDBRANCH   8  13
ENDBRANCH   4   5
ENDBRANCH   2   4
TORSDOF 6
ENDMDL
MODEL      204
REMARK 921   NORMALIZED FREE ENERGY PREDICTED BY IDOCK:   -3.99 KCAL/MOL
REMARK 922        TOTAL FREE ENERGY PREDICTED BY IDOCK:   -6.39 KCAL/MOL
REMARK 923 INTER-LIGAND FREE ENERGY PREDICTED BY IDOCK:   -5.69 KCAL/MOL
REMARK 924 INTRA-LIGAND FREE ENERGY PREDICTED BY IDOCK:   -0.71 KCAL/MOL
REMARK 927      BINDING AFFINITY PREDICTED BY RF-SCORE:    0.00 PKD
ROOT
HETATM    1  C   UNL     1     -12.107  13.559  64.116  1.00  0.00    -0.488 C  
HETATM    2  C   UNL     1     -11.025  12.522  64.149  1.00  0.00    -0.381 C  
HETATM    3  O   UNL     1     -10.036  12.539  63.431  1.00  0.00    -0.380 OA 
ENDROOT
BRANCH   2   4
HETATM    4  O   UNL     1     -11.322  11.555  65.059  1.00  0.00    -0.215 OA 
BRANCH   4   5
HETATM    5  C   UNL     1     -10.267  10.618  65.334  1.00  0.00    -0.273 C  
HETATM    6  C   UNL     1      -9.834  10.658  66.814  1.00  0.00    -0.240 C  
HETATM    7  C   UNL     1      -8.617   9.724  66.989  1.00  0.00    -0.124 C  
HETATM    8  C   UNL     1     -11.033  10.317  67.733  1.00  0.00    -0.360 C  
BRANCH   7   9
HETATM    9  O   UNL     1      -8.105   9.693  68.330  1.00  0.00    -0.102 OA 
BRANCH   9  10
HETATM   10  C   UNL     1      -7.865   8.471  68.876  1.00  0.00    -0.109 C  
HETATM   11  O   UNL     1      -7.243   8.270  69.907  1.00  0.00    -0.057 OA 
HETATM   12  C   UNL     1      -8.530   7.392  68.070  1.00  0.00    -0.123 C  
ENDBRANCH   9  10
ENDBRANCH   7   9
BRANCH   8  13
HETATM   13  C   UNL     1     -10.733  10.442  69.227  1.00  0.00    -0.237 C  
BRANCH  13  14
HETATM   14  N   UNL     1     -11.513  11.468  69.883  1.00  0.00    -0.284 NA 
HETATM   15  C   UNL     1     -12.529  11.269  70.777  1.00  0.00    -0.376 A  
HETATM   16  N   UNL     1     -13.096  12.406  71.128  1.00  0.00    -0.135 NA 
HETATM   17  C   UNL     1     -12.439  13.367  70.396  1.00  0.00    -0.252 A  
HETATM   18  C   UNL     1     -12.579  14.744  70.290  1.00  0.00    -0.315 A  
HETATM   19  N   UNL     1     -11.782  15.432  69.430  1.00  0.00    -0.330 NA 
HETATM   20  C   UNL     1     -10.880  14.753  68.698  1.00  0.00    -0.253 A  
HETATM   21  N   UNL     1     -10.633  13.436  68.750  1.00  0.00    -0.237 NA 
HETATM   22  N   UNL     1     -10.116  15.500  67.823  1.00  0.00    -0.230 NA 
HETATM   23  H2  UNL     1      -9.652  16.254  68.329  1.00  0.00     0.000 HD 
HETATM   24  H1  UNL     1      -9.433  14.986  67.268  1.00  0.00     0.000 HD 
HETATM   25  C   UNL     1     -11.451  12.805  69.609  1.00  0.00    -0.185 A  
ENDBRANCH  13  14
ENDBRANCH   8  13
ENDBRANCH   4   5
ENDBRANCH   2   4
TORSDOF 6
ENDMDL
MODEL      205
REMARK 921   NORMALIZED FREE ENERGY PREDICTED BY IDOCK:   -3.98 KCAL/MOL
REMARK 922        TOTAL FREE ENERGY PREDICTED BY IDOCK:   -6.39 KCAL/MOL
REMARK 923 INTER-LIGAND FREE ENERGY PREDICTED BY IDOCK:   -5.84 KCAL/MOL
REMARK 924 INTRA-LIGAND FREE ENERGY PREDICTED BY IDOCK:   -0.54 KCAL/MOL
REMARK 927      BINDING AFFINITY PREDICTED BY RF-SCORE:    0.00 PKD
ROOT
HETATM    1  C   UNL     1     -12.790   7.370  71.570  1.00  0.00    -0.416 C  
HETATM    2  C   UNL     1     -13.304   8.676  72.096  1.00  0.00    -0.396 C  
HETATM    3  O   UNL     1     -14.402   8.825  72.611  1.00  0.00    -0.585 OA 
ENDROOT
BRANCH   2   4
HETATM    4  O   UNL     1     -12.392   9.665  71.883  1.00  0.00    -0.375 OA 
BRANCH   4   5
HETATM    5  C   UNL     1     -12.725  10.600  70.842  1.00  0.00    -0.404 C  
HETATM    6  C   UNL     1     -11.491  10.989  70.003  1.00  0.00    -0.398 C  
HETATM    7  C   UNL     1     -11.911  12.088  69.003  1.00  0.00    -0.315 C  
HETATM    8  C   UNL     1     -10.874   9.731  69.342  1.00  0.00    -0.256 C  
BRANCH   7   9
HETATM    9  O   UNL     1     -10.834  12.551  68.173  1.00  0.00    -0.206 OA 
BRANCH   9  10
HETATM   10  C   UNL     1     -11.165  13.105  66.977  1.00  0.00    -0.294 C  
HETATM   11  O   UNL     1     -12.204  13.700  66.740  1.00  0.00    -0.406 OA 
HETATM   12  C   UNL     1     -10.043  12.947  65.992  1.00  0.00    -0.290 C  
ENDBRANCH   9  10
ENDBRANCH   7   9
BRANCH   8  13
HETATM   13  C   UNL     1      -9.575   9.997  68.579  1.00  0.00    -0.151 C  
BRANCH  13  14
HETATM   14  N   UNL     1      -8.560   8.994  68.811  1.00  0.00    -0.130 NA 
HETATM   15  C   UNL     1      -7.884   8.286  67.856  1.00  0.00    -0.114 A  
HETATM   16  N   UNL     1      -7.084   7.387  68.394  1.00  0.00    -0.082 NA 
HETATM   17  C   UNL     1      -7.290   7.499  69.749  1.00  0.00    -0.082 A  
HETATM   18  C   UNL     1      -6.779   6.824  70.849  1.00  0.00    -0.054 A  
HETATM   19  N   UNL     1      -7.216   7.149  72.095  1.00  0.00    -0.072 NA 
HETATM   20  C   UNL     1      -8.141   8.116  72.225  1.00  0.00    -0.139 A  
HETATM   21  N   UNL     1      -8.671   8.858  71.241  1.00  0.00    -0.213 NA 
HETATM   22  N   UNL     1      -8.566   8.386  73.510  1.00  0.00    -0.344 NA 
HETATM   23  H2  UNL     1      -7.763   8.596  74.102  1.00  0.00     0.000 HD 
HETATM   24  H1  UNL     1      -9.268   9.120  73.610  1.00  0.00     0.000 HD 
HETATM   25  C   UNL     1      -8.210   8.491  70.033  1.00  0.00    -0.121 A  
ENDBRANCH  13  14
ENDBRANCH   8  13
ENDBRANCH   4   5
ENDBRANCH   2   4
TORSDOF 6
ENDMDL
MODEL      206
REMARK 921   NORMALIZED FREE ENERGY PREDICTED BY IDOCK:   -3.97 KCAL/MOL
REMARK 922        TOTAL FREE ENERGY PREDICTED BY IDOCK:   -6.37 KCAL/MOL
REMARK 923 INTER-LIGAND FREE ENERGY PREDICTED BY IDOCK:   -5.29 KCAL/MOL
REMARK 924 INTRA-LIGAND FREE ENERGY PREDICTED BY IDOCK:   -1.08 KCAL/MOL
REMARK 927      BINDING AFFINITY PREDICTED BY RF-SCORE:    0.00 PKD
ROOT
HETATM    1  C   UNL     1      -7.462   7.888  67.564  1.00  0.00    -0.093 C  
HETATM    2  C   UNL     1      -7.992   9.287  67.673  1.00  0.00    -0.103 C  
HETATM    3  O   UNL     1      -8.461   9.918  66.737  1.00  0.00    -0.124 OA 
ENDROOT
BRANCH   2   4
HETATM    4  O   UNL     1      -7.841   9.753  68.942  1.00  0.00    -0.081 OA 
BRANCH   4   5
HETATM    5  C   UNL     1      -9.017  10.332  69.533  1.00  0.00    -0.157 C  
HETATM    6  C   UNL     1     -10.058   9.259  69.912  1.00  0.00    -0.230 C  
HETATM    7  C   UNL     1     -11.332   9.973  70.413  1.00  0.00    -0.320 C  
HETATM    8  C   UNL     1      -9.451   8.258  70.928  1.00  0.00    -0.192 C  
BRANCH   7   9
HETATM    9  O   UNL     1     -12.389   9.073  70.779  1.00  0.00    -0.180 OA 
BRANCH   9  10
HETATM   10  C   UNL     1     -13.331   9.538  71.641  1.00  0.00    -0.407 C  
HETATM   11  O   UNL     1     -14.150   8.849  72.228  1.00  0.00    -0.449 OA 
HETATM   12  C   UNL     1     -13.189  11.020  71.831  1.00  0.00    -0.503 C  
ENDBRANCH   9  10
ENDBRANCH   7   9
BRANCH   8  13
HETATM   13  C   UNL     1     -10.369   7.087  71.280  1.00  0.00    -0.202 C  
BRANCH  13  14
HETATM   14  N   UNL     1      -9.888   5.816  70.788  1.00  0.00    -0.177 NA 
HETATM   15  C   UNL     1      -9.137   4.908  71.482  1.00  0.00    -0.139 A  
HETATM   16  N   UNL     1      -8.788   3.886  70.725  1.00  0.00    -0.080 NA 
HETATM   17  C   UNL     1      -9.306   4.176  69.484  1.00  0.00    -0.168 A  
HETATM   18  C   UNL     1      -9.265   3.524  68.259  1.00  0.00    -0.170 A  
HETATM   19  N   UNL     1      -9.858   4.096  67.178  1.00  0.00    -0.185 NA 
HETATM   20  C   UNL     1     -10.465   5.287  67.326  1.00  0.00    -0.173 A  
HETATM   21  N   UNL     1     -10.600   5.982  68.464  1.00  0.00    -0.238 NA 
HETATM   22  N   UNL     1     -11.028   5.831  66.189  1.00  0.00    -0.703 NA 
HETATM   23  H2  UNL     1     -11.676   5.164  65.771  1.00  0.00     0.000 HD 
HETATM   24  H1  UNL     1     -11.488   6.735  66.300  1.00  0.00     0.000 HD 
HETATM   25  C   UNL     1      -9.991   5.376  69.498  1.00  0.00    -0.219 A  
ENDBRANCH  13  14
ENDBRANCH   8  13
ENDBRANCH   4   5
ENDBRANCH   2   4
TORSDOF 6
ENDMDL
MODEL      207
REMARK 921   NORMALIZED FREE ENERGY PREDICTED BY IDOCK:   -3.95 KCAL/MOL
REMARK 922        TOTAL FREE ENERGY PREDICTED BY IDOCK:   -6.34 KCAL/MOL
REMARK 923 INTER-LIGAND FREE ENERGY PREDICTED BY IDOCK:   -5.54 KCAL/MOL
REMARK 924 INTRA-LIGAND FREE ENERGY PREDICTED BY IDOCK:   -0.80 KCAL/MOL
REMARK 927      BINDING AFFINITY PREDICTED BY RF-SCORE:    0.00 PKD
ROOT
HETATM    1  C   UNL     1     -10.983   6.904  72.432  1.00  0.00    -0.280 C  
HETATM    2  C   UNL     1      -9.569   6.465  72.197  1.00  0.00    -0.149 C  
HETATM    3  O   UNL     1      -9.088   5.433  72.641  1.00  0.00    -0.135 OA 
ENDROOT
BRANCH   2   4
HETATM    4  O   UNL     1      -8.902   7.391  71.456  1.00  0.00    -0.124 OA 
BRANCH   4   5
HETATM    5  C   UNL     1      -8.139   6.871  70.354  1.00  0.00    -0.116 C  
HETATM    6  C   UNL     1      -8.847   7.104  69.004  1.00  0.00    -0.131 C  
HETATM    7  C   UNL     1      -8.028   6.401  67.899  1.00  0.00    -0.111 C  
HETATM    8  C   UNL     1      -9.064   8.619  68.767  1.00  0.00    -0.142 C  
BRANCH   7   9
HETATM    9  O   UNL     1      -8.603   6.530  66.589  1.00  0.00    -0.112 OA 
BRANCH   9  10
HETATM   10  C   UNL     1      -9.014   5.389  65.976  1.00  0.00    -0.147 C  
HETATM   11  O   UNL     1      -8.319   4.681  65.265  1.00  0.00    -0.117 OA 
HETATM   12  C   UNL     1     -10.435   5.073  66.346  1.00  0.00    -0.349 C  
ENDBRANCH   9  10
ENDBRANCH   7   9
BRANCH   8  13
HETATM   13  C   UNL     1      -9.862   8.949  67.505  1.00  0.00    -0.184 C  
BRANCH  13  14
HETATM   14  N   UNL     1     -10.586  10.197  67.596  1.00  0.00    -0.245 NA 
HETATM   15  C   UNL     1     -11.406  10.587  68.618  1.00  0.00    -0.252 A  
HETATM   16  N   UNL     1     -11.984  11.744  68.361  1.00  0.00    -0.490 NA 
HETATM   17  C   UNL     1     -11.544  12.086  67.103  1.00  0.00    -0.316 A  
HETATM   18  C   UNL     1     -11.803  13.160  66.263  1.00  0.00    -0.401 A  
HETATM   19  N   UNL     1     -11.227  13.199  65.032  1.00  0.00    -0.292 NA 
HETATM   20  C   UNL     1     -10.424  12.186  64.660  1.00  0.00    -0.299 A  
HETATM   21  N   UNL     1     -10.074  11.125  65.403  1.00  0.00    -0.250 NA 
HETATM   22  N   UNL     1      -9.888  12.266  63.390  1.00  0.00    -0.629 NA 
HETATM   23  H2  UNL     1      -9.398  13.153  63.278  1.00  0.00     0.000 HD 
HETATM   24  H1  UNL     1      -9.279  11.498  63.107  1.00  0.00     0.000 HD 
HETATM   25  C   UNL     1     -10.674  11.134  66.605  1.00  0.00    -0.269 A  
ENDBRANCH  13  14
ENDBRANCH   8  13
ENDBRANCH   4   5
ENDBRANCH   2   4
TORSDOF 6
ENDMDL
MODEL      208
REMARK 921   NORMALIZED FREE ENERGY PREDICTED BY IDOCK:   -3.94 KCAL/MOL
REMARK 922        TOTAL FREE ENERGY PREDICTED BY IDOCK:   -6.33 KCAL/MOL
REMARK 923 INTER-LIGAND FREE ENERGY PREDICTED BY IDOCK:   -5.57 KCAL/MOL
REMARK 924 INTRA-LIGAND FREE ENERGY PREDICTED BY IDOCK:   -0.76 KCAL/MOL
REMARK 927      BINDING AFFINITY PREDICTED BY RF-SCORE:    0.00 PKD
ROOT
HETATM    1  C   UNL     1      -9.670  20.315  67.050  1.00  0.00    -0.598 C  
HETATM    2  C   UNL     1      -8.255  20.090  66.611  1.00  0.00    -0.314 C  
HETATM    3  O   UNL     1      -7.313  20.796  66.940  1.00  0.00    -0.300 OA 
ENDROOT
BRANCH   2   4
HETATM    4  O   UNL     1      -8.183  19.018  65.776  1.00  0.00    -0.449 OA 
BRANCH   4   5
HETATM    5  C   UNL     1      -7.109  18.098  66.039  1.00  0.00    -0.283 C  
HETATM    6  C   UNL     1      -7.236  17.449  67.432  1.00  0.00    -0.188 C  
HETATM    7  C   UNL     1      -5.980  16.585  67.681  1.00  0.00    -0.140 C  
HETATM    8  C   UNL     1      -8.572  16.673  67.542  1.00  0.00    -0.199 C  
BRANCH   7   9
HETATM    9  O   UNL     1      -5.972  15.941  68.964  1.00  0.00    -0.111 OA 
BRANCH   9  10
HETATM   10  C   UNL     1      -5.871  14.586  68.979  1.00  0.00    -0.088 C  
HETATM   11  O   UNL     1      -5.916  13.865  67.994  1.00  0.00    -0.114 OA 
HETATM   12  C   UNL     1      -5.625  14.089  70.374  1.00  0.00    -0.134 C  
ENDBRANCH   9  10
ENDBRANCH   7   9
BRANCH   8  13
HETATM   13  C   UNL     1      -8.845  16.087  68.928  1.00  0.00    -0.233 C  
BRANCH  13  14
HETATM   14  N   UNL     1     -10.063  15.312  68.991  1.00  0.00    -0.228 NA 
HETATM   15  C   UNL     1     -11.269  15.733  69.480  1.00  0.00    -0.317 A  
HETATM   16  N   UNL     1     -12.160  14.762  69.476  1.00  0.00    -0.305 NA 
HETATM   17  C   UNL     1     -11.481  13.663  69.002  1.00  0.00    -0.301 A  
HETATM   18  C   UNL     1     -11.841  12.341  68.788  1.00  0.00    -0.306 A  
HETATM   19  N   UNL     1     -10.911  11.460  68.331  1.00  0.00    -0.199 NA 
HETATM   20  C   UNL     1      -9.660  11.899  68.106  1.00  0.00    -0.195 A  
HETATM   21  N   UNL     1      -9.214  13.157  68.239  1.00  0.00    -0.209 NA 
HETATM   22  N   UNL     1      -8.752  10.956  67.668  1.00  0.00    -0.126 NA 
HETATM   23  H2  UNL     1      -9.110  10.494  66.832  1.00  0.00     0.000 HD 
HETATM   24  H1  UNL     1      -7.802  11.288  67.497  1.00  0.00     0.000 HD 
HETATM   25  C   UNL     1     -10.171  13.982  68.698  1.00  0.00    -0.233 A  
ENDBRANCH  13  14
ENDBRANCH   8  13
ENDBRANCH   4   5
ENDBRANCH   2   4
TORSDOF 6
ENDMDL
MODEL      209
REMARK 921   NORMALIZED FREE ENERGY PREDICTED BY IDOCK:   -3.94 KCAL/MOL
REMARK 922        TOTAL FREE ENERGY PREDICTED BY IDOCK:   -6.33 KCAL/MOL
REMARK 923 INTER-LIGAND FREE ENERGY PREDICTED BY IDOCK:   -5.53 KCAL/MOL
REMARK 924 INTRA-LIGAND FREE ENERGY PREDICTED BY IDOCK:   -0.80 KCAL/MOL
REMARK 927      BINDING AFFINITY PREDICTED BY RF-SCORE:    0.00 PKD
ROOT
HETATM    1  C   UNL     1     -11.774  13.258  69.951  1.00  0.00    -0.330 C  
HETATM    2  C   UNL     1     -11.721  13.381  68.458  1.00  0.00    -0.357 C  
HETATM    3  O   UNL     1     -11.552  14.434  67.861  1.00  0.00    -0.309 OA 
ENDROOT
BRANCH   2   4
HETATM    4  O   UNL     1     -11.924  12.168  67.875  1.00  0.00    -0.489 OA 
BRANCH   4   5
HETATM    5  C   UNL     1     -11.459  12.047  66.519  1.00  0.00    -0.349 C  
HETATM    6  C   UNL     1     -10.090  11.342  66.442  1.00  0.00    -0.255 C  
HETATM    7  C   UNL     1      -9.610  11.375  64.974  1.00  0.00    -0.221 C  
HETATM    8  C   UNL     1     -10.183   9.920  67.048  1.00  0.00    -0.294 C  
BRANCH   7   9
HETATM    9  O   UNL     1      -8.325  10.763  64.777  1.00  0.00    -0.118 OA 
BRANCH   9  10
HETATM   10  C   UNL     1      -8.124  10.105  63.605  1.00  0.00    -0.163 C  
HETATM   11  O   UNL     1      -7.311   9.211  63.429  1.00  0.00    -0.095 OA 
HETATM   12  C   UNL     1      -9.091  10.579  62.559  1.00  0.00    -0.317 C  
ENDBRANCH   9  10
ENDBRANCH   7   9
BRANCH   8  13
HETATM   13  C   UNL     1      -8.847   9.180  67.122  1.00  0.00    -0.119 C  
BRANCH  13  14
HETATM   14  N   UNL     1      -8.880   8.025  67.991  1.00  0.00    -0.128 NA 
HETATM   15  C   UNL     1      -8.256   7.901  69.201  1.00  0.00    -0.132 A  
HETATM   16  N   UNL     1      -8.411   6.693  69.705  1.00  0.00    -0.131 NA 
HETATM   17  C   UNL     1      -9.132   6.005  68.757  1.00  0.00    -0.124 A  
HETATM   18  C   UNL     1      -9.591   4.699  68.672  1.00  0.00    -0.162 A  
HETATM   19  N   UNL     1     -10.263   4.298  67.560  1.00  0.00     0.057 NA 
HETATM   20  C   UNL     1     -10.458   5.182  66.566  1.00  0.00    -0.294 A  
HETATM   21  N   UNL     1     -10.096   6.474  66.559  1.00  0.00    -0.125 NA 
HETATM   22  N   UNL     1     -11.124   4.713  65.452  1.00  0.00    -0.958 NA 
HETATM   23  H2  UNL     1     -12.016   4.305  65.729  1.00  0.00     0.000 HD 
HETATM   24  H1  UNL     1     -11.272   5.383  64.697  1.00  0.00     0.000 HD 
HETATM   25  C   UNL     1      -9.432   6.815  67.676  1.00  0.00    -0.118 A  
ENDBRANCH  13  14
ENDBRANCH   8  13
ENDBRANCH   4   5
ENDBRANCH   2   4
TORSDOF 6
ENDMDL
MODEL      210
REMARK 921   NORMALIZED FREE ENERGY PREDICTED BY IDOCK:   -3.92 KCAL/MOL
REMARK 922        TOTAL FREE ENERGY PREDICTED BY IDOCK:   -6.31 KCAL/MOL
REMARK 923 INTER-LIGAND FREE ENERGY PREDICTED BY IDOCK:   -5.43 KCAL/MOL
REMARK 924 INTRA-LIGAND FREE ENERGY PREDICTED BY IDOCK:   -0.88 KCAL/MOL
REMARK 927      BINDING AFFINITY PREDICTED BY RF-SCORE:    0.00 PKD
ROOT
HETATM    1  C   UNL     1     -12.534   8.848  71.619  1.00  0.00    -0.403 C  
HETATM    2  C   UNL     1     -11.127   8.588  72.067  1.00  0.00    -0.342 C  
HETATM    3  O   UNL     1     -10.824   7.815  72.964  1.00  0.00    -0.373 OA 
ENDROOT
BRANCH   2   4
HETATM    4  O   UNL     1     -10.255   9.358  71.361  1.00  0.00    -0.316 OA 
BRANCH   4   5
HETATM    5  C   UNL     1      -9.173   8.650  70.732  1.00  0.00    -0.185 C  
HETATM    6  C   UNL     1      -8.932   9.134  69.288  1.00  0.00    -0.145 C  
HETATM    7  C   UNL     1      -7.849   8.236  68.650  1.00  0.00    -0.120 C  
HETATM    8  C   UNL     1      -8.589  10.645  69.279  1.00  0.00    -0.096 C  
BRANCH   7   9
HETATM    9  O   UNL     1      -7.551   8.577  67.287  1.00  0.00    -0.094 OA 
BRANCH   9  10
HETATM   10  C   UNL     1      -8.145   7.835  66.316  1.00  0.00    -0.114 C  
HETATM   11  O   UNL     1      -8.458   6.659  66.420  1.00  0.00    -0.115 OA 
HETATM   12  C   UNL     1      -8.431   8.677  65.107  1.00  0.00    -0.197 C  
ENDBRANCH   9  10
ENDBRANCH   7   9
BRANCH   8  13
HETATM   13  C   UNL     1      -8.443  11.246  67.881  1.00  0.00    -0.133 C  
BRANCH  13  14
HETATM   14  N   UNL     1      -9.680  11.781  67.357  1.00  0.00    -0.178 NA 
HETATM   15  C   UNL     1     -10.422  11.260  66.333  1.00  0.00    -0.257 A  
HETATM   16  N   UNL     1     -11.451  12.029  66.039  1.00  0.00    -0.357 NA 
HETATM   17  C   UNL     1     -11.338  13.108  66.885  1.00  0.00    -0.318 A  
HETATM   18  C   UNL     1     -12.081  14.267  67.055  1.00  0.00    -0.390 A  
HETATM   19  N   UNL     1     -11.685  15.186  67.975  1.00  0.00    -0.333 NA 
HETATM   20  C   UNL     1     -10.574  14.946  68.693  1.00  0.00    -0.251 A  
HETATM   21  N   UNL     1      -9.806  13.848  68.641  1.00  0.00    -0.209 NA 
HETATM   22  N   UNL     1     -10.205  15.925  69.594  1.00  0.00    -0.272 NA 
HETATM   23  H2  UNL     1     -10.983  16.127  70.221  1.00  0.00     0.000 HD 
HETATM   24  H1  UNL     1      -9.362  15.744  70.138  1.00  0.00     0.000 HD 
HETATM   25  C   UNL     1     -10.238  12.977  67.713  1.00  0.00    -0.228 A  
ENDBRANCH  13  14
ENDBRANCH   8  13
ENDBRANCH   4   5
ENDBRANCH   2   4
TORSDOF 6
ENDMDL
MODEL      211
REMARK 921   NORMALIZED FREE ENERGY PREDICTED BY IDOCK:   -3.91 KCAL/MOL
REMARK 922        TOTAL FREE ENERGY PREDICTED BY IDOCK:   -6.29 KCAL/MOL
REMARK 923 INTER-LIGAND FREE ENERGY PREDICTED BY IDOCK:   -5.35 KCAL/MOL
REMARK 924 INTRA-LIGAND FREE ENERGY PREDICTED BY IDOCK:   -0.94 KCAL/MOL
REMARK 927      BINDING AFFINITY PREDICTED BY RF-SCORE:    0.00 PKD
ROOT
HETATM    1  C   UNL     1     -12.540  13.585  65.736  1.00  0.00    -0.490 C  
HETATM    2  C   UNL     1     -11.859  13.464  67.065  1.00  0.00    -0.394 C  
HETATM    3  O   UNL     1     -12.088  14.189  68.022  1.00  0.00    -0.351 OA 
ENDROOT
BRANCH   2   4
HETATM    4  O   UNL     1     -10.936  12.464  67.036  1.00  0.00    -0.242 OA 
BRANCH   4   5
HETATM    5  C   UNL     1     -10.624  11.948  65.731  1.00  0.00    -0.267 C  
HETATM    6  C   UNL     1      -9.818  10.635  65.810  1.00  0.00    -0.296 C  
HETATM    7  C   UNL     1      -9.416  10.226  64.376  1.00  0.00    -0.302 C  
HETATM    8  C   UNL     1     -10.625   9.556  66.575  1.00  0.00    -0.133 C  
BRANCH   7   9
HETATM    9  O   UNL     1      -8.637   9.020  64.320  1.00  0.00    -0.189 OA 
BRANCH   9  10
HETATM   10  C   UNL     1      -7.298   9.154  64.134  1.00  0.00    -0.104 C  
HETATM   11  O   UNL     1      -6.771   9.768  63.220  1.00  0.00    -0.108 OA 
HETATM   12  C   UNL     1      -6.540   8.495  65.251  1.00  0.00    -0.063 C  
ENDBRANCH   9  10
ENDBRANCH   7   9
BRANCH   8  13
HETATM   13  C   UNL     1      -9.863   8.250  66.806  1.00  0.00    -0.263 C  
BRANCH  13  14
HETATM   14  N   UNL     1      -9.878   7.816  68.185  1.00  0.00    -0.161 NA 
HETATM   15  C   UNL     1     -10.712   6.881  68.733  1.00  0.00    -0.219 A  
HETATM   16  N   UNL     1     -10.530   6.772  70.034  1.00  0.00    -0.203 NA 
HETATM   17  C   UNL     1      -9.566   7.707  70.334  1.00  0.00    -0.168 A  
HETATM   18  C   UNL     1      -8.961   8.105  71.518  1.00  0.00    -0.158 A  
HETATM   19  N   UNL     1      -8.044   9.108  71.496  1.00  0.00    -0.336 NA 
HETATM   20  C   UNL     1      -7.753   9.694  70.320  1.00  0.00    -0.172 A  
HETATM   21  N   UNL     1      -8.244   9.364  69.117  1.00  0.00    -0.108 NA 
HETATM   22  N   UNL     1      -6.834  10.723  70.361  1.00  0.00    -0.476 NA 
HETATM   23  H2  UNL     1      -5.976  10.401  70.808  1.00  0.00     0.000 HD 
HETATM   24  H1  UNL     1      -6.614  11.168  69.471  1.00  0.00     0.000 HD 
HETATM   25  C   UNL     1      -9.148   8.373  69.197  1.00  0.00    -0.147 A  
ENDBRANCH  13  14
ENDBRANCH   8  13
ENDBRANCH   4   5
ENDBRANCH   2   4
TORSDOF 6
ENDMDL
MODEL      212
REMARK 921   NORMALIZED FREE ENERGY PREDICTED BY IDOCK:   -3.91 KCAL/MOL
REMARK 922        TOTAL FREE ENERGY PREDICTED BY IDOCK:   -6.29 KCAL/MOL
REMARK 923 INTER-LIGAND FREE ENERGY PREDICTED BY IDOCK:   -5.41 KCAL/MOL
REMARK 924 INTRA-LIGAND FREE ENERGY PREDICTED BY IDOCK:   -0.88 KCAL/MOL
REMARK 927      BINDING AFFINITY PREDICTED BY RF-SCORE:    0.00 PKD
ROOT
HETATM    1  C   UNL     1     -12.099   6.704  71.923  1.00  0.00    -0.385 C  
HETATM    2  C   UNL     1     -12.920   7.936  71.689  1.00  0.00    -0.334 C  
HETATM    3  O   UNL     1     -14.091   7.924  71.338  1.00  0.00    -0.371 OA 
ENDROOT
BRANCH   2   4
HETATM    4  O   UNL     1     -12.168   9.052  71.888  1.00  0.00    -0.335 OA 
BRANCH   4   5
HETATM    5  C   UNL     1     -12.475  10.166  71.033  1.00  0.00    -0.375 C  
HETATM    6  C   UNL     1     -11.274  10.561  70.150  1.00  0.00    -0.389 C  
HETATM    7  C   UNL     1     -11.647  11.839  69.367  1.00  0.00    -0.322 C  
HETATM    8  C   UNL     1     -10.851   9.369  69.255  1.00  0.00    -0.190 C  
BRANCH   7   9
HETATM    9  O   UNL     1     -10.593  12.321  68.519  1.00  0.00    -0.224 OA 
BRANCH   9  10
HETATM   10  C   UNL     1     -10.898  13.328  67.659  1.00  0.00    -0.258 C  
HETATM   11  O   UNL     1     -10.344  14.415  67.621  1.00  0.00    -0.236 OA 
HETATM   12  C   UNL     1     -11.975  12.899  66.704  1.00  0.00    -0.436 C  
ENDBRANCH   9  10
ENDBRANCH   7   9
BRANCH   8  13
HETATM   13  C   UNL     1      -9.594   9.625  68.423  1.00  0.00    -0.144 C  
BRANCH  13  14
HETATM   14  N   UNL     1      -8.395   9.746  69.221  1.00  0.00    -0.130 NA 
HETATM   15  C   UNL     1      -8.096   9.036  70.352  1.00  0.00    -0.143 A  
HETATM   16  N   UNL     1      -6.965   9.441  70.894  1.00  0.00    -0.184 NA 
HETATM   17  C   UNL     1      -6.544  10.480  70.097  1.00  0.00    -0.149 A  
HETATM   18  C   UNL     1      -5.453  11.335  70.144  1.00  0.00    -0.097 A  
HETATM   19  N   UNL     1      -5.328  12.312  69.207  1.00  0.00    -0.067 NA 
HETATM   20  C   UNL     1      -6.276  12.426  68.260  1.00  0.00    -0.056 A  
HETATM   21  N   UNL     1      -7.345  11.634  68.095  1.00  0.00    -0.086 NA 
HETATM   22  N   UNL     1      -6.111  13.452  67.351  1.00  0.00    -0.383 NA 
HETATM   23  H2  UNL     1      -5.193  13.380  66.912  1.00  0.00     0.000 HD 
HETATM   24  H1  UNL     1      -6.830  13.539  66.632  1.00  0.00     0.000 HD 
HETATM   25  C   UNL     1      -7.423  10.691  69.050  1.00  0.00    -0.117 A  
ENDBRANCH  13  14
ENDBRANCH   8  13
ENDBRANCH   4   5
ENDBRANCH   2   4
TORSDOF 6
ENDMDL
MODEL      213
REMARK 921   NORMALIZED FREE ENERGY PREDICTED BY IDOCK:   -3.89 KCAL/MOL
REMARK 922        TOTAL FREE ENERGY PREDICTED BY IDOCK:   -6.26 KCAL/MOL
REMARK 923 INTER-LIGAND FREE ENERGY PREDICTED BY IDOCK:   -5.44 KCAL/MOL
REMARK 924 INTRA-LIGAND FREE ENERGY PREDICTED BY IDOCK:   -0.82 KCAL/MOL
REMARK 927      BINDING AFFINITY PREDICTED BY RF-SCORE:    0.00 PKD
ROOT
HETATM    1  C   UNL     1     -11.781  12.144  68.654  1.00  0.00    -0.382 C  
HETATM    2  C   UNL     1     -11.205  11.914  67.290  1.00  0.00    -0.317 C  
HETATM    3  O   UNL     1     -11.814  12.103  66.247  1.00  0.00    -0.553 OA 
ENDROOT
BRANCH   2   4
HETATM    4  O   UNL     1      -9.935  11.434  67.386  1.00  0.00    -0.184 OA 
BRANCH   4   5
HETATM    5  C   UNL     1      -9.531  10.536  66.338  1.00  0.00    -0.171 C  
HETATM    6  C   UNL     1      -9.250   9.118  66.874  1.00  0.00    -0.183 C  
HETATM    7  C   UNL     1      -8.698   8.261  65.713  1.00  0.00    -0.166 C  
HETATM    8  C   UNL     1     -10.519   8.536  67.545  1.00  0.00    -0.328 C  
BRANCH   7   9
HETATM    9  O   UNL     1      -8.376   6.915  66.096  1.00  0.00    -0.118 OA 
BRANCH   9  10
HETATM   10  C   UNL     1      -8.468   5.957  65.137  1.00  0.00    -0.130 C  
HETATM   11  O   UNL     1      -9.083   4.908  65.245  1.00  0.00    -0.153 OA 
HETATM   12  C   UNL     1      -7.761   6.392  63.885  1.00  0.00    -0.104 C  
ENDBRANCH   9  10
ENDBRANCH   7   9
BRANCH   8  13
HETATM   13  C   UNL     1     -10.309   7.175  68.210  1.00  0.00    -0.195 C  
BRANCH  13  14
HETATM   14  N   UNL     1     -10.669   7.162  69.610  1.00  0.00    -0.234 NA 
HETATM   15  C   UNL     1     -11.872   6.779  70.137  1.00  0.00    -0.262 A  
HETATM   16  N   UNL     1     -11.911   6.963  71.442  1.00  0.00    -0.329 NA 
HETATM   17  C   UNL     1     -10.695   7.525  71.755  1.00  0.00    -0.211 A  
HETATM   18  C   UNL     1     -10.131   7.975  72.940  1.00  0.00    -0.306 A  
HETATM   19  N   UNL     1      -8.890   8.529  72.921  1.00  0.00    -0.359 NA 
HETATM   20  C   UNL     1      -8.243   8.631  71.746  1.00  0.00    -0.124 A  
HETATM   21  N   UNL     1      -8.674   8.194  70.553  1.00  0.00    -0.133 NA 
HETATM   22  N   UNL     1      -6.997   9.224  71.783  1.00  0.00    -0.314 NA 
HETATM   23  H2  UNL     1      -6.406   8.743  72.460  1.00  0.00     0.000 HD 
HETATM   24  H1  UNL     1      -6.507   9.302  70.892  1.00  0.00     0.000 HD 
HETATM   25  C   UNL     1      -9.906   7.663  70.628  1.00  0.00    -0.182 A  
ENDBRANCH  13  14
ENDBRANCH   8  13
ENDBRANCH   4   5
ENDBRANCH   2   4
TORSDOF 6
ENDMDL
MODEL      214
REMARK 921   NORMALIZED FREE ENERGY PREDICTED BY IDOCK:   -3.89 KCAL/MOL
REMARK 922        TOTAL FREE ENERGY PREDICTED BY IDOCK:   -6.26 KCAL/MOL
REMARK 923 INTER-LIGAND FREE ENERGY PREDICTED BY IDOCK:   -5.14 KCAL/MOL
REMARK 924 INTRA-LIGAND FREE ENERGY PREDICTED BY IDOCK:   -1.12 KCAL/MOL
REMARK 927      BINDING AFFINITY PREDICTED BY RF-SCORE:    0.00 PKD
ROOT
HETATM    1  C   UNL     1      -7.067  12.672  68.685  1.00  0.00    -0.096 C  
HETATM    2  C   UNL     1      -7.077  14.078  68.162  1.00  0.00    -0.125 C  
HETATM    3  O   UNL     1      -6.319  14.495  67.299  1.00  0.00    -0.301 OA 
ENDROOT
BRANCH   2   4
HETATM    4  O   UNL     1      -8.018  14.817  68.810  1.00  0.00    -0.138 OA 
BRANCH   4   5
HETATM    5  C   UNL     1      -8.953  15.508  67.964  1.00  0.00    -0.174 C  
HETATM    6  C   UNL     1     -10.075  14.576  67.463  1.00  0.00    -0.228 C  
HETATM    7  C   UNL     1     -10.950  15.362  66.463  1.00  0.00    -0.271 C  
HETATM    8  C   UNL     1     -10.857  13.986  68.664  1.00  0.00    -0.272 C  
BRANCH   7   9
HETATM    9  O   UNL     1     -12.024  14.588  65.908  1.00  0.00    -0.366 OA 
BRANCH   9  10
HETATM   10  C   UNL     1     -11.759  13.877  64.780  1.00  0.00    -0.386 C  
HETATM   11  O   UNL     1     -11.093  14.274  63.837  1.00  0.00     0.140 OA 
HETATM   12  C   UNL     1     -12.345  12.497  64.874  1.00  0.00    -0.539 C  
ENDBRANCH   9  10
ENDBRANCH   7   9
BRANCH   8  13
HETATM   13  C   UNL     1     -11.919  12.957  68.275  1.00  0.00    -0.254 C  
BRANCH  13  14
HETATM   14  N   UNL     1     -11.669  11.642  68.822  1.00  0.00    -0.306 NA 
HETATM   15  C   UNL     1     -12.154  11.147  70.001  1.00  0.00    -0.359 A  
HETATM   16  N   UNL     1     -11.673   9.946  70.257  1.00  0.00    -0.242 NA 
HETATM   17  C   UNL     1     -10.814   9.682  69.216  1.00  0.00    -0.205 A  
HETATM   18  C   UNL     1      -9.985   8.611  68.914  1.00  0.00    -0.189 A  
HETATM   19  N   UNL     1      -9.207   8.661  67.800  1.00  0.00    -0.135 NA 
HETATM   20  C   UNL     1      -9.260   9.757  67.022  1.00  0.00    -0.142 A  
HETATM   21  N   UNL     1     -10.050  10.826  67.195  1.00  0.00    -0.197 NA 
HETATM   22  N   UNL     1      -8.430   9.763  65.918  1.00  0.00    -0.126 NA 
HETATM   23  H2  UNL     1      -8.601   8.931  65.354  1.00  0.00     0.000 HD 
HETATM   24  H1  UNL     1      -8.469  10.594  65.328  1.00  0.00     0.000 HD 
HETATM   25  C   UNL     1     -10.791  10.728  68.311  1.00  0.00    -0.229 A  
ENDBRANCH  13  14
ENDBRANCH   8  13
ENDBRANCH   4   5
ENDBRANCH   2   4
TORSDOF 6
ENDMDL
MODEL      215
REMARK 921   NORMALIZED FREE ENERGY PREDICTED BY IDOCK:   -3.88 KCAL/MOL
REMARK 922        TOTAL FREE ENERGY PREDICTED BY IDOCK:   -6.25 KCAL/MOL
REMARK 923 INTER-LIGAND FREE ENERGY PREDICTED BY IDOCK:   -5.42 KCAL/MOL
REMARK 924 INTRA-LIGAND FREE ENERGY PREDICTED BY IDOCK:   -0.83 KCAL/MOL
REMARK 927      BINDING AFFINITY PREDICTED BY RF-SCORE:    0.00 PKD
ROOT
HETATM    1  C   UNL     1      -7.013  10.462  66.036  1.00  0.00    -0.129 C  
HETATM    2  C   UNL     1      -7.440  11.673  66.810  1.00  0.00    -0.091 C  
HETATM    3  O   UNL     1      -6.671  12.420  67.396  1.00  0.00    -0.133 OA 
ENDROOT
BRANCH   2   4
HETATM    4  O   UNL     1      -8.796  11.793  66.792  1.00  0.00    -0.180 OA 
BRANCH   4   5
HETATM    5  C   UNL     1      -9.345  12.745  67.719  1.00  0.00    -0.199 C  
HETATM    6  C   UNL     1     -10.606  12.203  68.421  1.00  0.00    -0.243 C  
HETATM    7  C   UNL     1     -11.201  13.332  69.291  1.00  0.00    -0.208 C  
HETATM    8  C   UNL     1     -10.270  10.909  69.203  1.00  0.00    -0.215 C  
BRANCH   7   9
HETATM    9  O   UNL     1     -12.400  12.951  69.984  1.00  0.00    -0.234 OA 
BRANCH   9  10
HETATM   10  C   UNL     1     -12.686  13.609  71.138  1.00  0.00    -0.353 C  
HETATM   11  O   UNL     1     -12.402  14.773  71.375  1.00  0.00    -0.301 OA 
HETATM   12  C   UNL     1     -13.467  12.728  72.070  1.00  0.00    -0.540 C  
ENDBRANCH   9  10
ENDBRANCH   7   9
BRANCH   8  13
HETATM   13  C   UNL     1     -11.481  10.229  69.843  1.00  0.00    -0.273 C  
BRANCH  13  14
HETATM   14  N   UNL     1     -11.137   9.056  70.614  1.00  0.00    -0.254 NA 
HETATM   15  C   UNL     1     -10.825   9.021  71.945  1.00  0.00    -0.343 A  
HETATM   16  N   UNL     1     -10.476   7.810  72.330  1.00  0.00    -0.241 NA 
HETATM   17  C   UNL     1     -10.529   7.048  71.186  1.00  0.00    -0.211 A  
HETATM   18  C   UNL     1     -10.253   5.715  70.916  1.00  0.00    -0.223 A  
HETATM   19  N   UNL     1     -10.369   5.253  69.643  1.00  0.00    -0.278 NA 
HETATM   20  C   UNL     1     -10.743   6.109  68.675  1.00  0.00    -0.307 A  
HETATM   21  N   UNL     1     -11.072   7.400  68.829  1.00  0.00     0.057 NA 
HETATM   22  N   UNL     1     -10.819   5.591  67.398  1.00  0.00    -0.284 NA 
HETATM   23  H2  UNL     1     -11.432   4.775  67.392  1.00  0.00     0.000 HD 
HETATM   24  H1  UNL     1     -11.103   6.239  66.663  1.00  0.00     0.000 HD 
HETATM   25  C   UNL     1     -10.934   7.805  70.103  1.00  0.00    -0.241 A  
ENDBRANCH  13  14
ENDBRANCH   8  13
ENDBRANCH   4   5
ENDBRANCH   2   4
TORSDOF 6
ENDMDL
MODEL      216
REMARK 921   NORMALIZED FREE ENERGY PREDICTED BY IDOCK:   -3.86 KCAL/MOL
REMARK 922        TOTAL FREE ENERGY PREDICTED BY IDOCK:   -6.22 KCAL/MOL
REMARK 923 INTER-LIGAND FREE ENERGY PREDICTED BY IDOCK:   -5.32 KCAL/MOL
REMARK 924 INTRA-LIGAND FREE ENERGY PREDICTED BY IDOCK:   -0.90 KCAL/MOL
REMARK 927      BINDING AFFINITY PREDICTED BY RF-SCORE:    0.00 PKD
ROOT
HETATM    1  C   UNL     1      -9.065  10.899  65.978  1.00  0.00    -0.208 C  
HETATM    2  C   UNL     1     -10.413  11.441  66.347  1.00  0.00    -0.254 C  
HETATM    3  O   UNL     1     -10.826  12.542  66.012  1.00  0.00    -0.265 OA 
ENDROOT
BRANCH   2   4
HETATM    4  O   UNL     1     -11.084  10.552  67.129  1.00  0.00    -0.265 OA 
BRANCH   4   5
HETATM    5  C   UNL     1     -11.597  11.079  68.365  1.00  0.00    -0.302 C  
HETATM    6  C   UNL     1     -11.419  10.086  69.531  1.00  0.00    -0.176 C  
HETATM    7  C   UNL     1     -12.112  10.675  70.780  1.00  0.00    -0.374 C  
HETATM    8  C   UNL     1      -9.918   9.761  69.733  1.00  0.00    -0.265 C  
BRANCH   7   9
HETATM    9  O   UNL     1     -12.032   9.825  71.935  1.00  0.00    -0.365 OA 
BRANCH   9  10
HETATM   10  C   UNL     1     -13.116   9.056  72.217  1.00  0.00    -0.445 C  
HETATM   11  O   UNL     1     -14.200   9.476  72.591  1.00  0.00    -0.344 OA 
HETATM   12  C   UNL     1     -12.825   7.609  71.940  1.00  0.00    -0.308 C  
ENDBRANCH   9  10
ENDBRANCH   7   9
BRANCH   8  13
HETATM   13  C   UNL     1      -9.645   8.695  70.796  1.00  0.00    -0.188 C  
BRANCH  13  14
HETATM   14  N   UNL     1      -9.661   7.348  70.271  1.00  0.00    -0.166 NA 
HETATM   15  C   UNL     1      -9.885   6.985  68.972  1.00  0.00    -0.154 A  
HETATM   16  N   UNL     1      -9.919   5.674  68.834  1.00  0.00    -0.152 NA 
HETATM   17  C   UNL     1      -9.748   5.181  70.107  1.00  0.00    -0.204 A  
HETATM   18  C   UNL     1      -9.716   3.898  70.635  1.00  0.00    -0.178 A  
HETATM   19  N   UNL     1      -9.562   3.731  71.975  1.00  0.00    -0.137 NA 
HETATM   20  C   UNL     1      -9.451   4.821  72.756  1.00  0.00    -0.132 A  
HETATM   21  N   UNL     1      -9.428   6.099  72.350  1.00  0.00    -0.149 NA 
HETATM   22  N   UNL     1      -9.323   4.592  74.111  1.00  0.00    -0.113 NA 
HETATM   23  H2  UNL     1      -8.537   3.965  74.281  1.00  0.00     0.000 HD 
HETATM   24  H1  UNL     1      -9.239   5.418  74.703  1.00  0.00     0.000 HD 
HETATM   25  C   UNL     1      -9.590   6.207  71.020  1.00  0.00    -0.175 A  
ENDBRANCH  13  14
ENDBRANCH   8  13
ENDBRANCH   4   5
ENDBRANCH   2   4
TORSDOF 6
ENDMDL
MODEL      217
REMARK 921   NORMALIZED FREE ENERGY PREDICTED BY IDOCK:   -3.84 KCAL/MOL
REMARK 922        TOTAL FREE ENERGY PREDICTED BY IDOCK:   -6.20 KCAL/MOL
REMARK 923 INTER-LIGAND FREE ENERGY PREDICTED BY IDOCK:   -5.45 KCAL/MOL
REMARK 924 INTRA-LIGAND FREE ENERGY PREDICTED BY IDOCK:   -0.75 KCAL/MOL
REMARK 927      BINDING AFFINITY PREDICTED BY RF-SCORE:    0.00 PKD
ROOT
HETATM    1  C   UNL     1     -10.617  13.847  65.101  1.00  0.00    -0.391 C  
HETATM    2  C   UNL     1     -11.521  13.494  66.244  1.00  0.00    -0.326 C  
HETATM    3  O   UNL     1     -12.533  14.114  66.535  1.00  0.00    -0.447 OA 
ENDROOT
BRANCH   2   4
HETATM    4  O   UNL     1     -11.033  12.418  66.919  1.00  0.00    -0.246 OA 
BRANCH   4   5
HETATM    5  C   UNL     1     -11.515  12.262  68.266  1.00  0.00    -0.315 C  
HETATM    6  C   UNL     1     -11.231  10.850  68.818  1.00  0.00    -0.329 C  
HETATM    7  C   UNL     1     -11.894  10.730  70.207  1.00  0.00    -0.349 C  
HETATM    8  C   UNL     1      -9.707  10.570  68.815  1.00  0.00    -0.187 C  
BRANCH   7   9
HETATM    9  O   UNL     1     -11.716   9.443  70.819  1.00  0.00    -0.276 OA 
BRANCH   9  10
HETATM   10  C   UNL     1     -12.450   9.177  71.931  1.00  0.00    -0.387 C  
HETATM   11  O   UNL     1     -13.448   9.788  72.279  1.00  0.00    -0.434 OA 
HETATM   12  C   UNL     1     -11.907   7.975  72.649  1.00  0.00    -0.380 C  
ENDBRANCH   9  10
ENDBRANCH   7   9
BRANCH   8  13
HETATM   13  C   UNL     1      -9.330   9.150  69.239  1.00  0.00    -0.157 C  
BRANCH  13  14
HETATM   14  N   UNL     1      -7.975   9.041  69.731  1.00  0.00    -0.093 NA 
HETATM   15  C   UNL     1      -6.838   8.984  68.974  1.00  0.00    -0.055 A  
HETATM   16  N   UNL     1      -5.767   8.800  69.720  1.00  0.00    -0.029 NA 
HETATM   17  C   UNL     1      -6.247   8.696  71.005  1.00  0.00    -0.042 A  
HETATM   18  C   UNL     1      -5.640   8.472  72.233  1.00  0.00    -0.050 A  
HETATM   19  N   UNL     1      -6.408   8.383  73.351  1.00  0.00    -0.109 NA 
HETATM   20  C   UNL     1      -7.742   8.509  73.233  1.00  0.00     0.014 A  
HETATM   21  N   UNL     1      -8.427   8.766  72.109  1.00  0.00    -0.385 NA 
HETATM   22  N   UNL     1      -8.473   8.385  74.397  1.00  0.00    -0.360 NA 
HETATM   23  H2  UNL     1      -8.125   9.043  75.095  1.00  0.00     0.000 HD 
HETATM   24  H1  UNL     1      -9.484   8.479  74.308  1.00  0.00     0.000 HD 
HETATM   25  C   UNL     1      -7.622   8.838  71.036  1.00  0.00    -0.111 A  
ENDBRANCH  13  14
ENDBRANCH   8  13
ENDBRANCH   4   5
ENDBRANCH   2   4
TORSDOF 6
ENDMDL
MODEL      218
REMARK 921   NORMALIZED FREE ENERGY PREDICTED BY IDOCK:   -3.83 KCAL/MOL
REMARK 922        TOTAL FREE ENERGY PREDICTED BY IDOCK:   -6.19 KCAL/MOL
REMARK 923 INTER-LIGAND FREE ENERGY PREDICTED BY IDOCK:   -5.32 KCAL/MOL
REMARK 924 INTRA-LIGAND FREE ENERGY PREDICTED BY IDOCK:   -0.87 KCAL/MOL
REMARK 927      BINDING AFFINITY PREDICTED BY RF-SCORE:    0.00 PKD
ROOT
HETATM    1  C   UNL     1      -8.612   8.334  66.526  1.00  0.00    -0.141 C  
HETATM    2  C   UNL     1      -8.377   9.768  66.891  1.00  0.00    -0.120 C  
HETATM    3  O   UNL     1      -8.361  10.688  66.086  1.00  0.00    -0.146 OA 
ENDROOT
BRANCH   2   4
HETATM    4  O   UNL     1      -8.152   9.887  68.228  1.00  0.00    -0.102 OA 
BRANCH   4   5
HETATM    5  C   UNL     1      -9.050  10.762  68.932  1.00  0.00    -0.164 C  
HETATM    6  C   UNL     1     -10.360  10.048  69.324  1.00  0.00    -0.237 C  
HETATM    7  C   UNL     1     -11.311  11.090  69.952  1.00  0.00    -0.287 C  
HETATM    8  C   UNL     1     -10.056   8.834  70.237  1.00  0.00    -0.214 C  
BRANCH   7   9
HETATM    9  O   UNL     1     -12.582  10.546  70.342  1.00  0.00    -0.320 OA 
BRANCH   9  10
HETATM   10  C   UNL     1     -13.108  10.978  71.517  1.00  0.00    -0.396 C  
HETATM   11  O   UNL     1     -13.182  12.145  71.870  1.00  0.00    -0.478 OA 
HETATM   12  C   UNL     1     -13.656   9.825  72.307  1.00  0.00    -0.397 C  
ENDBRANCH   9  10
ENDBRANCH   7   9
BRANCH   8  13
HETATM   13  C   UNL     1     -11.283   7.991  70.588  1.00  0.00    -0.261 C  
BRANCH  13  14
HETATM   14  N   UNL     1     -11.005   6.953  71.555  1.00  0.00    -0.234 NA 
HETATM   15  C   UNL     1     -11.010   7.089  72.916  1.00  0.00    -0.302 A  
HETATM   16  N   UNL     1     -10.633   5.977  73.516  1.00  0.00    -0.257 NA 
HETATM   17  C   UNL     1     -10.337   5.108  72.491  1.00  0.00    -0.204 A  
HETATM   18  C   UNL     1      -9.866   3.803  72.456  1.00  0.00    -0.153 A  
HETATM   19  N   UNL     1      -9.632   3.210  71.255  1.00  0.00    -0.153 NA 
HETATM   20  C   UNL     1      -9.859   3.911  70.130  1.00  0.00    -0.092 A  
HETATM   21  N   UNL     1     -10.350   5.156  70.047  1.00  0.00    -0.289 NA 
HETATM   22  N   UNL     1      -9.580   3.267  68.941  1.00  0.00    -0.112 NA 
HETATM   23  H2  UNL     1     -10.083   2.381  68.903  1.00  0.00     0.000 HD 
HETATM   24  H1  UNL     1      -9.751   3.799  68.088  1.00  0.00     0.000 HD 
HETATM   25  C   UNL     1     -10.557   5.697  71.260  1.00  0.00    -0.255 A  
ENDBRANCH  13  14
ENDBRANCH   8  13
ENDBRANCH   4   5
ENDBRANCH   2   4
TORSDOF 6
ENDMDL
MODEL      219
REMARK 921   NORMALIZED FREE ENERGY PREDICTED BY IDOCK:   -3.83 KCAL/MOL
REMARK 922        TOTAL FREE ENERGY PREDICTED BY IDOCK:   -6.18 KCAL/MOL
REMARK 923 INTER-LIGAND FREE ENERGY PREDICTED BY IDOCK:   -5.28 KCAL/MOL
REMARK 924 INTRA-LIGAND FREE ENERGY PREDICTED BY IDOCK:   -0.90 KCAL/MOL
REMARK 927      BINDING AFFINITY PREDICTED BY RF-SCORE:    0.00 PKD
ROOT
HETATM    1  C   UNL     1     -12.314  14.197  66.188  1.00  0.00    -0.463 C  
HETATM    2  C   UNL     1     -12.154  13.799  67.624  1.00  0.00    -0.298 C  
HETATM    3  O   UNL     1     -11.984  14.588  68.541  1.00  0.00    -0.327 OA 
ENDROOT
BRANCH   2   4
HETATM    4  O   UNL     1     -12.188  12.443  67.746  1.00  0.00    -0.395 OA 
BRANCH   4   5
HETATM    5  C   UNL     1     -11.508  11.908  68.894  1.00  0.00    -0.301 C  
HETATM    6  C   UNL     1     -11.395  10.371  68.830  1.00  0.00    -0.278 C  
HETATM    7  C   UNL     1     -10.775   9.875  70.155  1.00  0.00    -0.308 C  
HETATM    8  C   UNL     1     -10.612   9.943  67.564  1.00  0.00    -0.333 C  
BRANCH   7   9
HETATM    9  O   UNL     1     -10.637   8.447  70.224  1.00  0.00    -0.217 OA 
BRANCH   9  10
HETATM   10  C   UNL     1     -11.622   7.758  70.859  1.00  0.00    -0.274 C  
HETATM   11  O   UNL     1     -11.935   6.601  70.626  1.00  0.00    -0.395 OA 
HETATM   12  C   UNL     1     -12.237   8.593  71.944  1.00  0.00    -0.419 C  
ENDBRANCH   9  10
ENDBRANCH   7   9
BRANCH   8  13
HETATM   13  C   UNL     1     -10.544   8.431  67.349  1.00  0.00    -0.243 C  
BRANCH  13  14
HETATM   14  N   UNL     1      -9.193   7.929  67.243  1.00  0.00    -0.139 NA 
HETATM   15  C   UNL     1      -8.156   8.521  66.576  1.00  0.00    -0.103 A  
HETATM   16  N   UNL     1      -7.073   7.769  66.596  1.00  0.00    -0.077 NA 
HETATM   17  C   UNL     1      -7.448   6.631  67.270  1.00  0.00    -0.092 A  
HETATM   18  C   UNL     1      -6.785   5.457  67.598  1.00  0.00    -0.055 A  
HETATM   19  N   UNL     1      -7.454   4.473  68.257  1.00  0.00    -0.065 NA 
HETATM   20  C   UNL     1      -8.748   4.665  68.567  1.00  0.00    -0.098 A  
HETATM   21  N   UNL     1      -9.473   5.770  68.336  1.00  0.00    -0.120 NA 
HETATM   22  N   UNL     1      -9.384   3.623  69.212  1.00  0.00    -0.164 NA 
HETATM   23  H2  UNL     1      -8.863   3.369  70.051  1.00  0.00     0.000 HD 
HETATM   24  H1  UNL     1     -10.366   3.768  69.447  1.00  0.00     0.000 HD 
HETATM   25  C   UNL     1      -8.767   6.705  67.679  1.00  0.00    -0.118 A  
ENDBRANCH  13  14
ENDBRANCH   8  13
ENDBRANCH   4   5
ENDBRANCH   2   4
TORSDOF 6
ENDMDL
MODEL      220
REMARK 921   NORMALIZED FREE ENERGY PREDICTED BY IDOCK:   -3.82 KCAL/MOL
REMARK 922        TOTAL FREE ENERGY PREDICTED BY IDOCK:   -6.17 KCAL/MOL
REMARK 923 INTER-LIGAND FREE ENERGY PREDICTED BY IDOCK:   -5.37 KCAL/MOL
REMARK 924 INTRA-LIGAND FREE ENERGY PREDICTED BY IDOCK:   -0.80 KCAL/MOL
REMARK 927      BINDING AFFINITY PREDICTED BY RF-SCORE:    0.00 PKD
ROOT
HETATM    1  C   UNL     1     -13.342   9.537  72.057  1.00  0.00    -0.535 C  
HETATM    2  C   UNL     1     -12.029   8.891  71.728  1.00  0.00    -0.359 C  
HETATM    3  O   UNL     1     -11.691   7.784  72.121  1.00  0.00    -0.289 OA 
ENDROOT
BRANCH   2   4
HETATM    4  O   UNL     1     -11.268   9.726  70.970  1.00  0.00    -0.330 OA 
BRANCH   4   5
HETATM    5  C   UNL     1     -10.543   9.099  69.897  1.00  0.00    -0.230 C  
HETATM    6  C   UNL     1     -10.648   9.903  68.586  1.00  0.00    -0.244 C  
HETATM    7  C   UNL     1      -9.957   9.096  67.465  1.00  0.00    -0.205 C  
HETATM    8  C   UNL     1     -10.077  11.330  68.784  1.00  0.00    -0.204 C  
BRANCH   7   9
HETATM    9  O   UNL     1     -10.008   9.737  66.181  1.00  0.00    -0.244 OA 
BRANCH   9  10
HETATM   10  C   UNL     1      -8.899   9.651  65.399  1.00  0.00    -0.171 C  
HETATM   11  O   UNL     1      -8.901   9.496  64.188  1.00  0.00    -0.210 OA 
HETATM   12  C   UNL     1      -7.657   9.842  66.221  1.00  0.00    -0.102 C  
ENDBRANCH   9  10
ENDBRANCH   7   9
BRANCH   8  13
HETATM   13  C   UNL     1     -10.240  12.245  67.570  1.00  0.00    -0.204 C  
BRANCH  13  14
HETATM   14  N   UNL     1     -10.297  13.648  67.914  1.00  0.00    -0.243 NA 
HETATM   15  C   UNL     1     -11.404  14.450  67.873  1.00  0.00    -0.301 A  
HETATM   16  N   UNL     1     -11.108  15.701  68.166  1.00  0.00    -0.316 NA 
HETATM   17  C   UNL     1      -9.747  15.703  68.364  1.00  0.00    -0.202 A  
HETATM   18  C   UNL     1      -8.831  16.700  68.668  1.00  0.00    -0.249 A  
HETATM   19  N   UNL     1      -7.512  16.387  68.767  1.00  0.00    -0.194 NA 
HETATM   20  C   UNL     1      -7.129  15.115  68.558  1.00  0.00    -0.110 A  
HETATM   21  N   UNL     1      -7.929  14.070  68.300  1.00  0.00    -0.137 NA 
HETATM   22  N   UNL     1      -5.775  14.861  68.645  1.00  0.00    -0.087 NA 
HETATM   23  H2  UNL     1      -5.422  15.183  69.546  1.00  0.00     0.000 HD 
HETATM   24  H1  UNL     1      -5.485  13.896  68.487  1.00  0.00     0.000 HD 
HETATM   25  C   UNL     1      -9.219  14.435  68.207  1.00  0.00    -0.201 A  
ENDBRANCH  13  14
ENDBRANCH   8  13
ENDBRANCH   4   5
ENDBRANCH   2   4
TORSDOF 6
ENDMDL
MODEL      221
REMARK 921   NORMALIZED FREE ENERGY PREDICTED BY IDOCK:   -3.82 KCAL/MOL
REMARK 922        TOTAL FREE ENERGY PREDICTED BY IDOCK:   -6.17 KCAL/MOL
REMARK 923 INTER-LIGAND FREE ENERGY PREDICTED BY IDOCK:   -5.43 KCAL/MOL
REMARK 924 INTRA-LIGAND FREE ENERGY PREDICTED BY IDOCK:   -0.74 KCAL/MOL
REMARK 927      BINDING AFFINITY PREDICTED BY RF-SCORE:    0.00 PKD
ROOT
HETATM    1  C   UNL     1      -9.573  11.284  62.874  1.00  0.00    -0.377 C  
HETATM    2  C   UNL     1      -8.974  10.096  63.566  1.00  0.00    -0.245 C  
HETATM    3  O   UNL     1      -8.655   9.061  63.000  1.00  0.00    -0.203 OA 
ENDROOT
BRANCH   2   4
HETATM    4  O   UNL     1      -8.875  10.327  64.903  1.00  0.00    -0.168 OA 
BRANCH   4   5
HETATM    5  C   UNL     1      -9.728   9.523  65.736  1.00  0.00    -0.287 C  
HETATM    6  C   UNL     1      -9.837  10.091  67.165  1.00  0.00    -0.231 C  
HETATM    7  C   UNL     1     -10.659   9.100  68.019  1.00  0.00    -0.197 C  
HETATM    8  C   UNL     1     -10.415  11.528  67.129  1.00  0.00    -0.259 C  
BRANCH   7   9
HETATM    9  O   UNL     1     -10.812   9.511  69.387  1.00  0.00    -0.228 OA 
BRANCH   9  10
HETATM   10  C   UNL     1     -10.701   8.550  70.341  1.00  0.00    -0.228 C  
HETATM   11  O   UNL     1     -10.712   7.347  70.134  1.00  0.00    -0.232 OA 
HETATM   12  C   UNL     1     -10.491   9.169  71.693  1.00  0.00    -0.403 C  
ENDBRANCH   9  10
ENDBRANCH   7   9
BRANCH   8  13
HETATM   13  C   UNL     1     -10.456  12.222  68.491  1.00  0.00    -0.232 C  
BRANCH  13  14
HETATM   14  N   UNL     1     -10.703  13.643  68.401  1.00  0.00    -0.251 NA 
HETATM   15  C   UNL     1     -11.926  14.252  68.339  1.00  0.00    -0.309 A  
HETATM   16  N   UNL     1     -11.811  15.556  68.177  1.00  0.00    -0.226 NA 
HETATM   17  C   UNL     1     -10.457  15.782  68.093  1.00  0.00    -0.263 A  
HETATM   18  C   UNL     1      -9.692  16.923  67.896  1.00  0.00    -0.254 A  
HETATM   19  N   UNL     1      -8.339  16.816  67.822  1.00  0.00    -0.186 NA 
HETATM   20  C   UNL     1      -7.778  15.599  67.936  1.00  0.00    -0.131 A  
HETATM   21  N   UNL     1      -8.414  14.441  68.167  1.00  0.00    -0.152 NA 
HETATM   22  N   UNL     1      -6.403  15.547  67.828  1.00  0.00    -0.150 NA 
HETATM   23  H2  UNL     1      -5.980  16.186  68.501  1.00  0.00     0.000 HD 
HETATM   24  H1  UNL     1      -5.977  14.624  67.913  1.00  0.00     0.000 HD 
HETATM   25  C   UNL     1      -9.747  14.603  68.225  1.00  0.00    -0.215 A  
ENDBRANCH  13  14
ENDBRANCH   8  13
ENDBRANCH   4   5
ENDBRANCH   2   4
TORSDOF 6
ENDMDL
MODEL      222
REMARK 921   NORMALIZED FREE ENERGY PREDICTED BY IDOCK:   -3.80 KCAL/MOL
REMARK 922        TOTAL FREE ENERGY PREDICTED BY IDOCK:   -6.15 KCAL/MOL
REMARK 923 INTER-LIGAND FREE ENERGY PREDICTED BY IDOCK:   -5.40 KCAL/MOL
REMARK 924 INTRA-LIGAND FREE ENERGY PREDICTED BY IDOCK:   -0.75 KCAL/MOL
REMARK 927      BINDING AFFINITY PREDICTED BY RF-SCORE:    0.00 PKD
ROOT
HETATM    1  C   UNL     1     -11.814   6.266  71.961  1.00  0.00    -0.370 C  
HETATM    2  C   UNL     1     -12.797   7.371  71.716  1.00  0.00    -0.329 C  
HETATM    3  O   UNL     1     -13.853   7.230  71.117  1.00  0.00    -0.319 OA 
ENDROOT
BRANCH   2   4
HETATM    4  O   UNL     1     -12.327   8.544  72.221  1.00  0.00    -0.355 OA 
BRANCH   4   5
HETATM    5  C   UNL     1     -12.786   9.733  71.555  1.00  0.00    -0.405 C  
HETATM    6  C   UNL     1     -11.636  10.475  70.845  1.00  0.00    -0.385 C  
HETATM    7  C   UNL     1     -12.191  11.798  70.274  1.00  0.00    -0.299 C  
HETATM    8  C   UNL     1     -10.976   9.554  69.788  1.00  0.00    -0.245 C  
BRANCH   7   9
HETATM    9  O   UNL     1     -11.202  12.593  69.602  1.00  0.00    -0.145 OA 
BRANCH   9  10
HETATM   10  C   UNL     1     -11.423  12.885  68.293  1.00  0.00    -0.311 C  
HETATM   11  O   UNL     1     -12.349  12.457  67.623  1.00  0.00    -0.305 OA 
HETATM   12  C   UNL     1     -10.404  13.867  67.791  1.00  0.00    -0.240 C  
ENDBRANCH   9  10
ENDBRANCH   7   9
BRANCH   8  13
HETATM   13  C   UNL     1      -9.749  10.160  69.107  1.00  0.00    -0.215 C  
BRANCH  13  14
HETATM   14  N   UNL     1      -9.486   9.601  67.799  1.00  0.00    -0.127 NA 
HETATM   15  C   UNL     1      -9.941  10.084  66.603  1.00  0.00    -0.216 A  
HETATM   16  N   UNL     1      -9.597   9.299  65.601  1.00  0.00    -0.271 NA 
HETATM   17  C   UNL     1      -8.927   8.251  66.189  1.00  0.00    -0.181 A  
HETATM   18  C   UNL     1      -8.344   7.095  65.691  1.00  0.00    -0.136 A  
HETATM   19  N   UNL     1      -7.773   6.210  66.551  1.00  0.00    -0.101 NA 
HETATM   20  C   UNL     1      -7.797   6.480  67.868  1.00  0.00    -0.108 A  
HETATM   21  N   UNL     1      -8.294   7.580  68.453  1.00  0.00    -0.125 NA 
HETATM   22  N   UNL     1      -7.226   5.535  68.696  1.00  0.00    -0.072 NA 
HETATM   23  H2  UNL     1      -6.267   5.351  68.399  1.00  0.00     0.000 HD 
HETATM   24  H1  UNL     1      -7.244   5.739  69.695  1.00  0.00     0.000 HD 
HETATM   25  C   UNL     1      -8.850   8.416  67.559  1.00  0.00    -0.135 A  
ENDBRANCH  13  14
ENDBRANCH   8  13
ENDBRANCH   4   5
ENDBRANCH   2   4
TORSDOF 6
ENDMDL
MODEL      223
REMARK 921   NORMALIZED FREE ENERGY PREDICTED BY IDOCK:   -3.77 KCAL/MOL
REMARK 922        TOTAL FREE ENERGY PREDICTED BY IDOCK:   -6.10 KCAL/MOL
REMARK 923 INTER-LIGAND FREE ENERGY PREDICTED BY IDOCK:   -5.26 KCAL/MOL
REMARK 924 INTRA-LIGAND FREE ENERGY PREDICTED BY IDOCK:   -0.84 KCAL/MOL
REMARK 927      BINDING AFFINITY PREDICTED BY RF-SCORE:    0.00 PKD
ROOT
HETATM    1  C   UNL     1     -12.022  13.698  69.736  1.00  0.00    -0.404 C  
HETATM    2  C   UNL     1     -11.969  13.731  68.239  1.00  0.00    -0.357 C  
HETATM    3  O   UNL     1     -11.717  14.730  67.582  1.00  0.00    -0.349 OA 
ENDROOT
BRANCH   2   4
HETATM    4  O   UNL     1     -12.275  12.507  67.727  1.00  0.00    -0.372 OA 
BRANCH   4   5
HETATM    5  C   UNL     1     -11.784  12.251  66.400  1.00  0.00    -0.365 C  
HETATM    6  C   UNL     1     -10.426  11.520  66.421  1.00  0.00    -0.292 C  
HETATM    7  C   UNL     1      -9.914  11.405  64.968  1.00  0.00    -0.266 C  
HETATM    8  C   UNL     1     -10.559  10.163  67.156  1.00  0.00    -0.308 C  
BRANCH   7   9
HETATM    9  O   UNL     1      -8.638  10.756  64.859  1.00  0.00    -0.168 OA 
BRANCH   9  10
HETATM   10  C   UNL     1      -8.427   9.979  63.764  1.00  0.00    -0.181 C  
HETATM   11  O   UNL     1      -7.857   8.899  63.765  1.00  0.00    -0.123 OA 
HETATM   12  C   UNL     1      -9.054  10.598  62.548  1.00  0.00    -0.326 C  
ENDBRANCH   9  10
ENDBRANCH   7   9
BRANCH   8  13
HETATM   13  C   UNL     1      -9.239   9.411  67.330  1.00  0.00    -0.130 C  
BRANCH  13  14
HETATM   14  N   UNL     1      -8.893   9.177  68.714  1.00  0.00    -0.132 NA 
HETATM   15  C   UNL     1      -8.259  10.052  69.552  1.00  0.00    -0.167 A  
HETATM   16  N   UNL     1      -8.012   9.506  70.727  1.00  0.00    -0.298 NA 
HETATM   17  C   UNL     1      -8.473   8.214  70.618  1.00  0.00    -0.128 A  
HETATM   18  C   UNL     1      -8.482   7.131  71.485  1.00  0.00    -0.115 A  
HETATM   19  N   UNL     1      -8.990   5.942  71.063  1.00  0.00    -0.142 NA 
HETATM   20  C   UNL     1      -9.465   5.849  69.808  1.00  0.00    -0.148 A  
HETATM   21  N   UNL     1      -9.542   6.836  68.904  1.00  0.00    -0.138 NA 
HETATM   22  N   UNL     1      -9.944   4.612  69.426  1.00  0.00    -0.205 NA 
HETATM   23  H2  UNL     1     -10.654   4.298  70.087  1.00  0.00     0.000 HD 
HETATM   24  H1  UNL     1     -10.303   4.540  68.474  1.00  0.00     0.000 HD 
HETATM   25  C   UNL     1      -9.021   7.985  69.370  1.00  0.00    -0.148 A  
ENDBRANCH  13  14
ENDBRANCH   8  13
ENDBRANCH   4   5
ENDBRANCH   2   4
TORSDOF 6
ENDMDL
MODEL      224
REMARK 921   NORMALIZED FREE ENERGY PREDICTED BY IDOCK:   -3.74 KCAL/MOL
REMARK 922        TOTAL FREE ENERGY PREDICTED BY IDOCK:   -6.06 KCAL/MOL
REMARK 923 INTER-LIGAND FREE ENERGY PREDICTED BY IDOCK:   -5.33 KCAL/MOL
REMARK 924 INTRA-LIGAND FREE ENERGY PREDICTED BY IDOCK:   -0.74 KCAL/MOL
REMARK 927      BINDING AFFINITY PREDICTED BY RF-SCORE:    0.00 PKD
ROOT
HETATM    1  C   UNL     1      -6.109  10.734  67.611  1.00  0.00    -0.047 C  
HETATM    2  C   UNL     1      -6.940   9.647  68.224  1.00  0.00    -0.073 C  
HETATM    3  O   UNL     1      -7.110   8.546  67.720  1.00  0.00    -0.080 OA 
ENDROOT
BRANCH   2   4
HETATM    4  O   UNL     1      -7.497  10.076  69.389  1.00  0.00    -0.088 OA 
BRANCH   4   5
HETATM    5  C   UNL     1      -8.498   9.211  69.953  1.00  0.00    -0.147 C  
HETATM    6  C   UNL     1      -9.849   9.933  70.129  1.00  0.00    -0.272 C  
HETATM    7  C   UNL     1     -10.819   8.977  70.856  1.00  0.00    -0.258 C  
HETATM    8  C   UNL     1     -10.367  10.442  68.760  1.00  0.00    -0.213 C  
BRANCH   7   9
HETATM    9  O   UNL     1     -12.114   9.548  71.099  1.00  0.00    -0.309 OA 
BRANCH   9  10
HETATM   10  C   UNL     1     -13.101   8.704  71.499  1.00  0.00    -0.305 C  
HETATM   11  O   UNL     1     -14.245   9.034  71.767  1.00  0.00    -0.339 OA 
HETATM   12  C   UNL     1     -12.612   7.284  71.504  1.00  0.00    -0.415 C  
ENDBRANCH   9  10
ENDBRANCH   7   9
BRANCH   8  13
HETATM   13  C   UNL     1     -11.648  11.273  68.844  1.00  0.00    -0.319 C  
BRANCH  13  14
HETATM   14  N   UNL     1     -11.440  12.588  69.409  1.00  0.00    -0.275 NA 
HETATM   15  C   UNL     1     -12.106  13.129  70.474  1.00  0.00    -0.306 A  
HETATM   16  N   UNL     1     -11.744  14.379  70.688  1.00  0.00    -0.281 NA 
HETATM   17  C   UNL     1     -10.838  14.658  69.691  1.00  0.00    -0.186 A  
HETATM   18  C   UNL     1     -10.121  15.795  69.349  1.00  0.00    -0.268 A  
HETATM   19  N   UNL     1      -9.309  15.770  68.258  1.00  0.00    -0.191 NA 
HETATM   20  C   UNL     1      -9.231  14.639  67.535  1.00  0.00    -0.192 A  
HETATM   21  N   UNL     1      -9.845  13.476  67.796  1.00  0.00    -0.227 NA 
HETATM   22  N   UNL     1      -8.412  14.679  66.424  1.00  0.00    -0.372 NA 
HETATM   23  H2  UNL     1      -7.476  14.979  66.696  1.00  0.00     0.000 HD 
HETATM   24  H1  UNL     1      -8.353  13.822  65.875  1.00  0.00     0.000 HD 
HETATM   25  C   UNL     1     -10.637  13.558  68.879  1.00  0.00    -0.165 A  
ENDBRANCH  13  14
ENDBRANCH   8  13
ENDBRANCH   4   5
ENDBRANCH   2   4
TORSDOF 6
ENDMDL
MODEL      225
REMARK 921   NORMALIZED FREE ENERGY PREDICTED BY IDOCK:   -3.74 KCAL/MOL
REMARK 922        TOTAL FREE ENERGY PREDICTED BY IDOCK:   -6.05 KCAL/MOL
REMARK 923 INTER-LIGAND FREE ENERGY PREDICTED BY IDOCK:   -5.14 KCAL/MOL
REMARK 924 INTRA-LIGAND FREE ENERGY PREDICTED BY IDOCK:   -0.92 KCAL/MOL
REMARK 927      BINDING AFFINITY PREDICTED BY RF-SCORE:    0.00 PKD
ROOT
HETATM    1  C   UNL     1      -8.947   9.688  63.942  1.00  0.00    -0.254 C  
HETATM    2  C   UNL     1      -8.429   8.941  65.134  1.00  0.00    -0.173 C  
HETATM    3  O   UNL     1      -8.906   7.894  65.548  1.00  0.00    -0.130 OA 
ENDROOT
BRANCH   2   4
HETATM    4  O   UNL     1      -7.388   9.611  65.698  1.00  0.00    -0.095 OA 
BRANCH   4   5
HETATM    5  C   UNL     1      -7.668  10.962  66.105  1.00  0.00    -0.133 C  
HETATM    6  C   UNL     1      -8.723  11.017  67.228  1.00  0.00    -0.129 C  
HETATM    7  C   UNL     1      -9.058  12.498  67.508  1.00  0.00    -0.187 C  
HETATM    8  C   UNL     1      -8.227  10.233  68.469  1.00  0.00    -0.111 C  
BRANCH   7   9
HETATM    9  O   UNL     1     -10.053  12.679  68.528  1.00  0.00    -0.222 OA 
BRANCH   9  10
HETATM   10  C   UNL     1     -11.350  12.486  68.173  1.00  0.00    -0.295 C  
HETATM   11  O   UNL     1     -12.103  11.666  68.674  1.00  0.00    -0.449 OA 
HETATM   12  C   UNL     1     -11.761  13.470  67.116  1.00  0.00    -0.419 C  
ENDBRANCH   9  10
ENDBRANCH   7   9
BRANCH   8  13
HETATM   13  C   UNL     1      -9.253  10.132  69.599  1.00  0.00    -0.183 C  
BRANCH  13  14
HETATM   14  N   UNL     1      -9.368   8.800  70.148  1.00  0.00    -0.162 NA 
HETATM   15  C   UNL     1      -8.824   8.355  71.321  1.00  0.00    -0.167 A  
HETATM   16  N   UNL     1      -9.041   7.066  71.499  1.00  0.00    -0.140 NA 
HETATM   17  C   UNL     1      -9.717   6.665  70.370  1.00  0.00    -0.175 A  
HETATM   18  C   UNL     1     -10.202   5.439  69.937  1.00  0.00    -0.281 A  
HETATM   19  N   UNL     1     -10.812   5.353  68.725  1.00  0.00    -0.051 NA 
HETATM   20  C   UNL     1     -10.923   6.463  67.974  1.00  0.00    -0.311 A  
HETATM   21  N   UNL     1     -10.530   7.701  68.310  1.00  0.00    -0.195 NA 
HETATM   22  N   UNL     1     -11.528   6.311  66.743  1.00  0.00    -0.687 NA 
HETATM   23  H2  UNL     1     -12.446   5.882  66.861  1.00  0.00     0.000 HD 
HETATM   24  H1  UNL     1     -11.612   7.153  66.173  1.00  0.00     0.000 HD 
HETATM   25  C   UNL     1      -9.928   7.728  69.512  1.00  0.00    -0.187 A  
ENDBRANCH  13  14
ENDBRANCH   8  13
ENDBRANCH   4   5
ENDBRANCH   2   4
TORSDOF 6
ENDMDL
MODEL      226
REMARK 921   NORMALIZED FREE ENERGY PREDICTED BY IDOCK:   -3.73 KCAL/MOL
REMARK 922        TOTAL FREE ENERGY PREDICTED BY IDOCK:   -6.05 KCAL/MOL
REMARK 923 INTER-LIGAND FREE ENERGY PREDICTED BY IDOCK:   -5.79 KCAL/MOL
REMARK 924 INTRA-LIGAND FREE ENERGY PREDICTED BY IDOCK:   -0.27 KCAL/MOL
REMARK 927      BINDING AFFINITY PREDICTED BY RF-SCORE:    0.00 PKD
ROOT
HETATM    1  C   UNL     1     -12.724  15.145  70.501  1.00  0.00    -0.416 C  
HETATM    2  C   UNL     1     -12.010  13.827  70.535  1.00  0.00    -0.296 C  
HETATM    3  O   UNL     1     -12.186  12.973  71.392  1.00  0.00    -0.129 OA 
ENDROOT
BRANCH   2   4
HETATM    4  O   UNL     1     -11.124  13.741  69.506  1.00  0.00    -0.205 OA 
BRANCH   4   5
HETATM    5  C   UNL     1     -11.582  13.012  68.354  1.00  0.00    -0.335 C  
HETATM    6  C   UNL     1     -11.836  13.941  67.149  1.00  0.00    -0.445 C  
HETATM    7  C   UNL     1     -12.447  13.098  66.008  1.00  0.00    -0.260 C  
HETATM    8  C   UNL     1     -10.533  14.685  66.762  1.00  0.00    -0.277 C  
BRANCH   7   9
HETATM    9  O   UNL     1     -12.749  13.862  64.830  1.00  0.00    -0.650 OA 
BRANCH   9  10
HETATM   10  C   UNL     1     -12.499  13.277  63.629  1.00  0.00    -0.269 C  
HETATM   11  O   UNL     1     -11.803  13.751  62.745  1.00  0.00     0.307 OA 
HETATM   12  C   UNL     1     -13.146  11.924  63.555  1.00  0.00    -0.140 C  
ENDBRANCH   9  10
ENDBRANCH   7   9
BRANCH   8  13
HETATM   13  C   UNL     1     -10.709  15.717  65.647  1.00  0.00    -0.348 C  
BRANCH  13  14
HETATM   14  N   UNL     1     -10.245  17.037  66.013  1.00  0.00    -0.434 NA 
HETATM   15  C   UNL     1     -10.726  18.226  65.540  1.00  0.00     0.077 A  
HETATM   16  N   UNL     1     -10.034  19.248  66.004  1.00  0.00    -0.451 NA 
HETATM   17  C   UNL     1      -9.044  18.682  66.774  1.00  0.00    -0.301 A  
HETATM   18  C   UNL     1      -7.987  19.208  67.503  1.00  0.00    -0.257 A  
HETATM   19  N   UNL     1      -7.135  18.367  68.147  1.00  0.00    -0.241 NA 
HETATM   20  C   UNL     1      -7.339  17.041  68.052  1.00  0.00    -0.180 A  
HETATM   21  N   UNL     1      -8.346  16.428  67.413  1.00  0.00    -0.160 NA 
HETATM   22  N   UNL     1      -6.429  16.234  68.705  1.00  0.00    -0.122 NA 
HETATM   23  H2  UNL     1      -6.370  16.504  69.686  1.00  0.00     0.000 HD 
HETATM   24  H1  UNL     1      -6.583  15.228  68.633  1.00  0.00     0.000 HD 
HETATM   25  C   UNL     1      -9.153  17.304  66.790  1.00  0.00    -0.252 A  
ENDBRANCH  13  14
ENDBRANCH   8  13
ENDBRANCH   4   5
ENDBRANCH   2   4
TORSDOF 6
ENDMDL
MODEL      227
REMARK 921   NORMALIZED FREE ENERGY PREDICTED BY IDOCK:   -3.70 KCAL/MOL
REMARK 922        TOTAL FREE ENERGY PREDICTED BY IDOCK:   -6.01 KCAL/MOL
REMARK 923 INTER-LIGAND FREE ENERGY PREDICTED BY IDOCK:   -5.21 KCAL/MOL
REMARK 924 INTRA-LIGAND FREE ENERGY PREDICTED BY IDOCK:   -0.80 KCAL/MOL
REMARK 927      BINDING AFFINITY PREDICTED BY RF-SCORE:    0.00 PKD
ROOT
HETATM    1  C   UNL     1     -12.076  14.113  66.701  1.00  0.00    -0.480 C  
HETATM    2  C   UNL     1     -11.814  12.853  65.931  1.00  0.00    -0.424 C  
HETATM    3  O   UNL     1     -11.884  12.766  64.714  1.00  0.00    -0.336 OA 
ENDROOT
BRANCH   2   4
HETATM    4  O   UNL     1     -11.527  11.830  66.780  1.00  0.00    -0.401 OA 
BRANCH   4   5
HETATM    5  C   UNL     1     -11.877  12.051  68.157  1.00  0.00    -0.286 C  
HETATM    6  C   UNL     1     -11.385  10.906  69.066  1.00  0.00    -0.348 C  
HETATM    7  C   UNL     1     -11.916  11.159  70.495  1.00  0.00    -0.380 C  
HETATM    8  C   UNL     1      -9.844  10.775  68.976  1.00  0.00    -0.208 C  
BRANCH   7   9
HETATM    9  O   UNL     1     -11.539  10.141  71.435  1.00  0.00    -0.348 OA 
BRANCH   9  10
HETATM   10  C   UNL     1     -12.502   9.264  71.821  1.00  0.00    -0.381 C  
HETATM   11  O   UNL     1     -13.633   9.566  72.166  1.00  0.00    -0.424 OA 
HETATM   12  C   UNL     1     -12.008   7.851  71.703  1.00  0.00    -0.329 C  
ENDBRANCH   9  10
ENDBRANCH   7   9
BRANCH   8  13
HETATM   13  C   UNL     1      -9.269   9.592  69.756  1.00  0.00    -0.208 C  
BRANCH  13  14
HETATM   14  N   UNL     1      -7.950   9.201  69.311  1.00  0.00    -0.094 NA 
HETATM   15  C   UNL     1      -6.977  10.031  68.828  1.00  0.00    -0.062 A  
HETATM   16  N   UNL     1      -5.917   9.355  68.428  1.00  0.00    -0.044 NA 
HETATM   17  C   UNL     1      -6.247   8.035  68.627  1.00  0.00    -0.044 A  
HETATM   18  C   UNL     1      -5.583   6.841  68.384  1.00  0.00    -0.017 A  
HETATM   19  N   UNL     1      -6.201   5.663  68.663  1.00  0.00    -0.031 NA 
HETATM   20  C   UNL     1      -7.450   5.689  69.163  1.00  0.00    -0.083 A  
HETATM   21  N   UNL     1      -8.167   6.780  69.473  1.00  0.00    -0.129 NA 
HETATM   22  N   UNL     1      -8.039   4.464  69.402  1.00  0.00    -0.061 NA 
HETATM   23  H2  UNL     1      -7.437   3.905  70.008  1.00  0.00     0.000 HD 
HETATM   24  H1  UNL     1      -8.986   4.484  69.781  1.00  0.00     0.000 HD 
HETATM   25  C   UNL     1      -7.512   7.914  69.172  1.00  0.00    -0.093 A  
ENDBRANCH  13  14
ENDBRANCH   8  13
ENDBRANCH   4   5
ENDBRANCH   2   4
TORSDOF 6
ENDMDL
MODEL      228
REMARK 921   NORMALIZED FREE ENERGY PREDICTED BY IDOCK:   -3.70 KCAL/MOL
REMARK 922        TOTAL FREE ENERGY PREDICTED BY IDOCK:   -6.01 KCAL/MOL
REMARK 923 INTER-LIGAND FREE ENERGY PREDICTED BY IDOCK:   -5.18 KCAL/MOL
REMARK 924 INTRA-LIGAND FREE ENERGY PREDICTED BY IDOCK:   -0.83 KCAL/MOL
REMARK 927      BINDING AFFINITY PREDICTED BY RF-SCORE:    0.00 PKD
ROOT
HETATM    1  C   UNL     1     -12.440  14.025  65.829  1.00  0.00    -0.523 C  
HETATM    2  C   UNL     1     -12.110  13.779  67.270  1.00  0.00    -0.357 C  
HETATM    3  O   UNL     1     -11.880  14.663  68.083  1.00  0.00    -0.325 OA 
ENDROOT
BRANCH   2   4
HETATM    4  O   UNL     1     -12.069  12.443  67.526  1.00  0.00    -0.491 OA 
BRANCH   4   5
HETATM    5  C   UNL     1     -11.606  12.077  68.837  1.00  0.00    -0.321 C  
HETATM    6  C   UNL     1     -11.467  10.549  68.992  1.00  0.00    -0.304 C  
HETATM    7  C   UNL     1     -11.095  10.241  70.459  1.00  0.00    -0.306 C  
HETATM    8  C   UNL     1     -10.461   9.993  67.952  1.00  0.00    -0.276 C  
BRANCH   7   9
HETATM    9  O   UNL     1     -10.958   8.839  70.734  1.00  0.00    -0.230 OA 
BRANCH   9  10
HETATM   10  C   UNL     1     -11.024   8.452  72.035  1.00  0.00    -0.323 C  
HETATM   11  O   UNL     1     -12.042   8.115  72.619  1.00  0.00    -0.359 OA 
HETATM   12  C   UNL     1      -9.655   8.427  72.651  1.00  0.00    -0.337 C  
ENDBRANCH   9  10
ENDBRANCH   7   9
BRANCH   8  13
HETATM   13  C   UNL     1     -10.340   8.469  67.949  1.00  0.00    -0.223 C  
BRANCH  13  14
HETATM   14  N   UNL     1      -9.062   7.998  67.465  1.00  0.00    -0.136 NA 
HETATM   15  C   UNL     1      -8.779   7.581  66.193  1.00  0.00    -0.156 A  
HETATM   16  N   UNL     1      -7.543   7.133  66.094  1.00  0.00    -0.089 NA 
HETATM   17  C   UNL     1      -7.029   7.231  67.366  1.00  0.00    -0.079 A  
HETATM   18  C   UNL     1      -5.803   6.901  67.926  1.00  0.00    -0.024 A  
HETATM   19  N   UNL     1      -5.605   7.089  69.257  1.00  0.00    -0.015 NA 
HETATM   20  C   UNL     1      -6.610   7.587  69.999  1.00  0.00    -0.042 A  
HETATM   21  N   UNL     1      -7.815   7.978  69.557  1.00  0.00    -0.103 NA 
HETATM   22  N   UNL     1      -6.361   7.733  71.349  1.00  0.00    -0.035 NA 
HETATM   23  H2  UNL     1      -5.521   8.295  71.485  1.00  0.00     0.000 HD 
HETATM   24  H1  UNL     1      -7.123   8.110  71.911  1.00  0.00     0.000 HD 
HETATM   25  C   UNL     1      -7.960   7.764  68.239  1.00  0.00    -0.122 A  
ENDBRANCH  13  14
ENDBRANCH   8  13
ENDBRANCH   4   5
ENDBRANCH   2   4
TORSDOF 6
ENDMDL
MODEL      229
REMARK 921   NORMALIZED FREE ENERGY PREDICTED BY IDOCK:   -3.69 KCAL/MOL
REMARK 922        TOTAL FREE ENERGY PREDICTED BY IDOCK:   -5.99 KCAL/MOL
REMARK 923 INTER-LIGAND FREE ENERGY PREDICTED BY IDOCK:   -5.24 KCAL/MOL
REMARK 924 INTRA-LIGAND FREE ENERGY PREDICTED BY IDOCK:   -0.76 KCAL/MOL
REMARK 927      BINDING AFFINITY PREDICTED BY RF-SCORE:    0.00 PKD
ROOT
HETATM    1  C   UNL     1     -10.754   2.391  73.777  1.00  0.00    -0.260 C  
HETATM    2  C   UNL     1      -9.717   2.362  72.695  1.00  0.00    -0.115 C  
HETATM    3  O   UNL     1      -8.557   2.016  72.866  1.00  0.00    -0.061 OA 
ENDROOT
BRANCH   2   4
HETATM    4  O   UNL     1     -10.243   2.807  71.522  1.00  0.00    -0.024 OA 
BRANCH   4   5
HETATM    5  C   UNL     1      -9.286   3.182  70.516  1.00  0.00    -0.140 C  
HETATM    6  C   UNL     1      -9.758   4.401  69.699  1.00  0.00    -0.289 C  
HETATM    7  C   UNL     1      -8.739   4.650  68.566  1.00  0.00    -0.098 C  
HETATM    8  C   UNL     1      -9.979   5.619  70.632  1.00  0.00    -0.260 C  
BRANCH   7   9
HETATM    9  O   UNL     1      -9.083   5.756  67.717  1.00  0.00    -0.109 OA 
BRANCH   9  10
HETATM   10  C   UNL     1      -8.073   6.348  67.028  1.00  0.00    -0.112 C  
HETATM   11  O   UNL     1      -8.215   7.147  66.116  1.00  0.00    -0.114 OA 
HETATM   12  C   UNL     1      -6.740   5.938  67.586  1.00  0.00    -0.058 C  
ENDBRANCH   9  10
ENDBRANCH   7   9
BRANCH   8  13
HETATM   13  C   UNL     1     -10.558   6.848  69.931  1.00  0.00    -0.228 C  
BRANCH  13  14
HETATM   14  N   UNL     1     -11.525   7.562  70.735  1.00  0.00    -0.284 NA 
HETATM   15  C   UNL     1     -12.477   7.006  71.545  1.00  0.00    -0.386 A  
HETATM   16  N   UNL     1     -13.258   7.925  72.077  1.00  0.00    -0.267 NA 
HETATM   17  C   UNL     1     -12.809   9.115  71.552  1.00  0.00    -0.347 A  
HETATM   18  C   UNL     1     -13.221  10.433  71.691  1.00  0.00    -0.400 A  
HETATM   19  N   UNL     1     -12.581  11.410  70.996  1.00  0.00    -0.404 NA 
HETATM   20  C   UNL     1     -11.566  11.068  70.183  1.00  0.00    -0.334 A  
HETATM   21  N   UNL     1     -11.060   9.839  70.005  1.00  0.00    -0.254 NA 
HETATM   22  N   UNL     1     -10.970  12.098  69.483  1.00  0.00    -0.462 NA 
HETATM   23  H2  UNL     1     -10.663  12.823  70.131  1.00  0.00     0.000 HD 
HETATM   24  H1  UNL     1     -10.200  11.839  68.866  1.00  0.00     0.000 HD 
HETATM   25  C   UNL     1     -11.732   8.912  70.709  1.00  0.00    -0.230 A  
ENDBRANCH  13  14
ENDBRANCH   8  13
ENDBRANCH   4   5
ENDBRANCH   2   4
TORSDOF 6
ENDMDL
MODEL      230
REMARK 921   NORMALIZED FREE ENERGY PREDICTED BY IDOCK:   -3.68 KCAL/MOL
REMARK 922        TOTAL FREE ENERGY PREDICTED BY IDOCK:   -5.98 KCAL/MOL
REMARK 923 INTER-LIGAND FREE ENERGY PREDICTED BY IDOCK:   -5.26 KCAL/MOL
REMARK 924 INTRA-LIGAND FREE ENERGY PREDICTED BY IDOCK:   -0.72 KCAL/MOL
REMARK 927      BINDING AFFINITY PREDICTED BY RF-SCORE:    0.00 PKD
ROOT
HETATM    1  C   UNL     1      -7.685   6.718  66.467  1.00  0.00    -0.102 C  
HETATM    2  C   UNL     1      -8.522   6.011  67.490  1.00  0.00    -0.107 C  
HETATM    3  O   UNL     1      -9.365   5.168  67.224  1.00  0.00    -0.116 OA 
ENDROOT
BRANCH   2   4
HETATM    4  O   UNL     1      -8.232   6.470  68.738  1.00  0.00    -0.116 OA 
BRANCH   4   5
HETATM    5  C   UNL     1      -9.344   6.538  69.647  1.00  0.00    -0.142 C  
HETATM    6  C   UNL     1      -9.663   7.990  70.057  1.00  0.00    -0.173 C  
HETATM    7  C   UNL     1     -10.776   7.959  71.128  1.00  0.00    -0.227 C  
HETATM    8  C   UNL     1     -10.009   8.837  68.807  1.00  0.00    -0.197 C  
BRANCH   7   9
HETATM    9  O   UNL     1     -11.147   9.261  71.608  1.00  0.00    -0.349 OA 
BRANCH   9  10
HETATM   10  C   UNL     1     -12.438   9.436  71.993  1.00  0.00    -0.365 C  
HETATM   11  O   UNL     1     -13.017   8.773  72.839  1.00  0.00    -0.314 OA 
HETATM   12  C   UNL     1     -13.049  10.609  71.281  1.00  0.00    -0.456 C  
ENDBRANCH   9  10
ENDBRANCH   7   9
BRANCH   8  13
HETATM   13  C   UNL     1     -10.230  10.322  69.096  1.00  0.00    -0.218 C  
BRANCH  13  14
HETATM   14  N   UNL     1     -10.425  11.115  67.903  1.00  0.00    -0.182 NA 
HETATM   15  C   UNL     1     -10.411  10.659  66.614  1.00  0.00    -0.241 A  
HETATM   16  N   UNL     1     -10.535  11.646  65.749  1.00  0.00    -0.254 NA 
HETATM   17  C   UNL     1     -10.591  12.784  66.519  1.00  0.00    -0.254 A  
HETATM   18  C   UNL     1     -10.690  14.135  66.217  1.00  0.00    -0.293 A  
HETATM   19  N   UNL     1     -10.686  15.047  67.224  1.00  0.00    -0.291 NA 
HETATM   20  C   UNL     1     -10.578  14.612  68.492  1.00  0.00    -0.245 A  
HETATM   21  N   UNL     1     -10.517  13.336  68.900  1.00  0.00    -0.158 NA 
HETATM   22  N   UNL     1     -10.553  15.584  69.472  1.00  0.00    -0.238 NA 
HETATM   23  H2  UNL     1     -11.372  16.184  69.383  1.00  0.00     0.000 HD 
HETATM   24  H1  UNL     1     -10.470  15.254  70.434  1.00  0.00     0.000 HD 
HETATM   25  C   UNL     1     -10.519  12.478  67.865  1.00  0.00    -0.217 A  
ENDBRANCH  13  14
ENDBRANCH   8  13
ENDBRANCH   4   5
ENDBRANCH   2   4
TORSDOF 6
ENDMDL
MODEL      231
REMARK 921   NORMALIZED FREE ENERGY PREDICTED BY IDOCK:   -3.67 KCAL/MOL
REMARK 922        TOTAL FREE ENERGY PREDICTED BY IDOCK:   -5.96 KCAL/MOL
REMARK 923 INTER-LIGAND FREE ENERGY PREDICTED BY IDOCK:   -5.32 KCAL/MOL
REMARK 924 INTRA-LIGAND FREE ENERGY PREDICTED BY IDOCK:   -0.64 KCAL/MOL
REMARK 927      BINDING AFFINITY PREDICTED BY RF-SCORE:    0.00 PKD
ROOT
HETATM    1  C   UNL     1      -7.200  19.249  67.800  1.00  0.00    -0.274 C  
HETATM    2  C   UNL     1      -8.038  18.688  66.691  1.00  0.00    -0.271 C  
HETATM    3  O   UNL     1      -7.937  19.020  65.519  1.00  0.00    -0.370 OA 
ENDROOT
BRANCH   2   4
HETATM    4  O   UNL     1      -8.939  17.795  67.183  1.00  0.00    -0.238 OA 
BRANCH   4   5
HETATM    5  C   UNL     1      -9.789  17.171  66.206  1.00  0.00    -0.291 C  
HETATM    6  C   UNL     1      -9.581  15.644  66.154  1.00  0.00    -0.362 C  
HETATM    7  C   UNL     1     -10.430  15.077  64.995  1.00  0.00    -0.386 C  
HETATM    8  C   UNL     1      -9.890  15.013  67.534  1.00  0.00    -0.217 C  
BRANCH   7   9
HETATM    9  O   UNL     1     -10.302  13.656  64.831  1.00  0.00    -0.377 OA 
BRANCH   9  10
HETATM   10  C   UNL     1     -11.365  12.994  64.302  1.00  0.00    -0.376 C  
HETATM   11  O   UNL     1     -11.397  12.485  63.193  1.00  0.00    -0.401 OA 
HETATM   12  C   UNL     1     -12.485  12.910  65.299  1.00  0.00    -0.552 C  
ENDBRANCH   9  10
ENDBRANCH   7   9
BRANCH   8  13
HETATM   13  C   UNL     1      -9.603  13.513  67.617  1.00  0.00    -0.222 C  
BRANCH  13  14
HETATM   14  N   UNL     1      -8.216  13.211  67.888  1.00  0.00    -0.149 NA 
HETATM   15  C   UNL     1      -7.129  13.896  67.418  1.00  0.00    -0.070 A  
HETATM   16  N   UNL     1      -5.999  13.317  67.776  1.00  0.00    -0.146 NA 
HETATM   17  C   UNL     1      -6.384  12.194  68.470  1.00  0.00    -0.056 A  
HETATM   18  C   UNL     1      -5.681  11.162  69.077  1.00  0.00    -0.040 A  
HETATM   19  N   UNL     1      -6.364  10.147  69.669  1.00  0.00    -0.050 NA 
HETATM   20  C   UNL     1      -7.708  10.168  69.644  1.00  0.00    -0.163 A  
HETATM   21  N   UNL     1      -8.486  11.130  69.125  1.00  0.00    -0.033 NA 
HETATM   22  N   UNL     1      -8.348   9.099  70.238  1.00  0.00    -0.153 NA 
HETATM   23  H2  UNL     1      -8.023   8.993  71.199  1.00  0.00     0.000 HD 
HETATM   24  H1  UNL     1      -9.368   9.114  70.219  1.00  0.00     0.000 HD 
HETATM   25  C   UNL     1      -7.761  12.104  68.548  1.00  0.00    -0.119 A  
ENDBRANCH  13  14
ENDBRANCH   8  13
ENDBRANCH   4   5
ENDBRANCH   2   4
TORSDOF 6
ENDMDL
MODEL      232
REMARK 921   NORMALIZED FREE ENERGY PREDICTED BY IDOCK:   -3.66 KCAL/MOL
REMARK 922        TOTAL FREE ENERGY PREDICTED BY IDOCK:   -5.96 KCAL/MOL
REMARK 923 INTER-LIGAND FREE ENERGY PREDICTED BY IDOCK:   -5.00 KCAL/MOL
REMARK 924 INTRA-LIGAND FREE ENERGY PREDICTED BY IDOCK:   -0.95 KCAL/MOL
REMARK 927      BINDING AFFINITY PREDICTED BY RF-SCORE:    0.00 PKD
ROOT
HETATM    1  C   UNL     1      -8.938   6.082  73.857  1.00  0.00    -0.127 C  
HETATM    2  C   UNL     1      -7.869   7.095  73.575  1.00  0.00    -0.096 C  
HETATM    3  O   UNL     1      -6.821   7.178  74.198  1.00  0.00    -0.081 OA 
ENDROOT
BRANCH   2   4
HETATM    4  O   UNL     1      -8.251   7.917  72.560  1.00  0.00    -0.116 OA 
BRANCH   4   5
HETATM    5  C   UNL     1      -9.625   8.342  72.591  1.00  0.00    -0.282 C  
HETATM    6  C   UNL     1     -10.072   8.938  71.241  1.00  0.00    -0.365 C  
HETATM    7  C   UNL     1     -11.508   9.485  71.405  1.00  0.00    -0.392 C  
HETATM    8  C   UNL     1      -9.918   7.888  70.113  1.00  0.00    -0.190 C  
BRANCH   7   9
HETATM    9  O   UNL     1     -12.031  10.089  70.211  1.00  0.00    -0.249 OA 
BRANCH   9  10
HETATM   10  C   UNL     1     -12.034  11.447  70.152  1.00  0.00    -0.377 C  
HETATM   11  O   UNL     1     -12.560  12.187  70.969  1.00  0.00    -0.362 OA 
HETATM   12  C   UNL     1     -11.237  11.927  68.973  1.00  0.00    -0.316 C  
ENDBRANCH   9  10
ENDBRANCH   7   9
BRANCH   8  13
HETATM   13  C   UNL     1     -10.230   8.420  68.714  1.00  0.00    -0.207 C  
BRANCH  13  14
HETATM   14  N   UNL     1      -9.048   8.777  67.962  1.00  0.00    -0.140 NA 
HETATM   15  C   UNL     1      -7.753   8.697  68.397  1.00  0.00    -0.100 A  
HETATM   16  N   UNL     1      -6.911   9.178  67.504  1.00  0.00    -0.077 NA 
HETATM   17  C   UNL     1      -7.706   9.620  66.472  1.00  0.00    -0.098 A  
HETATM   18  C   UNL     1      -7.437  10.245  65.263  1.00  0.00    -0.141 A  
HETATM   19  N   UNL     1      -8.468  10.600  64.450  1.00  0.00    -0.122 NA 
HETATM   20  C   UNL     1      -9.726  10.340  64.848  1.00  0.00    -0.320 A  
HETATM   21  N   UNL     1     -10.098   9.707  65.970  1.00  0.00    -0.276 NA 
HETATM   22  N   UNL     1     -10.733  10.745  63.995  1.00  0.00    -0.432 NA 
HETATM   23  H2  UNL     1     -10.577  10.353  63.066  1.00  0.00     0.000 HD 
HETATM   24  H1  UNL     1     -11.687  10.548  64.296  1.00  0.00     0.000 HD 
HETATM   25  C   UNL     1      -9.043   9.385  66.738  1.00  0.00    -0.140 A  
ENDBRANCH  13  14
ENDBRANCH   8  13
ENDBRANCH   4   5
ENDBRANCH   2   4
TORSDOF 6
ENDMDL
MODEL      233
REMARK 921   NORMALIZED FREE ENERGY PREDICTED BY IDOCK:   -3.65 KCAL/MOL
REMARK 922        TOTAL FREE ENERGY PREDICTED BY IDOCK:   -5.94 KCAL/MOL
REMARK 923 INTER-LIGAND FREE ENERGY PREDICTED BY IDOCK:   -4.96 KCAL/MOL
REMARK 924 INTRA-LIGAND FREE ENERGY PREDICTED BY IDOCK:   -0.97 KCAL/MOL
REMARK 927      BINDING AFFINITY PREDICTED BY RF-SCORE:    0.00 PKD
ROOT
HETATM    1  C   UNL     1     -10.589  17.878  67.732  1.00  0.00    -0.399 C  
HETATM    2  C   UNL     1      -9.106  17.829  67.518  1.00  0.00    -0.244 C  
HETATM    3  O   UNL     1      -8.296  18.469  68.173  1.00  0.00    -0.279 OA 
ENDROOT
BRANCH   2   4
HETATM    4  O   UNL     1      -8.804  17.006  66.477  1.00  0.00    -0.232 OA 
BRANCH   4   5
HETATM    5  C   UNL     1      -7.802  16.010  66.746  1.00  0.00    -0.253 C  
HETATM    6  C   UNL     1      -8.389  14.789  67.483  1.00  0.00    -0.197 C  
HETATM    7  C   UNL     1      -7.228  13.837  67.846  1.00  0.00    -0.154 C  
HETATM    8  C   UNL     1      -9.505  14.133  66.631  1.00  0.00    -0.303 C  
BRANCH   7   9
HETATM    9  O   UNL     1      -7.650  12.664  68.560  1.00  0.00    -0.126 OA 
BRANCH   9  10
HETATM   10  C   UNL     1      -6.679  11.896  69.120  1.00  0.00    -0.105 C  
HETATM   11  O   UNL     1      -6.705  10.678  69.203  1.00  0.00    -0.059 OA 
HETATM   12  C   UNL     1      -5.525  12.745  69.570  1.00  0.00    -0.084 C  
ENDBRANCH   9  10
ENDBRANCH   7   9
BRANCH   8  13
HETATM   13  C   UNL     1     -10.229  12.980  67.326  1.00  0.00    -0.239 C  
BRANCH  13  14
HETATM   14  N   UNL     1     -10.062  11.712  66.653  1.00  0.00    -0.205 NA 
HETATM   15  C   UNL     1      -9.971  11.514  65.303  1.00  0.00    -0.260 A  
HETATM   16  N   UNL     1      -9.909  10.232  65.003  1.00  0.00    -0.310 NA 
HETATM   17  C   UNL     1     -10.006   9.583  66.212  1.00  0.00    -0.274 A  
HETATM   18  C   UNL     1     -10.032   8.244  66.574  1.00  0.00    -0.250 A  
HETATM   19  N   UNL     1     -10.176   7.908  67.884  1.00  0.00    -0.199 NA 
HETATM   20  C   UNL     1     -10.296   8.890  68.795  1.00  0.00    -0.211 A  
HETATM   21  N   UNL     1     -10.244  10.210  68.563  1.00  0.00    -0.166 NA 
HETATM   22  N   UNL     1     -10.466   8.491  70.105  1.00  0.00    -0.215 NA 
HETATM   23  H2  UNL     1      -9.709   7.863  70.375  1.00  0.00     0.000 HD 
HETATM   24  H1  UNL     1     -10.557   9.236  70.797  1.00  0.00     0.000 HD 
HETATM   25  C   UNL     1     -10.107  10.485  67.255  1.00  0.00    -0.201 A  
ENDBRANCH  13  14
ENDBRANCH   8  13
ENDBRANCH   4   5
ENDBRANCH   2   4
TORSDOF 6
ENDMDL
MODEL      234
REMARK 921   NORMALIZED FREE ENERGY PREDICTED BY IDOCK:   -3.63 KCAL/MOL
REMARK 922        TOTAL FREE ENERGY PREDICTED BY IDOCK:   -5.91 KCAL/MOL
REMARK 923 INTER-LIGAND FREE ENERGY PREDICTED BY IDOCK:   -5.11 KCAL/MOL
REMARK 924 INTRA-LIGAND FREE ENERGY PREDICTED BY IDOCK:   -0.81 KCAL/MOL
REMARK 927      BINDING AFFINITY PREDICTED BY RF-SCORE:    0.00 PKD
ROOT
HETATM    1  C   UNL     1     -12.253   9.393  71.264  1.00  0.00    -0.425 C  
HETATM    2  C   UNL     1     -12.877  10.750  71.136  1.00  0.00    -0.414 C  
HETATM    3  O   UNL     1     -13.426  11.343  72.053  1.00  0.00    -0.393 OA 
ENDROOT
BRANCH   2   4
HETATM    4  O   UNL     1     -12.773  11.200  69.856  1.00  0.00    -0.168 OA 
BRANCH   4   5
HETATM    5  C   UNL     1     -11.907  12.333  69.666  1.00  0.00    -0.324 C  
HETATM    6  C   UNL     1     -10.951  12.132  68.472  1.00  0.00    -0.276 C  
HETATM    7  C   UNL     1      -9.977  13.329  68.424  1.00  0.00    -0.226 C  
HETATM    8  C   UNL     1     -11.760  11.919  67.168  1.00  0.00    -0.311 C  
BRANCH   7   9
HETATM    9  O   UNL     1      -9.017  13.245  67.360  1.00  0.00    -0.194 OA 
BRANCH   9  10
HETATM   10  C   UNL     1      -7.820  12.668  67.646  1.00  0.00    -0.162 C  
HETATM   11  O   UNL     1      -7.475  11.550  67.299  1.00  0.00    -0.122 OA 
HETATM   12  C   UNL     1      -6.939  13.624  68.398  1.00  0.00    -0.104 C  
ENDBRANCH   9  10
ENDBRANCH   7   9
BRANCH   8  13
HETATM   13  C   UNL     1     -10.902  11.597  65.944  1.00  0.00    -0.287 C  
BRANCH  13  14
HETATM   14  N   UNL     1     -10.362  10.256  65.961  1.00  0.00    -0.214 NA 
HETATM   15  C   UNL     1     -10.596   9.298  66.909  1.00  0.00    -0.169 A  
HETATM   16  N   UNL     1      -9.889   8.209  66.682  1.00  0.00    -0.249 NA 
HETATM   17  C   UNL     1      -9.142   8.500  65.565  1.00  0.00    -0.091 A  
HETATM   18  C   UNL     1      -8.190   7.792  64.844  1.00  0.00    -0.107 A  
HETATM   19  N   UNL     1      -7.587   8.380  63.777  1.00  0.00    -0.127 NA 
HETATM   20  C   UNL     1      -7.927   9.640  63.453  1.00  0.00    -0.145 A  
HETATM   21  N   UNL     1      -8.857  10.398  64.050  1.00  0.00    -0.199 NA 
HETATM   22  N   UNL     1      -7.264  10.194  62.377  1.00  0.00    -0.125 NA 
HETATM   23  H2  UNL     1      -7.364   9.590  61.561  1.00  0.00     0.000 HD 
HETATM   24  H1  UNL     1      -7.521  11.150  62.131  1.00  0.00     0.000 HD 
HETATM   25  C   UNL     1      -9.417   9.773  65.100  1.00  0.00    -0.273 A  
ENDBRANCH  13  14
ENDBRANCH   8  13
ENDBRANCH   4   5
ENDBRANCH   2   4
TORSDOF 6
ENDMDL
MODEL      235
REMARK 921   NORMALIZED FREE ENERGY PREDICTED BY IDOCK:   -3.62 KCAL/MOL
REMARK 922        TOTAL FREE ENERGY PREDICTED BY IDOCK:   -5.90 KCAL/MOL
REMARK 923 INTER-LIGAND FREE ENERGY PREDICTED BY IDOCK:   -5.63 KCAL/MOL
REMARK 924 INTRA-LIGAND FREE ENERGY PREDICTED BY IDOCK:   -0.27 KCAL/MOL
REMARK 927      BINDING AFFINITY PREDICTED BY RF-SCORE:    0.00 PKD
ROOT
HETATM    1  C   UNL     1     -14.050   8.605  71.956  1.00  0.00    -0.523 C  
HETATM    2  C   UNL     1     -13.213   9.806  71.635  1.00  0.00    -0.420 C  
HETATM    3  O   UNL     1     -13.290  10.875  72.224  1.00  0.00    -0.380 OA 
ENDROOT
BRANCH   2   4
HETATM    4  O   UNL     1     -12.392   9.544  70.582  1.00  0.00    -0.210 OA 
BRANCH   4   5
HETATM    5  C   UNL     1     -10.989   9.475  70.892  1.00  0.00    -0.337 C  
HETATM    6  C   UNL     1     -10.113   9.828  69.673  1.00  0.00    -0.250 C  
HETATM    7  C   UNL     1      -8.634   9.601  70.057  1.00  0.00    -0.215 C  
HETATM    8  C   UNL     1     -10.428  11.264  69.184  1.00  0.00    -0.191 C  
BRANCH   7   9
HETATM    9  O   UNL     1      -7.715   9.878  68.989  1.00  0.00    -0.079 OA 
BRANCH   9  10
HETATM   10  C   UNL     1      -6.391   9.897  69.297  1.00  0.00    -0.044 C  
HETATM   11  O   UNL     1      -5.810   9.053  69.961  1.00  0.00    -0.030 OA 
HETATM   12  C   UNL     1      -5.715  11.072  68.652  1.00  0.00    -0.043 C  
ENDBRANCH   9  10
ENDBRANCH   7   9
BRANCH   8  13
HETATM   13  C   UNL     1      -9.690  11.667  67.907  1.00  0.00    -0.179 C  
BRANCH  13  14
HETATM   14  N   UNL     1      -9.284  13.054  67.895  1.00  0.00    -0.200 NA 
HETATM   15  C   UNL     1      -8.085  13.546  67.458  1.00  0.00    -0.186 A  
HETATM   16  N   UNL     1      -7.991  14.846  67.659  1.00  0.00    -0.154 NA 
HETATM   17  C   UNL     1      -9.165  15.190  68.288  1.00  0.00    -0.188 A  
HETATM   18  C   UNL     1      -9.663  16.386  68.785  1.00  0.00    -0.250 A  
HETATM   19  N   UNL     1     -10.874  16.400  69.403  1.00  0.00    -0.314 NA 
HETATM   20  C   UNL     1     -11.554  15.245  69.521  1.00  0.00    -0.322 A  
HETATM   21  N   UNL     1     -11.188  14.046  69.045  1.00  0.00    -0.265 NA 
HETATM   22  N   UNL     1     -12.766  15.314  70.180  1.00  0.00    -0.617 NA 
HETATM   23  H2  UNL     1     -13.357  16.019  69.740  1.00  0.00     0.000 HD 
HETATM   24  H1  UNL     1     -13.282  14.439  70.271  1.00  0.00     0.000 HD 
HETATM   25  C   UNL     1      -9.984  14.088  68.451  1.00  0.00    -0.236 A  
ENDBRANCH  13  14
ENDBRANCH   8  13
ENDBRANCH   4   5
ENDBRANCH   2   4
TORSDOF 6
ENDMDL
MODEL      236
REMARK 921   NORMALIZED FREE ENERGY PREDICTED BY IDOCK:   -3.62 KCAL/MOL
REMARK 922        TOTAL FREE ENERGY PREDICTED BY IDOCK:   -5.90 KCAL/MOL
REMARK 923 INTER-LIGAND FREE ENERGY PREDICTED BY IDOCK:   -4.98 KCAL/MOL
REMARK 924 INTRA-LIGAND FREE ENERGY PREDICTED BY IDOCK:   -0.92 KCAL/MOL
REMARK 927      BINDING AFFINITY PREDICTED BY RF-SCORE:    0.00 PKD
ROOT
HETATM    1  C   UNL     1     -13.358  10.393  72.190  1.00  0.00    -0.374 C  
HETATM    2  C   UNL     1     -12.885  11.402  71.188  1.00  0.00    -0.341 C  
HETATM    3  O   UNL     1     -12.665  12.577  71.448  1.00  0.00    -0.348 OA 
ENDROOT
BRANCH   2   4
HETATM    4  O   UNL     1     -12.773  10.832  69.958  1.00  0.00    -0.283 OA 
BRANCH   4   5
HETATM    5  C   UNL     1     -11.696  11.325  69.142  1.00  0.00    -0.341 C  
HETATM    6  C   UNL     1     -10.392  10.535  69.372  1.00  0.00    -0.258 C  
HETATM    7  C   UNL     1      -9.265  11.212  68.562  1.00  0.00    -0.183 C  
HETATM    8  C   UNL     1     -10.605   9.038  69.034  1.00  0.00    -0.209 C  
BRANCH   7   9
HETATM    9  O   UNL     1      -7.987  10.574  68.713  1.00  0.00    -0.110 OA 
BRANCH   9  10
HETATM   10  C   UNL     1      -7.058  10.808  67.749  1.00  0.00    -0.086 C  
HETATM   11  O   UNL     1      -6.679   9.993  66.922  1.00  0.00    -0.076 OA 
HETATM   12  C   UNL     1      -6.601  12.238  67.790  1.00  0.00    -0.108 C  
ENDBRANCH   9  10
ENDBRANCH   7   9
BRANCH   8  13
HETATM   13  C   UNL     1      -9.400   8.148  69.339  1.00  0.00    -0.155 C  
BRANCH  13  14
HETATM   14  N   UNL     1      -9.693   7.091  70.280  1.00  0.00    -0.176 NA 
HETATM   15  C   UNL     1     -10.433   5.967  70.035  1.00  0.00    -0.266 A  
HETATM   16  N   UNL     1     -10.587   5.240  71.124  1.00  0.00    -0.208 NA 
HETATM   17  C   UNL     1      -9.952   5.952  72.115  1.00  0.00    -0.170 A  
HETATM   18  C   UNL     1      -9.781   5.744  73.476  1.00  0.00    -0.158 A  
HETATM   19  N   UNL     1      -9.118   6.672  74.215  1.00  0.00    -0.175 NA 
HETATM   20  C   UNL     1      -8.650   7.774  73.604  1.00  0.00    -0.241 A  
HETATM   21  N   UNL     1      -8.722   8.057  72.295  1.00  0.00    -0.147 NA 
HETATM   22  N   UNL     1      -8.007   8.694  74.408  1.00  0.00    -0.412 NA 
HETATM   23  H2  UNL     1      -7.252   8.237  74.919  1.00  0.00     0.000 HD 
HETATM   24  H1  UNL     1      -7.653   9.530  73.944  1.00  0.00     0.000 HD 
HETATM   25  C   UNL     1      -9.392   7.112  71.613  1.00  0.00    -0.152 A  
ENDBRANCH  13  14
ENDBRANCH   8  13
ENDBRANCH   4   5
ENDBRANCH   2   4
TORSDOF 6
ENDMDL
MODEL      237
REMARK 921   NORMALIZED FREE ENERGY PREDICTED BY IDOCK:   -3.61 KCAL/MOL
REMARK 922        TOTAL FREE ENERGY PREDICTED BY IDOCK:   -5.89 KCAL/MOL
REMARK 923 INTER-LIGAND FREE ENERGY PREDICTED BY IDOCK:   -5.56 KCAL/MOL
REMARK 924 INTRA-LIGAND FREE ENERGY PREDICTED BY IDOCK:   -0.33 KCAL/MOL
REMARK 927      BINDING AFFINITY PREDICTED BY RF-SCORE:    0.00 PKD
ROOT
HETATM    1  C   UNL     1     -14.236   8.795  71.506  1.00  0.00    -0.364 C  
HETATM    2  C   UNL     1     -13.255   9.929  71.522  1.00  0.00    -0.408 C  
HETATM    3  O   UNL     1     -13.386  10.941  72.194  1.00  0.00    -0.443 OA 
ENDROOT
BRANCH   2   4
HETATM    4  O   UNL     1     -12.231   9.681  70.661  1.00  0.00    -0.252 OA 
BRANCH   4   5
HETATM    5  C   UNL     1     -10.925   9.600  71.259  1.00  0.00    -0.329 C  
HETATM    6  C   UNL     1     -10.706   8.255  71.980  1.00  0.00    -0.366 C  
HETATM    7  C   UNL     1      -9.340   8.307  72.700  1.00  0.00    -0.280 C  
HETATM    8  C   UNL     1     -10.852   7.080  70.981  1.00  0.00    -0.264 C  
BRANCH   7   9
HETATM    9  O   UNL     1      -9.030   7.110  73.430  1.00  0.00    -0.132 OA 
BRANCH   9  10
HETATM   10  C   UNL     1      -7.766   6.987  73.913  1.00  0.00    -0.105 C  
HETATM   11  O   UNL     1      -7.163   7.846  74.537  1.00  0.00    -0.130 OA 
HETATM   12  C   UNL     1      -7.225   5.614  73.635  1.00  0.00    -0.087 C  
ENDBRANCH   9  10
ENDBRANCH   7   9
BRANCH   8  13
HETATM   13  C   UNL     1     -10.764   5.695  71.623  1.00  0.00    -0.251 C  
BRANCH  13  14
HETATM   14  N   UNL     1     -10.085   4.723  70.796  1.00  0.00    -0.230 NA 
HETATM   15  C   UNL     1      -9.235   3.743  71.228  1.00  0.00    -0.128 A  
HETATM   16  N   UNL     1      -8.714   3.074  70.218  1.00  0.00    -0.068 NA 
HETATM   17  C   UNL     1      -9.223   3.681  69.093  1.00  0.00    -0.159 A  
HETATM   18  C   UNL     1      -9.044   3.471  67.734  1.00  0.00    -0.159 A  
HETATM   19  N   UNL     1      -9.676   4.280  66.843  1.00  0.00    -0.210 NA 
HETATM   20  C   UNL     1     -10.456   5.272  67.309  1.00  0.00    -0.173 A  
HETATM   21  N   UNL     1     -10.731   5.539  68.594  1.00  0.00    -0.166 NA 
HETATM   22  N   UNL     1     -11.051   6.079  66.360  1.00  0.00    -0.736 NA 
HETATM   23  H2  UNL     1     -11.579   5.505  65.703  1.00  0.00     0.000 HD 
HETATM   24  H1  UNL     1     -11.642   6.831  66.713  1.00  0.00     0.000 HD 
HETATM   25  C   UNL     1     -10.077   4.715  69.430  1.00  0.00    -0.124 A  
ENDBRANCH  13  14
ENDBRANCH   8  13
ENDBRANCH   4   5
ENDBRANCH   2   4
TORSDOF 6
ENDMDL
MODEL      238
REMARK 921   NORMALIZED FREE ENERGY PREDICTED BY IDOCK:   -3.61 KCAL/MOL
REMARK 922        TOTAL FREE ENERGY PREDICTED BY IDOCK:   -5.88 KCAL/MOL
REMARK 923 INTER-LIGAND FREE ENERGY PREDICTED BY IDOCK:   -5.92 KCAL/MOL
REMARK 924 INTRA-LIGAND FREE ENERGY PREDICTED BY IDOCK:    0.03 KCAL/MOL
REMARK 927      BINDING AFFINITY PREDICTED BY RF-SCORE:    0.00 PKD
ROOT
HETATM    1  C   UNL     1      -5.400  12.429  67.298  1.00  0.00    -0.072 C  
HETATM    2  C   UNL     1      -5.409  13.675  68.132  1.00  0.00    -0.109 C  
HETATM    3  O   UNL     1      -5.316  13.686  69.351  1.00  0.00    -0.082 OA 
ENDROOT
BRANCH   2   4
HETATM    4  O   UNL     1      -5.571  14.772  67.344  1.00  0.00    -0.341 OA 
BRANCH   4   5
HETATM    5  C   UNL     1      -6.168  15.913  67.985  1.00  0.00    -0.131 C  
HETATM    6  C   UNL     1      -7.547  16.254  67.385  1.00  0.00    -0.183 C  
HETATM    7  C   UNL     1      -8.050  17.560  68.037  1.00  0.00    -0.237 C  
HETATM    8  C   UNL     1      -8.512  15.053  67.543  1.00  0.00    -0.188 C  
BRANCH   7   9
HETATM    9  O   UNL     1      -9.325  17.995  67.541  1.00  0.00    -0.255 OA 
BRANCH   9  10
HETATM   10  C   UNL     1      -9.649  19.303  67.722  1.00  0.00    -0.318 C  
HETATM   11  O   UNL     1     -10.461  19.722  68.532  1.00  0.00    -0.415 OA 
HETATM   12  C   UNL     1      -8.820  20.182  66.831  1.00  0.00    -0.426 C  
ENDBRANCH   9  10
ENDBRANCH   7   9
BRANCH   8  13
HETATM   13  C   UNL     1      -9.874  15.251  66.876  1.00  0.00    -0.235 C  
BRANCH  13  14
HETATM   14  N   UNL     1     -10.618  14.021  66.719  1.00  0.00    -0.276 NA 
HETATM   15  C   UNL     1     -11.823  13.876  66.087  1.00  0.00    -0.400 A  
HETATM   16  N   UNL     1     -12.278  12.643  66.189  1.00  0.00    -0.586 NA 
HETATM   17  C   UNL     1     -11.342  11.984  66.952  1.00  0.00    -0.341 A  
HETATM   18  C   UNL     1     -11.250  10.687  67.435  1.00  0.00    -0.205 A  
HETATM   19  N   UNL     1     -10.191  10.337  68.214  1.00  0.00    -0.153 NA 
HETATM   20  C   UNL     1      -9.262  11.267  68.500  1.00  0.00    -0.181 A  
HETATM   21  N   UNL     1      -9.230  12.532  68.056  1.00  0.00    -0.199 NA 
HETATM   22  N   UNL     1      -8.224  10.863  69.315  1.00  0.00    -0.353 NA 
HETATM   23  H2  UNL     1      -7.775  10.038  68.918  1.00  0.00     0.000 HD 
HETATM   24  H1  UNL     1      -7.520  11.567  69.533  1.00  0.00     0.000 HD 
HETATM   25  C   UNL     1     -10.301  12.825  67.298  1.00  0.00    -0.232 A  
ENDBRANCH  13  14
ENDBRANCH   8  13
ENDBRANCH   4   5
ENDBRANCH   2   4
TORSDOF 6
ENDMDL
MODEL      239
REMARK 921   NORMALIZED FREE ENERGY PREDICTED BY IDOCK:   -3.60 KCAL/MOL
REMARK 922        TOTAL FREE ENERGY PREDICTED BY IDOCK:   -5.88 KCAL/MOL
REMARK 923 INTER-LIGAND FREE ENERGY PREDICTED BY IDOCK:   -5.05 KCAL/MOL
REMARK 924 INTRA-LIGAND FREE ENERGY PREDICTED BY IDOCK:   -0.82 KCAL/MOL
REMARK 927      BINDING AFFINITY PREDICTED BY RF-SCORE:    0.00 PKD
ROOT
HETATM    1  C   UNL     1      -8.300   9.888  67.552  1.00  0.00    -0.114 C  
HETATM    2  C   UNL     1      -7.486  11.147  67.529  1.00  0.00    -0.104 C  
HETATM    3  O   UNL     1      -6.492  11.334  68.215  1.00  0.00    -0.055 OA 
ENDROOT
BRANCH   2   4
HETATM    4  O   UNL     1      -8.034  12.049  66.670  1.00  0.00    -0.106 OA 
BRANCH   4   5
HETATM    5  C   UNL     1      -9.362  12.492  67.000  1.00  0.00    -0.210 C  
HETATM    6  C   UNL     1      -9.372  13.402  68.245  1.00  0.00    -0.205 C  
HETATM    7  C   UNL     1     -10.840  13.720  68.602  1.00  0.00    -0.263 C  
HETATM    8  C   UNL     1      -8.493  14.655  68.000  1.00  0.00    -0.154 C  
BRANCH   7   9
HETATM    9  O   UNL     1     -10.981  14.550  69.766  1.00  0.00    -0.230 OA 
BRANCH   9  10
HETATM   10  C   UNL     1     -11.846  15.595  69.683  1.00  0.00    -0.362 C  
HETATM   11  O   UNL     1     -12.606  15.953  70.569  1.00  0.00    -0.377 OA 
HETATM   12  C   UNL     1     -11.696  16.302  68.367  1.00  0.00    -0.036 C  
ENDBRANCH   9  10
ENDBRANCH   7   9
BRANCH   8  13
HETATM   13  C   UNL     1      -8.347  15.566  69.219  1.00  0.00    -0.257 C  
BRANCH  13  14
HETATM   14  N   UNL     1      -7.310  16.562  69.067  1.00  0.00    -0.220 NA 
HETATM   15  C   UNL     1      -6.058  16.521  69.617  1.00  0.00    -0.213 A  
HETATM   16  N   UNL     1      -5.379  17.622  69.359  1.00  0.00    -0.182 NA 
HETATM   17  C   UNL     1      -6.250  18.414  68.648  1.00  0.00    -0.208 A  
HETATM   18  C   UNL     1      -6.156  19.691  68.114  1.00  0.00    -0.228 A  
HETATM   19  N   UNL     1      -7.230  20.231  67.479  1.00  0.00    -0.282 NA 
HETATM   20  C   UNL     1      -8.362  19.510  67.393  1.00  0.00    -0.294 A  
HETATM   21  N   UNL     1      -8.550  18.258  67.835  1.00  0.00    -0.253 NA 
HETATM   22  N   UNL     1      -9.427  20.118  66.760  1.00  0.00    -0.429 NA 
HETATM   23  H2  UNL     1      -9.145  20.428  65.831  1.00  0.00     0.000 HD 
HETATM   24  H1  UNL     1     -10.286  19.571  66.695  1.00  0.00     0.000 HD 
HETATM   25  C   UNL     1      -7.462  17.776  68.459  1.00  0.00    -0.272 A  
ENDBRANCH  13  14
ENDBRANCH   8  13
ENDBRANCH   4   5
ENDBRANCH   2   4
TORSDOF 6
ENDMDL
MODEL      240
REMARK 921   NORMALIZED FREE ENERGY PREDICTED BY IDOCK:   -3.59 KCAL/MOL
REMARK 922        TOTAL FREE ENERGY PREDICTED BY IDOCK:   -5.85 KCAL/MOL
REMARK 923 INTER-LIGAND FREE ENERGY PREDICTED BY IDOCK:   -4.99 KCAL/MOL
REMARK 924 INTRA-LIGAND FREE ENERGY PREDICTED BY IDOCK:   -0.86 KCAL/MOL
REMARK 927      BINDING AFFINITY PREDICTED BY RF-SCORE:    0.00 PKD
ROOT
HETATM    1  C   UNL     1     -12.269   9.534  71.620  1.00  0.00    -0.477 C  
HETATM    2  C   UNL     1     -11.898   8.137  72.017  1.00  0.00    -0.338 C  
HETATM    3  O   UNL     1     -11.341   7.847  73.066  1.00  0.00    -0.408 OA 
ENDROOT
BRANCH   2   4
HETATM    4  O   UNL     1     -12.237   7.259  71.034  1.00  0.00    -0.328 OA 
BRANCH   4   5
HETATM    5  C   UNL     1     -11.209   6.328  70.655  1.00  0.00    -0.337 C  
HETATM    6  C   UNL     1     -11.021   6.271  69.125  1.00  0.00    -0.442 C  
HETATM    7  C   UNL     1      -9.999   5.159  68.803  1.00  0.00    -0.166 C  
HETATM    8  C   UNL     1     -10.630   7.668  68.581  1.00  0.00    -0.161 C  
BRANCH   7   9
HETATM    9  O   UNL     1      -9.754   4.994  67.397  1.00  0.00    -0.141 OA 
BRANCH   9  10
HETATM   10  C   UNL     1      -9.524   3.731  66.951  1.00  0.00    -0.199 C  
HETATM   11  O   UNL     1      -9.533   3.386  65.780  1.00  0.00    -0.164 OA 
HETATM   12  C   UNL     1      -9.186   2.819  68.094  1.00  0.00    -0.254 C  
ENDBRANCH   9  10
ENDBRANCH   7   9
BRANCH   8  13
HETATM   13  C   UNL     1     -10.532   7.742  67.057  1.00  0.00    -0.349 C  
BRANCH  13  14
HETATM   14  N   UNL     1      -9.704   8.831  66.590  1.00  0.00    -0.219 NA 
HETATM   15  C   UNL     1     -10.139   9.997  66.021  1.00  0.00    -0.248 A  
HETATM   16  N   UNL     1      -9.132  10.749  65.625  1.00  0.00    -0.187 NA 
HETATM   17  C   UNL     1      -8.007  10.014  65.918  1.00  0.00    -0.124 A  
HETATM   18  C   UNL     1      -6.650  10.232  65.726  1.00  0.00    -0.119 A  
HETATM   19  N   UNL     1      -5.760   9.275  66.101  1.00  0.00    -0.048 NA 
HETATM   20  C   UNL     1      -6.224   8.135  66.643  1.00  0.00    -0.054 A  
HETATM   21  N   UNL     1      -7.504   7.837  66.910  1.00  0.00    -0.093 NA 
HETATM   22  N   UNL     1      -5.277   7.189  66.980  1.00  0.00    -0.020 NA 
HETATM   23  H2  UNL     1      -4.579   7.604  67.597  1.00  0.00     0.000 HD 
HETATM   24  H1  UNL     1      -5.628   6.324  67.391  1.00  0.00     0.000 HD 
HETATM   25  C   UNL     1      -8.340   8.812  66.516  1.00  0.00    -0.112 A  
ENDBRANCH  13  14
ENDBRANCH   8  13
ENDBRANCH   4   5
ENDBRANCH   2   4
TORSDOF 6
ENDMDL
MODEL      241
REMARK 921   NORMALIZED FREE ENERGY PREDICTED BY IDOCK:   -3.56 KCAL/MOL
REMARK 922        TOTAL FREE ENERGY PREDICTED BY IDOCK:   -5.82 KCAL/MOL
REMARK 923 INTER-LIGAND FREE ENERGY PREDICTED BY IDOCK:   -5.00 KCAL/MOL
REMARK 924 INTRA-LIGAND FREE ENERGY PREDICTED BY IDOCK:   -0.82 KCAL/MOL
REMARK 927      BINDING AFFINITY PREDICTED BY RF-SCORE:    0.00 PKD
ROOT
HETATM    1  C   UNL     1     -10.396   3.062  63.647  1.00  0.00    -0.209 C  
HETATM    2  C   UNL     1      -9.387   2.939  64.750  1.00  0.00    -0.147 C  
HETATM    3  O   UNL     1      -8.575   2.030  64.838  1.00  0.00    -0.090 OA 
ENDROOT
BRANCH   2   4
HETATM    4  O   UNL     1      -9.535   3.955  65.643  1.00  0.00    -0.157 OA 
BRANCH   4   5
HETATM    5  C   UNL     1      -8.615   5.051  65.491  1.00  0.00    -0.139 C  
HETATM    6  C   UNL     1      -9.267   6.402  65.850  1.00  0.00    -0.033 C  
HETATM    7  C   UNL     1      -8.257   7.527  65.533  1.00  0.00    -0.135 C  
HETATM    8  C   UNL     1      -9.761   6.386  67.318  1.00  0.00    -0.155 C  
BRANCH   7   9
HETATM    9  O   UNL     1      -8.761   8.843  65.807  1.00  0.00    -0.154 OA 
BRANCH   9  10
HETATM   10  C   UNL     1      -9.106   9.611  64.740  1.00  0.00    -0.231 C  
HETATM   11  O   UNL     1      -8.667   9.483  63.608  1.00  0.00    -0.207 OA 
HETATM   12  C   UNL     1     -10.163  10.606  65.124  1.00  0.00    -0.368 C  
ENDBRANCH   9  10
ENDBRANCH   7   9
BRANCH   8  13
HETATM   13  C   UNL     1     -10.526   7.643  67.736  1.00  0.00    -0.216 C  
BRANCH  13  14
HETATM   14  N   UNL     1     -10.064   8.204  68.986  1.00  0.00    -0.200 NA 
HETATM   15  C   UNL     1      -8.929   8.944  69.174  1.00  0.00    -0.140 A  
HETATM   16  N   UNL     1      -8.746   9.235  70.447  1.00  0.00    -0.210 NA 
HETATM   17  C   UNL     1      -9.788   8.621  71.102  1.00  0.00    -0.222 A  
HETATM   18  C   UNL     1     -10.147   8.523  72.439  1.00  0.00    -0.295 A  
HETATM   19  N   UNL     1     -11.242   7.796  72.785  1.00  0.00    -0.383 NA 
HETATM   20  C   UNL     1     -11.946   7.183  71.817  1.00  0.00    -0.313 A  
HETATM   21  N   UNL     1     -11.715   7.243  70.497  1.00  0.00    -0.263 NA 
HETATM   22  N   UNL     1     -13.033   6.438  72.229  1.00  0.00    -0.498 NA 
HETATM   23  H2  UNL     1     -13.655   7.018  72.792  1.00  0.00     0.000 HD 
HETATM   24  H1  UNL     1     -13.567   5.973  71.495  1.00  0.00     0.000 HD 
HETATM   25  C   UNL     1     -10.620   7.967  70.211  1.00  0.00    -0.231 A  
ENDBRANCH  13  14
ENDBRANCH   8  13
ENDBRANCH   4   5
ENDBRANCH   2   4
TORSDOF 6
ENDMDL
MODEL      242
REMARK 921   NORMALIZED FREE ENERGY PREDICTED BY IDOCK:   -3.55 KCAL/MOL
REMARK 922        TOTAL FREE ENERGY PREDICTED BY IDOCK:   -5.81 KCAL/MOL
REMARK 923 INTER-LIGAND FREE ENERGY PREDICTED BY IDOCK:   -5.12 KCAL/MOL
REMARK 924 INTRA-LIGAND FREE ENERGY PREDICTED BY IDOCK:   -0.68 KCAL/MOL
REMARK 927      BINDING AFFINITY PREDICTED BY RF-SCORE:    0.00 PKD
ROOT
HETATM    1  C   UNL     1     -11.149  15.333  64.995  1.00  0.00    -0.436 C  
HETATM    2  C   UNL     1     -11.262  14.824  66.400  1.00  0.00    -0.342 C  
HETATM    3  O   UNL     1     -10.525  15.163  67.314  1.00  0.00    -0.262 OA 
ENDROOT
BRANCH   2   4
HETATM    4  O   UNL     1     -12.271  13.915  66.495  1.00  0.00    -0.441 OA 
BRANCH   4   5
HETATM    5  C   UNL     1     -12.239  12.852  65.527  1.00  0.00    -0.474 C  
HETATM    6  C   UNL     1     -10.956  12.003  65.647  1.00  0.00    -0.343 C  
HETATM    7  C   UNL     1     -10.944  10.977  64.493  1.00  0.00    -0.088 C  
HETATM    8  C   UNL     1     -10.861  11.373  67.059  1.00  0.00    -0.331 C  
BRANCH   7   9
HETATM    9  O   UNL     1      -9.780  10.136  64.485  1.00  0.00    -0.302 OA 
BRANCH   9  10
HETATM   10  C   UNL     1      -9.077  10.059  63.325  1.00  0.00    -0.275 C  
HETATM   11  O   UNL     1      -9.203  10.813  62.373  1.00  0.00    -0.272 OA 
HETATM   12  C   UNL     1      -8.064   8.952  63.392  1.00  0.00    -0.167 C  
ENDBRANCH   9  10
ENDBRANCH   7   9
BRANCH   8  13
HETATM   13  C   UNL     1      -9.564  10.604  67.315  1.00  0.00    -0.163 C  
BRANCH  13  14
HETATM   14  N   UNL     1      -9.763   9.380  68.059  1.00  0.00    -0.142 NA 
HETATM   15  C   UNL     1     -10.759   9.132  68.963  1.00  0.00    -0.153 A  
HETATM   16  N   UNL     1     -10.614   7.951  69.532  1.00  0.00    -0.230 NA 
HETATM   17  C   UNL     1      -9.454   7.442  68.997  1.00  0.00    -0.148 A  
HETATM   18  C   UNL     1      -8.747   6.266  69.200  1.00  0.00    -0.123 A  
HETATM   19  N   UNL     1      -7.583   6.061  68.529  1.00  0.00    -0.090 NA 
HETATM   20  C   UNL     1      -7.144   7.013  67.687  1.00  0.00    -0.085 A  
HETATM   21  N   UNL     1      -7.763   8.164  67.384  1.00  0.00    -0.100 NA 
HETATM   22  N   UNL     1      -5.944   6.762  67.052  1.00  0.00    -0.021 NA 
HETATM   23  H2  UNL     1      -5.992   5.868  66.565  1.00  0.00     0.000 HD 
HETATM   24  H1  UNL     1      -5.611   7.485  66.414  1.00  0.00     0.000 HD 
HETATM   25  C   UNL     1      -8.903   8.318  68.079  1.00  0.00    -0.135 A  
ENDBRANCH  13  14
ENDBRANCH   8  13
ENDBRANCH   4   5
ENDBRANCH   2   4
TORSDOF 6
ENDMDL
MODEL      243
REMARK 921   NORMALIZED FREE ENERGY PREDICTED BY IDOCK:   -3.55 KCAL/MOL
REMARK 922        TOTAL FREE ENERGY PREDICTED BY IDOCK:   -5.80 KCAL/MOL
REMARK 923 INTER-LIGAND FREE ENERGY PREDICTED BY IDOCK:   -5.04 KCAL/MOL
REMARK 924 INTRA-LIGAND FREE ENERGY PREDICTED BY IDOCK:   -0.77 KCAL/MOL
REMARK 927      BINDING AFFINITY PREDICTED BY RF-SCORE:    0.00 PKD
ROOT
HETATM    1  C   UNL     1     -11.045   6.833  72.642  1.00  0.00    -0.301 C  
HETATM    2  C   UNL     1      -9.654   6.317  72.428  1.00  0.00    -0.150 C  
HETATM    3  O   UNL     1      -9.288   5.189  72.726  1.00  0.00    -0.135 OA 
ENDROOT
BRANCH   2   4
HETATM    4  O   UNL     1      -8.865   7.289  71.895  1.00  0.00    -0.122 OA 
BRANCH   4   5
HETATM    5  C   UNL     1      -8.206   6.945  70.664  1.00  0.00    -0.120 C  
HETATM    6  C   UNL     1      -9.082   7.265  69.435  1.00  0.00    -0.142 C  
HETATM    7  C   UNL     1      -8.357   6.746  68.174  1.00  0.00    -0.118 C  
HETATM    8  C   UNL     1      -9.420   8.777  69.396  1.00  0.00    -0.161 C  
BRANCH   7   9
HETATM    9  O   UNL     1      -9.090   6.969  66.959  1.00  0.00    -0.129 OA 
BRANCH   9  10
HETATM   10  C   UNL     1      -9.272   5.901  66.139  1.00  0.00    -0.150 C  
HETATM   11  O   UNL     1      -8.591   5.640  65.159  1.00  0.00    -0.152 OA 
HETATM   12  C   UNL     1     -10.392   5.034  66.639  1.00  0.00    -0.312 C  
ENDBRANCH   9  10
ENDBRANCH   7   9
BRANCH   8  13
HETATM   13  C   UNL     1     -10.380   9.176  68.276  1.00  0.00    -0.214 C  
BRANCH  13  14
HETATM   14  N   UNL     1     -10.845  10.541  68.381  1.00  0.00    -0.222 NA 
HETATM   15  C   UNL     1     -10.497  11.583  67.565  1.00  0.00    -0.199 A  
HETATM   16  N   UNL     1     -11.025  12.719  67.977  1.00  0.00    -0.229 NA 
HETATM   17  C   UNL     1     -11.707  12.394  69.127  1.00  0.00    -0.322 A  
HETATM   18  C   UNL     1     -12.442  13.136  70.040  1.00  0.00    -0.076 A  
HETATM   19  N   UNL     1     -12.979  12.518  71.125  1.00  0.00    -0.219 NA 
HETATM   20  C   UNL     1     -12.774  11.199  71.287  1.00  0.00    -0.426 A  
HETATM   21  N   UNL     1     -12.118  10.380  70.451  1.00  0.00    -0.301 NA 
HETATM   22  N   UNL     1     -13.321  10.630  72.420  1.00  0.00    -0.524 NA 
HETATM   23  H2  UNL     1     -14.320  10.831  72.459  1.00  0.00     0.000 HD 
HETATM   24  H1  UNL     1     -13.165   9.629  72.543  1.00  0.00     0.000 HD 
HETATM   25  C   UNL     1     -11.604  11.042  69.401  1.00  0.00    -0.312 A  
ENDBRANCH  13  14
ENDBRANCH   8  13
ENDBRANCH   4   5
ENDBRANCH   2   4
TORSDOF 6
ENDMDL
MODEL      244
REMARK 921   NORMALIZED FREE ENERGY PREDICTED BY IDOCK:   -3.53 KCAL/MOL
REMARK 922        TOTAL FREE ENERGY PREDICTED BY IDOCK:   -5.78 KCAL/MOL
REMARK 923 INTER-LIGAND FREE ENERGY PREDICTED BY IDOCK:   -5.48 KCAL/MOL
REMARK 924 INTRA-LIGAND FREE ENERGY PREDICTED BY IDOCK:   -0.30 KCAL/MOL
REMARK 927      BINDING AFFINITY PREDICTED BY RF-SCORE:    0.00 PKD
ROOT
HETATM    1  C   UNL     1     -11.270   6.178  69.150  1.00  0.00    -0.409 C  
HETATM    2  C   UNL     1     -10.110   6.747  68.390  1.00  0.00    -0.162 C  
HETATM    3  O   UNL     1      -9.134   6.099  68.041  1.00  0.00    -0.117 OA 
ENDROOT
BRANCH   2   4
HETATM    4  O   UNL     1     -10.287   8.080  68.182  1.00  0.00    -0.201 OA 
BRANCH   4   5
HETATM    5  C   UNL     1      -9.157   8.912  68.499  1.00  0.00    -0.137 C  
HETATM    6  C   UNL     1      -9.474  10.409  68.310  1.00  0.00    -0.153 C  
HETATM    7  C   UNL     1      -8.176  11.213  68.542  1.00  0.00    -0.149 C  
HETATM    8  C   UNL     1     -10.652  10.827  69.227  1.00  0.00    -0.261 C  
BRANCH   7   9
HETATM    9  O   UNL     1      -8.340  12.630  68.373  1.00  0.00    -0.163 OA 
BRANCH   9  10
HETATM   10  C   UNL     1      -7.272  13.418  68.662  1.00  0.00    -0.107 C  
HETATM   11  O   UNL     1      -6.419  13.169  69.499  1.00  0.00    -0.112 OA 
HETATM   12  C   UNL     1      -7.240  14.618  67.760  1.00  0.00    -0.191 C  
ENDBRANCH   9  10
ENDBRANCH   7   9
BRANCH   8  13
HETATM   13  C   UNL     1     -11.118  12.270  69.030  1.00  0.00    -0.236 C  
BRANCH  13  14
HETATM   14  N   UNL     1     -11.334  12.617  67.643  1.00  0.00    -0.289 NA 
HETATM   15  C   UNL     1     -11.645  11.753  66.629  1.00  0.00    -0.197 A  
HETATM   16  N   UNL     1     -11.694  12.370  65.465  1.00  0.00    -0.394 NA 
HETATM   17  C   UNL     1     -11.359  13.675  65.744  1.00  0.00    -0.306 A  
HETATM   18  C   UNL     1     -11.205  14.807  64.957  1.00  0.00    -0.395 A  
HETATM   19  N   UNL     1     -10.823  15.976  65.535  1.00  0.00    -0.323 NA 
HETATM   20  C   UNL     1     -10.597  16.000  66.861  1.00  0.00    -0.300 A  
HETATM   21  N   UNL     1     -10.754  14.981  67.720  1.00  0.00    -0.272 NA 
HETATM   22  N   UNL     1     -10.187  17.207  67.390  1.00  0.00    -0.312 NA 
HETATM   23  H2  UNL     1     -10.854  17.937  67.142  1.00  0.00     0.000 HD 
HETATM   24  H1  UNL     1     -10.015  17.225  68.396  1.00  0.00     0.000 HD 
HETATM   25  C   UNL     1     -11.126  13.851  67.095  1.00  0.00    -0.300 A  
ENDBRANCH  13  14
ENDBRANCH   8  13
ENDBRANCH   4   5
ENDBRANCH   2   4
TORSDOF 6
ENDMDL
MODEL      245
REMARK 921   NORMALIZED FREE ENERGY PREDICTED BY IDOCK:   -3.50 KCAL/MOL
REMARK 922        TOTAL FREE ENERGY PREDICTED BY IDOCK:   -5.73 KCAL/MOL
REMARK 923 INTER-LIGAND FREE ENERGY PREDICTED BY IDOCK:   -5.95 KCAL/MOL
REMARK 924 INTRA-LIGAND FREE ENERGY PREDICTED BY IDOCK:    0.21 KCAL/MOL
REMARK 927      BINDING AFFINITY PREDICTED BY RF-SCORE:    0.00 PKD
ROOT
HETATM    1  C   UNL     1      -6.768  20.015  70.548  1.00  0.00    -0.008 C  
HETATM    2  C   UNL     1      -6.493  20.016  69.075  1.00  0.00    -0.323 C  
HETATM    3  O   UNL     1      -5.530  20.561  68.556  1.00  0.00    -0.238 OA 
ENDROOT
BRANCH   2   4
HETATM    4  O   UNL     1      -7.483  19.361  68.408  1.00  0.00    -0.294 OA 
BRANCH   4   5
HETATM    5  C   UNL     1      -7.056  18.246  67.606  1.00  0.00    -0.201 C  
HETATM    6  C   UNL     1      -7.329  16.898  68.303  1.00  0.00    -0.193 C  
HETATM    7  C   UNL     1      -6.724  15.772  67.437  1.00  0.00    -0.194 C  
HETATM    8  C   UNL     1      -8.844  16.738  68.584  1.00  0.00    -0.255 C  
BRANCH   7   9
HETATM    9  O   UNL     1      -6.897  14.461  67.996  1.00  0.00    -0.110 OA 
BRANCH   9  10
HETATM   10  C   UNL     1      -6.135  14.140  69.075  1.00  0.00    -0.093 C  
HETATM   11  O   UNL     1      -5.630  14.942  69.844  1.00  0.00    -0.101 OA 
HETATM   12  C   UNL     1      -6.051  12.650  69.239  1.00  0.00    -0.100 C  
ENDBRANCH   9  10
ENDBRANCH   7   9
BRANCH   8  13
HETATM   13  C   UNL     1      -9.206  15.481  69.376  1.00  0.00    -0.280 C  
BRANCH  13  14
HETATM   14  N   UNL     1     -10.338  14.767  68.831  1.00  0.00    -0.238 NA 
HETATM   15  C   UNL     1     -10.998  13.722  69.417  1.00  0.00    -0.097 A  
HETATM   16  N   UNL     1     -11.934  13.235  68.626  1.00  0.00    -0.342 NA 
HETATM   17  C   UNL     1     -11.839  13.976  67.471  1.00  0.00    -0.407 A  
HETATM   18  C   UNL     1     -12.516  13.941  66.260  1.00  0.00    -0.409 A  
HETATM   19  N   UNL     1     -12.160  14.804  65.271  1.00  0.00    -0.255 NA 
HETATM   20  C   UNL     1     -11.152  15.667  65.495  1.00  0.00    -0.226 A  
HETATM   21  N   UNL     1     -10.461  15.814  66.635  1.00  0.00    -0.298 NA 
HETATM   22  N   UNL     1     -10.818  16.501  64.448  1.00  0.00    -0.993 NA 
HETATM   23  H2  UNL     1     -11.644  17.011  64.135  1.00  0.00     0.000 HD 
HETATM   24  H1  UNL     1     -10.053  17.155  64.617  1.00  0.00     0.000 HD 
HETATM   25  C   UNL     1     -10.848  14.934  67.574  1.00  0.00    -0.292 A  
ENDBRANCH  13  14
ENDBRANCH   8  13
ENDBRANCH   4   5
ENDBRANCH   2   4
TORSDOF 6
ENDMDL
MODEL      246
REMARK 921   NORMALIZED FREE ENERGY PREDICTED BY IDOCK:   -3.50 KCAL/MOL
REMARK 922        TOTAL FREE ENERGY PREDICTED BY IDOCK:   -5.73 KCAL/MOL
REMARK 923 INTER-LIGAND FREE ENERGY PREDICTED BY IDOCK:   -5.01 KCAL/MOL
REMARK 924 INTRA-LIGAND FREE ENERGY PREDICTED BY IDOCK:   -0.72 KCAL/MOL
REMARK 927      BINDING AFFINITY PREDICTED BY RF-SCORE:    0.00 PKD
ROOT
HETATM    1  C   UNL     1     -10.499  10.608  66.550  1.00  0.00    -0.285 C  
HETATM    2  C   UNL     1     -10.030   9.277  67.056  1.00  0.00    -0.224 C  
HETATM    3  O   UNL     1     -10.486   8.203  66.689  1.00  0.00    -0.303 OA 
ENDROOT
BRANCH   2   4
HETATM    4  O   UNL     1      -9.060   9.442  67.997  1.00  0.00    -0.128 OA 
BRANCH   4   5
HETATM    5  C   UNL     1      -9.504   9.976  69.256  1.00  0.00    -0.217 C  
HETATM    6  C   UNL     1     -10.384   8.973  70.028  1.00  0.00    -0.226 C  
HETATM    7  C   UNL     1     -10.920   9.674  71.296  1.00  0.00    -0.329 C  
HETATM    8  C   UNL     1      -9.593   7.671  70.310  1.00  0.00    -0.172 C  
BRANCH   7   9
HETATM    9  O   UNL     1     -11.777   8.842  72.093  1.00  0.00    -0.357 OA 
BRANCH   9  10
HETATM   10  C   UNL     1     -13.092   8.802  71.757  1.00  0.00    -0.363 C  
HETATM   11  O   UNL     1     -13.852   7.875  71.992  1.00  0.00    -0.316 OA 
HETATM   12  C   UNL     1     -13.512  10.090  71.109  1.00  0.00    -0.299 C  
ENDBRANCH   9  10
ENDBRANCH   7   9
BRANCH   8  13
HETATM   13  C   UNL     1     -10.417   6.568  70.973  1.00  0.00    -0.222 C  
BRANCH  13  14
HETATM   14  N   UNL     1     -10.004   5.236  70.590  1.00  0.00    -0.203 NA 
HETATM   15  C   UNL     1      -9.664   4.822  69.331  1.00  0.00    -0.196 A  
HETATM   16  N   UNL     1      -9.415   3.528  69.297  1.00  0.00    -0.182 NA 
HETATM   17  C   UNL     1      -9.646   3.091  70.581  1.00  0.00    -0.131 A  
HETATM   18  C   UNL     1      -9.590   1.844  71.187  1.00  0.00    -0.137 A  
HETATM   19  N   UNL     1      -9.918   1.725  72.501  1.00  0.00    -0.114 NA 
HETATM   20  C   UNL     1     -10.296   2.824  73.177  1.00  0.00    -0.147 A  
HETATM   21  N   UNL     1     -10.346   4.078  72.705  1.00  0.00    -0.166 NA 
HETATM   22  N   UNL     1     -10.642   2.639  74.501  1.00  0.00    -0.142 NA 
HETATM   23  H2  UNL     1      -9.879   2.176  74.995  1.00  0.00     0.000 HD 
HETATM   24  H1  UNL     1     -10.929   3.472  75.014  1.00  0.00     0.000 HD 
HETATM   25  C   UNL     1     -10.019   4.138  71.403  1.00  0.00    -0.153 A  
ENDBRANCH  13  14
ENDBRANCH   8  13
ENDBRANCH   4   5
ENDBRANCH   2   4
TORSDOF 6
ENDMDL
MODEL      247
REMARK 921   NORMALIZED FREE ENERGY PREDICTED BY IDOCK:   -3.48 KCAL/MOL
REMARK 922        TOTAL FREE ENERGY PREDICTED BY IDOCK:   -5.71 KCAL/MOL
REMARK 923 INTER-LIGAND FREE ENERGY PREDICTED BY IDOCK:   -4.66 KCAL/MOL
REMARK 924 INTRA-LIGAND FREE ENERGY PREDICTED BY IDOCK:   -1.05 KCAL/MOL
REMARK 927      BINDING AFFINITY PREDICTED BY RF-SCORE:    0.00 PKD
ROOT
HETATM    1  C   UNL     1      -9.541   5.355  65.827  1.00  0.00    -0.072 C  
HETATM    2  C   UNL     1      -9.021   6.202  66.949  1.00  0.00    -0.118 C  
HETATM    3  O   UNL     1      -9.565   6.307  68.039  1.00  0.00    -0.116 OA 
ENDROOT
BRANCH   2   4
HETATM    4  O   UNL     1      -7.892   6.857  66.565  1.00  0.00    -0.102 OA 
BRANCH   4   5
HETATM    5  C   UNL     1      -8.036   7.727  65.429  1.00  0.00    -0.125 C  
HETATM    6  C   UNL     1      -8.569   9.116  65.833  1.00  0.00    -0.168 C  
HETATM    7  C   UNL     1      -8.817   9.934  64.547  1.00  0.00    -0.209 C  
HETATM    8  C   UNL     1      -7.602   9.791  66.838  1.00  0.00    -0.095 C  
BRANCH   7   9
HETATM    9  O   UNL     1      -9.339  11.249  64.794  1.00  0.00    -0.210 OA 
BRANCH   9  10
HETATM   10  C   UNL     1     -10.431  11.628  64.079  1.00  0.00    -0.367 C  
HETATM   11  O   UNL     1     -10.455  11.808  62.872  1.00  0.00    -0.236 OA 
HETATM   12  C   UNL     1     -11.636  11.734  64.970  1.00  0.00    -0.214 C  
ENDBRANCH   9  10
ENDBRANCH   7   9
BRANCH   8  13
HETATM   13  C   UNL     1      -8.101  11.128  67.387  1.00  0.00    -0.132 C  
BRANCH  13  14
HETATM   14  N   UNL     1      -9.067  10.983  68.453  1.00  0.00    -0.155 NA 
HETATM   15  C   UNL     1      -9.151   9.944  69.338  1.00  0.00    -0.206 A  
HETATM   16  N   UNL     1     -10.195  10.067  70.134  1.00  0.00    -0.265 NA 
HETATM   17  C   UNL     1     -10.826  11.214  69.711  1.00  0.00    -0.090 A  
HETATM   18  C   UNL     1     -11.982  11.868  70.113  1.00  0.00    -0.332 A  
HETATM   19  N   UNL     1     -12.376  12.992  69.458  1.00  0.00    -0.109 NA 
HETATM   20  C   UNL     1     -11.633  13.436  68.428  1.00  0.00    -0.332 A  
HETATM   21  N   UNL     1     -10.483  12.909  67.983  1.00  0.00    -0.224 NA 
HETATM   22  N   UNL     1     -12.094  14.566  67.784  1.00  0.00    -0.598 NA 
HETATM   23  H2  UNL     1     -12.229  15.318  68.460  1.00  0.00     0.000 HD 
HETATM   24  H1  UNL     1     -11.531  14.903  67.003  1.00  0.00     0.000 HD 
HETATM   25  C   UNL     1     -10.144  11.799  68.660  1.00  0.00    -0.189 A  
ENDBRANCH  13  14
ENDBRANCH   8  13
ENDBRANCH   4   5
ENDBRANCH   2   4
TORSDOF 6
ENDMDL
MODEL      248
REMARK 921   NORMALIZED FREE ENERGY PREDICTED BY IDOCK:   -3.43 KCAL/MOL
REMARK 922        TOTAL FREE ENERGY PREDICTED BY IDOCK:   -5.64 KCAL/MOL
REMARK 923 INTER-LIGAND FREE ENERGY PREDICTED BY IDOCK:   -5.08 KCAL/MOL
REMARK 924 INTRA-LIGAND FREE ENERGY PREDICTED BY IDOCK:   -0.56 KCAL/MOL
REMARK 927      BINDING AFFINITY PREDICTED BY RF-SCORE:    0.00 PKD
ROOT
HETATM    1  C   UNL     1     -10.781   7.403  71.459  1.00  0.00    -0.243 C  
HETATM    2  C   UNL     1      -9.615   7.718  70.572  1.00  0.00    -0.167 C  
HETATM    3  O   UNL     1      -8.447   7.672  70.930  1.00  0.00    -0.121 OA 
ENDROOT
BRANCH   2   4
HETATM    4  O   UNL     1     -10.047   8.094  69.337  1.00  0.00    -0.185 OA 
BRANCH   4   5
HETATM    5  C   UNL     1      -9.170   7.761  68.247  1.00  0.00    -0.139 C  
HETATM    6  C   UNL     1      -9.043   8.920  67.237  1.00  0.00    -0.153 C  
HETATM    7  C   UNL     1      -8.196   8.432  66.042  1.00  0.00    -0.112 C  
HETATM    8  C   UNL     1      -8.483  10.183  67.938  1.00  0.00    -0.118 C  
BRANCH   7   9
HETATM    9  O   UNL     1      -8.024   9.423  65.017  1.00  0.00    -0.110 OA 
BRANCH   9  10
HETATM   10  C   UNL     1      -6.882   9.365  64.282  1.00  0.00    -0.095 C  
HETATM   11  O   UNL     1      -6.734   8.712  63.261  1.00  0.00    -0.089 OA 
HETATM   12  C   UNL     1      -5.834  10.273  64.859  1.00  0.00    -0.135 C  
ENDBRANCH   9  10
ENDBRANCH   7   9
BRANCH   8  13
HETATM   13  C   UNL     1      -8.427  11.423  67.045  1.00  0.00    -0.159 C  
BRANCH  13  14
HETATM   14  N   UNL     1      -9.707  12.077  66.893  1.00  0.00    -0.200 NA 
HETATM   15  C   UNL     1     -10.932  11.468  66.865  1.00  0.00    -0.296 A  
HETATM   16  N   UNL     1     -11.898  12.333  66.628  1.00  0.00    -0.594 NA 
HETATM   17  C   UNL     1     -11.258  13.538  66.458  1.00  0.00    -0.306 A  
HETATM   18  C   UNL     1     -11.702  14.818  66.160  1.00  0.00    -0.255 A  
HETATM   19  N   UNL     1     -10.798  15.823  66.019  1.00  0.00    -0.294 NA 
HETATM   20  C   UNL     1      -9.490  15.544  66.166  1.00  0.00    -0.341 A  
HETATM   21  N   UNL     1      -8.955  14.359  66.493  1.00  0.00    -0.208 NA 
HETATM   22  N   UNL     1      -8.616  16.597  65.986  1.00  0.00    -0.477 NA 
HETATM   23  H2  UNL     1      -8.875  17.369  66.601  1.00  0.00     0.000 HD 
HETATM   24  H1  UNL     1      -7.624  16.386  66.098  1.00  0.00     0.000 HD 
HETATM   25  C   UNL     1      -9.891  13.402  66.614  1.00  0.00    -0.278 A  
ENDBRANCH  13  14
ENDBRANCH   8  13
ENDBRANCH   4   5
ENDBRANCH   2   4
TORSDOF 6
ENDMDL
MODEL      249
REMARK 921   NORMALIZED FREE ENERGY PREDICTED BY IDOCK:   -3.40 KCAL/MOL
REMARK 922        TOTAL FREE ENERGY PREDICTED BY IDOCK:   -5.60 KCAL/MOL
REMARK 923 INTER-LIGAND FREE ENERGY PREDICTED BY IDOCK:   -4.68 KCAL/MOL
REMARK 924 INTRA-LIGAND FREE ENERGY PREDICTED BY IDOCK:   -0.92 KCAL/MOL
REMARK 927      BINDING AFFINITY PREDICTED BY RF-SCORE:    0.00 PKD
ROOT
HETATM    1  C   UNL     1      -5.128  10.894  68.023  1.00  0.00    -0.036 C  
HETATM    2  C   UNL     1      -5.750  11.751  66.962  1.00  0.00    -0.134 C  
HETATM    3  O   UNL     1      -6.020  12.935  67.107  1.00  0.00    -0.325 OA 
ENDROOT
BRANCH   2   4
HETATM    4  O   UNL     1      -5.998  11.016  65.844  1.00  0.00    -0.137 OA 
BRANCH   4   5
HETATM    5  C   UNL     1      -6.224   9.613  66.063  1.00  0.00    -0.065 C  
HETATM    6  C   UNL     1      -7.681   9.322  66.476  1.00  0.00    -0.093 C  
HETATM    7  C   UNL     1      -7.798   7.821  66.817  1.00  0.00    -0.106 C  
HETATM    8  C   UNL     1      -8.657   9.801  65.372  1.00  0.00    -0.163 C  
BRANCH   7   9
HETATM    9  O   UNL     1      -9.114   7.429  67.239  1.00  0.00    -0.121 OA 
BRANCH   9  10
HETATM   10  C   UNL     1      -9.199   6.562  68.282  1.00  0.00    -0.116 C  
HETATM   11  O   UNL     1      -8.258   5.967  68.782  1.00  0.00    -0.102 OA 
HETATM   12  C   UNL     1     -10.610   6.481  68.789  1.00  0.00    -0.282 C  
ENDBRANCH   9  10
ENDBRANCH   7   9
BRANCH   8  13
HETATM   13  C   UNL     1     -10.135   9.660  65.738  1.00  0.00    -0.204 C  
BRANCH  13  14
HETATM   14  N   UNL     1     -10.677  10.832  66.389  1.00  0.00    -0.205 NA 
HETATM   15  C   UNL     1     -10.799  12.080  65.844  1.00  0.00    -0.288 A  
HETATM   16  N   UNL     1     -11.253  12.951  66.723  1.00  0.00    -0.286 NA 
HETATM   17  C   UNL     1     -11.387  12.236  67.890  1.00  0.00    -0.298 A  
HETATM   18  C   UNL     1     -11.788  12.575  69.175  1.00  0.00    -0.296 A  
HETATM   19  N   UNL     1     -11.781  11.627  70.149  1.00  0.00    -0.321 NA 
HETATM   20  C   UNL     1     -11.377  10.382  69.839  1.00  0.00    -0.302 A  
HETATM   21  N   UNL     1     -11.010   9.936  68.629  1.00  0.00    -0.209 NA 
HETATM   22  N   UNL     1     -11.367   9.468  70.874  1.00  0.00    -0.312 NA 
HETATM   23  H2  UNL     1     -12.287   9.433  71.312  1.00  0.00     0.000 HD 
HETATM   24  H1  UNL     1     -11.060   8.524  70.639  1.00  0.00     0.000 HD 
HETATM   25  C   UNL     1     -11.029  10.913  67.707  1.00  0.00    -0.283 A  
ENDBRANCH  13  14
ENDBRANCH   8  13
ENDBRANCH   4   5
ENDBRANCH   2   4
TORSDOF 6
ENDMDL
MODEL      250
REMARK 921   NORMALIZED FREE ENERGY PREDICTED BY IDOCK:   -3.40 KCAL/MOL
REMARK 922        TOTAL FREE ENERGY PREDICTED BY IDOCK:   -5.60 KCAL/MOL
REMARK 923 INTER-LIGAND FREE ENERGY PREDICTED BY IDOCK:   -4.71 KCAL/MOL
REMARK 924 INTRA-LIGAND FREE ENERGY PREDICTED BY IDOCK:   -0.89 KCAL/MOL
REMARK 927      BINDING AFFINITY PREDICTED BY RF-SCORE:    0.00 PKD
ROOT
HETATM    1  C   UNL     1     -11.556  11.016  68.449  1.00  0.00    -0.372 C  
HETATM    2  C   UNL     1     -10.500  10.707  67.431  1.00  0.00    -0.235 C  
HETATM    3  O   UNL     1     -10.517  11.114  66.278  1.00  0.00    -0.246 OA 
ENDROOT
BRANCH   2   4
HETATM    4  O   UNL     1      -9.554   9.887  67.964  1.00  0.00    -0.138 OA 
BRANCH   4   5
HETATM    5  C   UNL     1      -9.252   8.708  67.198  1.00  0.00    -0.144 C  
HETATM    6  C   UNL     1      -9.315   7.431  68.059  1.00  0.00    -0.136 C  
HETATM    7  C   UNL     1      -8.851   6.239  67.193  1.00  0.00    -0.109 C  
HETATM    8  C   UNL     1     -10.730   7.262  68.665  1.00  0.00    -0.172 C  
BRANCH   7   9
HETATM    9  O   UNL     1      -8.845   4.987  67.896  1.00  0.00    -0.103 OA 
BRANCH   9  10
HETATM   10  C   UNL     1      -9.390   3.916  67.262  1.00  0.00    -0.191 C  
HETATM   11  O   UNL     1      -9.212   2.748  67.570  1.00  0.00    -0.173 OA 
HETATM   12  C   UNL     1     -10.307   4.363  66.159  1.00  0.00    -0.175 C  
ENDBRANCH   9  10
ENDBRANCH   7   9
BRANCH   8  13
HETATM   13  C   UNL     1     -10.863   6.082  69.629  1.00  0.00    -0.369 C  
BRANCH  13  14
HETATM   14  N   UNL     1     -10.889   6.480  71.019  1.00  0.00    -0.242 NA 
HETATM   15  C   UNL     1     -11.075   7.748  71.498  1.00  0.00    -0.236 A  
HETATM   16  N   UNL     1     -10.961   7.793  72.810  1.00  0.00    -0.360 NA 
HETATM   17  C   UNL     1     -10.649   6.505  73.180  1.00  0.00    -0.265 A  
HETATM   18  C   UNL     1     -10.376   5.905  74.401  1.00  0.00    -0.251 A  
HETATM   19  N   UNL     1     -10.058   4.584  74.440  1.00  0.00    -0.190 NA 
HETATM   20  C   UNL     1     -10.009   3.894  73.286  1.00  0.00    -0.131 A  
HETATM   21  N   UNL     1     -10.292   4.361  72.061  1.00  0.00    -0.159 NA 
HETATM   22  N   UNL     1      -9.656   2.563  73.383  1.00  0.00    -0.090 NA 
HETATM   23  H2  UNL     1     -10.275   2.090  74.041  1.00  0.00     0.000 HD 
HETATM   24  H1  UNL     1      -9.619   2.041  72.508  1.00  0.00     0.000 HD 
HETATM   25  C   UNL     1     -10.594   5.670  72.079  1.00  0.00    -0.229 A  
ENDBRANCH  13  14
ENDBRANCH   8  13
ENDBRANCH   4   5
ENDBRANCH   2   4
TORSDOF 6
ENDMDL
MODEL      251
REMARK 921   NORMALIZED FREE ENERGY PREDICTED BY IDOCK:   -3.39 KCAL/MOL
REMARK 922        TOTAL FREE ENERGY PREDICTED BY IDOCK:   -5.59 KCAL/MOL
REMARK 923 INTER-LIGAND FREE ENERGY PREDICTED BY IDOCK:   -4.93 KCAL/MOL
REMARK 924 INTRA-LIGAND FREE ENERGY PREDICTED BY IDOCK:   -0.66 KCAL/MOL
REMARK 927      BINDING AFFINITY PREDICTED BY RF-SCORE:    0.00 PKD
ROOT
HETATM    1  C   UNL     1     -12.066  11.188  69.924  1.00  0.00    -0.418 C  
HETATM    2  C   UNL     1     -11.959  12.064  68.712  1.00  0.00    -0.244 C  
HETATM    3  O   UNL     1     -11.689  13.255  68.748  1.00  0.00    -0.287 OA 
ENDROOT
BRANCH   2   4
HETATM    4  O   UNL     1     -12.238  11.351  67.587  1.00  0.00    -0.485 OA 
BRANCH   4   5
HETATM    5  C   UNL     1     -11.321  11.535  66.494  1.00  0.00    -0.193 C  
HETATM    6  C   UNL     1     -10.033  10.707  66.679  1.00  0.00    -0.259 C  
HETATM    7  C   UNL     1      -9.058  11.064  65.536  1.00  0.00    -0.207 C  
HETATM    8  C   UNL     1     -10.375   9.198  66.773  1.00  0.00    -0.308 C  
BRANCH   7   9
HETATM    9  O   UNL     1      -7.805  10.367  65.612  1.00  0.00    -0.146 OA 
BRANCH   9  10
HETATM   10  C   UNL     1      -6.955  10.724  66.611  1.00  0.00    -0.129 C  
HETATM   11  O   UNL     1      -7.122  11.658  67.379  1.00  0.00    -0.105 OA 
HETATM   12  C   UNL     1      -5.801   9.766  66.691  1.00  0.00    -0.054 C  
ENDBRANCH   9  10
ENDBRANCH   7   9
BRANCH   8  13
HETATM   13  C   UNL     1      -9.173   8.301  67.072  1.00  0.00    -0.152 C  
BRANCH  13  14
HETATM   14  N   UNL     1      -9.522   7.104  67.804  1.00  0.00    -0.126 NA 
HETATM   15  C   UNL     1      -9.628   5.840  67.291  1.00  0.00    -0.117 A  
HETATM   16  N   UNL     1     -10.046   4.981  68.200  1.00  0.00    -0.133 NA 
HETATM   17  C   UNL     1     -10.254   5.738  69.329  1.00  0.00    -0.226 A  
HETATM   18  C   UNL     1     -10.714   5.439  70.604  1.00  0.00    -0.187 A  
HETATM   19  N   UNL     1     -10.847   6.437  71.517  1.00  0.00    -0.245 NA 
HETATM   20  C   UNL     1     -10.534   7.693  71.155  1.00  0.00    -0.208 A  
HETATM   21  N   UNL     1     -10.044   8.088  69.970  1.00  0.00    -0.193 NA 
HETATM   22  N   UNL     1     -10.713   8.669  72.114  1.00  0.00    -0.348 NA 
HETATM   23  H2  UNL     1     -10.203   8.418  72.961  1.00  0.00     0.000 HD 
HETATM   24  H1  UNL     1     -10.476   9.623  71.839  1.00  0.00     0.000 HD 
HETATM   25  C   UNL     1      -9.939   7.065  69.105  1.00  0.00    -0.165 A  
ENDBRANCH  13  14
ENDBRANCH   8  13
ENDBRANCH   4   5
ENDBRANCH   2   4
TORSDOF 6
ENDMDL
MODEL      252
REMARK 921   NORMALIZED FREE ENERGY PREDICTED BY IDOCK:   -3.37 KCAL/MOL
REMARK 922        TOTAL FREE ENERGY PREDICTED BY IDOCK:   -5.57 KCAL/MOL
REMARK 923 INTER-LIGAND FREE ENERGY PREDICTED BY IDOCK:   -4.80 KCAL/MOL
REMARK 924 INTRA-LIGAND FREE ENERGY PREDICTED BY IDOCK:   -0.77 KCAL/MOL
REMARK 927      BINDING AFFINITY PREDICTED BY RF-SCORE:    0.00 PKD
ROOT
HETATM    1  C   UNL     1     -11.731  10.922  68.859  1.00  0.00    -0.376 C  
HETATM    2  C   UNL     1     -11.601  10.559  70.307  1.00  0.00    -0.332 C  
HETATM    3  O   UNL     1     -12.351  10.959  71.186  1.00  0.00    -0.357 OA 
ENDROOT
BRANCH   2   4
HETATM    4  O   UNL     1     -10.516   9.760  70.500  1.00  0.00    -0.278 OA 
BRANCH   4   5
HETATM    5  C   UNL     1     -10.471   9.070  71.760  1.00  0.00    -0.348 C  
HETATM    6  C   UNL     1      -9.891   7.648  71.617  1.00  0.00    -0.193 C  
HETATM    7  C   UNL     1     -10.003   6.938  72.984  1.00  0.00    -0.187 C  
HETATM    8  C   UNL     1      -8.450   7.712  71.051  1.00  0.00    -0.116 C  
BRANCH   7   9
HETATM    9  O   UNL     1      -9.510   5.589  72.972  1.00  0.00    -0.146 OA 
BRANCH   9  10
HETATM   10  C   UNL     1     -10.432   4.592  72.924  1.00  0.00    -0.190 C  
HETATM   11  O   UNL     1     -11.567   4.659  73.368  1.00  0.00    -0.317 OA 
HETATM   12  C   UNL     1      -9.887   3.404  72.184  1.00  0.00    -0.236 C  
ENDBRANCH   9  10
ENDBRANCH   7   9
BRANCH   8  13
HETATM   13  C   UNL     1      -7.828   6.345  70.765  1.00  0.00    -0.106 C  
BRANCH  13  14
HETATM   14  N   UNL     1      -7.385   6.194  69.397  1.00  0.00    -0.088 NA 
HETATM   15  C   UNL     1      -6.089   6.139  68.964  1.00  0.00    -0.029 A  
HETATM   16  N   UNL     1      -6.018   6.082  67.649  1.00  0.00    -0.017 NA 
HETATM   17  C   UNL     1      -7.325   6.145  67.224  1.00  0.00    -0.077 A  
HETATM   18  C   UNL     1      -7.919   6.158  65.970  1.00  0.00    -0.110 A  
HETATM   19  N   UNL     1      -9.270   6.265  65.871  1.00  0.00    -0.084 NA 
HETATM   20  C   UNL     1      -9.997   6.363  66.999  1.00  0.00    -0.163 A  
HETATM   21  N   UNL     1      -9.534   6.320  68.257  1.00  0.00    -0.118 NA 
HETATM   22  N   UNL     1     -11.361   6.496  66.838  1.00  0.00    -0.817 NA 
HETATM   23  H2  UNL     1     -11.716   5.731  66.265  1.00  0.00     0.000 HD 
HETATM   24  H1  UNL     1     -11.912   6.570  67.693  1.00  0.00     0.000 HD 
HETATM   25  C   UNL     1      -8.194   6.219  68.296  1.00  0.00    -0.115 A  
ENDBRANCH  13  14
ENDBRANCH   8  13
ENDBRANCH   4   5
ENDBRANCH   2   4
TORSDOF 6
ENDMDL
MODEL      253
REMARK 921   NORMALIZED FREE ENERGY PREDICTED BY IDOCK:   -3.37 KCAL/MOL
REMARK 922        TOTAL FREE ENERGY PREDICTED BY IDOCK:   -5.56 KCAL/MOL
REMARK 923 INTER-LIGAND FREE ENERGY PREDICTED BY IDOCK:   -5.38 KCAL/MOL
REMARK 924 INTRA-LIGAND FREE ENERGY PREDICTED BY IDOCK:   -0.18 KCAL/MOL
REMARK 927      BINDING AFFINITY PREDICTED BY RF-SCORE:    0.00 PKD
ROOT
HETATM    1  C   UNL     1     -12.371  15.997  71.916  1.00  0.00    -0.516 C  
HETATM    2  C   UNL     1     -13.189  15.386  70.819  1.00  0.00    -0.387 C  
HETATM    3  O   UNL     1     -14.401  15.511  70.716  1.00  0.00    -0.284 OA 
ENDROOT
BRANCH   2   4
HETATM    4  O   UNL     1     -12.398  14.655  69.988  1.00  0.00    -0.319 OA 
BRANCH   4   5
HETATM    5  C   UNL     1     -11.866  13.442  70.549  1.00  0.00    -0.158 C  
HETATM    6  C   UNL     1     -11.172  12.572  69.482  1.00  0.00    -0.163 C  
HETATM    7  C   UNL     1     -10.751  11.239  70.141  1.00  0.00     0.519 C  
HETATM    8  C   UNL     1     -10.004  13.353  68.829  1.00  0.00    -0.063 C  
BRANCH   7   9
HETATM    9  O   UNL     1     -10.108  10.329  69.235  1.00  0.00    -0.203 OA 
BRANCH   9  10
HETATM   10  C   UNL     1      -9.443   9.276  69.780  1.00  0.00    -0.191 C  
HETATM   11  O   UNL     1      -9.895   8.149  69.909  1.00  0.00    -0.182 OA 
HETATM   12  C   UNL     1      -8.041   9.668  70.146  1.00  0.00    -0.205 C  
ENDBRANCH   9  10
ENDBRANCH   7   9
BRANCH   8  13
HETATM   13  C   UNL     1      -9.323  12.615  67.676  1.00  0.00    -0.190 C  
BRANCH  13  14
HETATM   14  N   UNL     1     -10.255  12.074  66.713  1.00  0.00    -0.201 NA 
HETATM   15  C   UNL     1     -10.529  10.751  66.502  1.00  0.00    -0.240 A  
HETATM   16  N   UNL     1     -11.363  10.582  65.495  1.00  0.00     0.655 NA 
HETATM   17  C   UNL     1     -11.599  11.851  65.018  1.00  0.00    -0.214 A  
HETATM   18  C   UNL     1     -12.356  12.347  63.966  1.00  0.00    -0.488 A  
HETATM   19  N   UNL     1     -12.362  13.683  63.718  1.00  0.00    -0.708 NA 
HETATM   20  C   UNL     1     -11.623  14.490  64.501  1.00  0.00    -0.377 A  
HETATM   21  N   UNL     1     -10.890  14.126  65.564  1.00  0.00    -0.298 NA 
HETATM   22  N   UNL     1     -11.646  15.834  64.187  1.00  0.00    -0.887 NA 
HETATM   23  H2  UNL     1     -12.610  16.166  64.163  1.00  0.00     0.000 HD 
HETATM   24  H1  UNL     1     -11.085  16.447  64.780  1.00  0.00     0.000 HD 
HETATM   25  C   UNL     1     -10.915  12.797  65.759  1.00  0.00    -0.277 A  
ENDBRANCH  13  14
ENDBRANCH   8  13
ENDBRANCH   4   5
ENDBRANCH   2   4
TORSDOF 6
ENDMDL
MODEL      254
REMARK 921   NORMALIZED FREE ENERGY PREDICTED BY IDOCK:   -3.36 KCAL/MOL
REMARK 922        TOTAL FREE ENERGY PREDICTED BY IDOCK:   -5.55 KCAL/MOL
REMARK 923 INTER-LIGAND FREE ENERGY PREDICTED BY IDOCK:   -4.91 KCAL/MOL
REMARK 924 INTRA-LIGAND FREE ENERGY PREDICTED BY IDOCK:   -0.64 KCAL/MOL
REMARK 927      BINDING AFFINITY PREDICTED BY RF-SCORE:    0.00 PKD
ROOT
HETATM    1  C   UNL     1     -14.226   8.894  72.280  1.00  0.00    -0.474 C  
HETATM    2  C   UNL     1     -13.137   9.785  71.762  1.00  0.00    -0.431 C  
HETATM    3  O   UNL     1     -13.044  10.977  72.019  1.00  0.00    -0.496 OA 
ENDROOT
BRANCH   2   4
HETATM    4  O   UNL     1     -12.302   9.087  70.946  1.00  0.00    -0.238 OA 
BRANCH   4   5
HETATM    5  C   UNL     1     -10.916   9.088  71.330  1.00  0.00    -0.324 C  
HETATM    6  C   UNL     1     -10.650   8.149  72.524  1.00  0.00    -0.411 C  
HETATM    7  C   UNL     1      -9.175   8.312  72.951  1.00  0.00    -0.259 C  
HETATM    8  C   UNL     1     -11.049   6.696  72.163  1.00  0.00    -0.288 C  
BRANCH   7   9
HETATM    9  O   UNL     1      -8.810   7.498  74.076  1.00  0.00    -0.212 OA 
BRANCH   9  10
HETATM   10  C   UNL     1      -7.518   7.081  74.148  1.00  0.00    -0.106 C  
HETATM   11  O   UNL     1      -6.539   7.810  74.109  1.00  0.00    -0.091 OA 
HETATM   12  C   UNL     1      -7.452   5.595  74.352  1.00  0.00    -0.088 C  
ENDBRANCH   9  10
ENDBRANCH   7   9
BRANCH   8  13
HETATM   13  C   UNL     1     -10.929   5.706  73.322  1.00  0.00    -0.272 C  
BRANCH  13  14
HETATM   14  N   UNL     1     -10.595   4.365  72.896  1.00  0.00    -0.189 NA 
HETATM   15  C   UNL     1     -11.027   3.200  73.468  1.00  0.00    -0.226 A  
HETATM   16  N   UNL     1     -10.475   2.147  72.899  1.00  0.00    -0.147 NA 
HETATM   17  C   UNL     1      -9.625   2.664  71.949  1.00  0.00    -0.142 A  
HETATM   18  C   UNL     1      -8.746   2.089  71.043  1.00  0.00    -0.061 A  
HETATM   19  N   UNL     1      -7.997   2.889  70.239  1.00  0.00    -0.042 NA 
HETATM   20  C   UNL     1      -8.127   4.223  70.349  1.00  0.00    -0.059 A  
HETATM   21  N   UNL     1      -8.970   4.883  71.157  1.00  0.00    -0.133 NA 
HETATM   22  N   UNL     1      -7.323   4.986  69.526  1.00  0.00    -0.056 NA 
HETATM   23  H2  UNL     1      -7.461   4.706  68.555  1.00  0.00     0.000 HD 
HETATM   24  H1  UNL     1      -7.421   5.998  69.610  1.00  0.00     0.000 HD 
HETATM   25  C   UNL     1      -9.680   4.046  71.933  1.00  0.00    -0.167 A  
ENDBRANCH  13  14
ENDBRANCH   8  13
ENDBRANCH   4   5
ENDBRANCH   2   4
TORSDOF 6
ENDMDL
MODEL      255
REMARK 921   NORMALIZED FREE ENERGY PREDICTED BY IDOCK:   -3.35 KCAL/MOL
REMARK 922        TOTAL FREE ENERGY PREDICTED BY IDOCK:   -5.54 KCAL/MOL
REMARK 923 INTER-LIGAND FREE ENERGY PREDICTED BY IDOCK:   -5.06 KCAL/MOL
REMARK 924 INTRA-LIGAND FREE ENERGY PREDICTED BY IDOCK:   -0.47 KCAL/MOL
REMARK 927      BINDING AFFINITY PREDICTED BY RF-SCORE:    0.00 PKD
ROOT
HETATM    1  C   UNL     1      -8.793   4.848  67.674  1.00  0.00    -0.107 C  
HETATM    2  C   UNL     1      -9.898   5.671  68.263  1.00  0.00    -0.141 C  
HETATM    3  O   UNL     1     -10.360   5.500  69.382  1.00  0.00    -0.231 OA 
ENDROOT
BRANCH   2   4
HETATM    4  O   UNL     1     -10.329   6.598  67.365  1.00  0.00    -0.167 OA 
BRANCH   4   5
HETATM    5  C   UNL     1      -9.313   7.471  66.841  1.00  0.00    -0.157 C  
HETATM    6  C   UNL     1      -9.421   8.894  67.426  1.00  0.00    -0.181 C  
HETATM    7  C   UNL     1      -8.384   9.791  66.714  1.00  0.00    -0.124 C  
HETATM    8  C   UNL     1      -9.273   8.853  68.967  1.00  0.00    -0.140 C  
BRANCH   7   9
HETATM    9  O   UNL     1      -8.403  11.156  67.161  1.00  0.00    -0.128 OA 
BRANCH   9  10
HETATM   10  C   UNL     1      -7.205  11.784  67.288  1.00  0.00    -0.142 C  
HETATM   11  O   UNL     1      -6.204  11.532  66.635  1.00  0.00    -0.142 OA 
HETATM   12  C   UNL     1      -7.291  12.888  68.303  1.00  0.00    -0.118 C  
ENDBRANCH   9  10
ENDBRANCH   7   9
BRANCH   8  13
HETATM   13  C   UNL     1      -9.479  10.204  69.653  1.00  0.00    -0.200 C  
BRANCH  13  14
HETATM   14  N   UNL     1     -10.850  10.443  70.045  1.00  0.00    -0.290 NA 
HETATM   15  C   UNL     1     -11.543  11.614  69.905  1.00  0.00    -0.288 A  
HETATM   16  N   UNL     1     -12.746  11.533  70.438  1.00  0.00    -0.122 NA 
HETATM   17  C   UNL     1     -12.808  10.268  70.976  1.00  0.00    -0.397 A  
HETATM   18  C   UNL     1     -13.781   9.583  71.689  1.00  0.00    -0.291 A  
HETATM   19  N   UNL     1     -13.526   8.323  72.128  1.00  0.00    -0.299 NA 
HETATM   20  C   UNL     1     -12.326   7.775  71.862  1.00  0.00    -0.310 A  
HETATM   21  N   UNL     1     -11.332   8.327  71.150  1.00  0.00    -0.257 NA 
HETATM   22  N   UNL     1     -12.113   6.503  72.354  1.00  0.00    -0.521 NA 
HETATM   23  H2  UNL     1     -12.854   5.880  72.033  1.00  0.00     0.000 HD 
HETATM   24  H1  UNL     1     -11.203   6.087  72.153  1.00  0.00     0.000 HD 
HETATM   25  C   UNL     1     -11.635   9.572  70.748  1.00  0.00    -0.308 A  
ENDBRANCH  13  14
ENDBRANCH   8  13
ENDBRANCH   4   5
ENDBRANCH   2   4
TORSDOF 6
ENDMDL
MODEL      256
REMARK 921   NORMALIZED FREE ENERGY PREDICTED BY IDOCK:   -3.33 KCAL/MOL
REMARK 922        TOTAL FREE ENERGY PREDICTED BY IDOCK:   -5.51 KCAL/MOL
REMARK 923 INTER-LIGAND FREE ENERGY PREDICTED BY IDOCK:   -4.64 KCAL/MOL
REMARK 924 INTRA-LIGAND FREE ENERGY PREDICTED BY IDOCK:   -0.87 KCAL/MOL
REMARK 927      BINDING AFFINITY PREDICTED BY RF-SCORE:    0.00 PKD
ROOT
HETATM    1  C   UNL     1      -8.737   1.983  65.689  1.00  0.00    -0.119 C  
HETATM    2  C   UNL     1      -8.666   3.372  65.131  1.00  0.00    -0.119 C  
HETATM    3  O   UNL     1      -8.215   3.646  64.028  1.00  0.00    -0.089 OA 
ENDROOT
BRANCH   2   4
HETATM    4  O   UNL     1      -9.137   4.272  66.036  1.00  0.00    -0.122 OA 
BRANCH   4   5
HETATM    5  C   UNL     1      -9.153   5.641  65.598  1.00  0.00    -0.098 C  
HETATM    6  C   UNL     1      -9.374   6.618  66.771  1.00  0.00    -0.184 C  
HETATM    7  C   UNL     1      -9.508   8.045  66.196  1.00  0.00    -0.122 C  
HETATM    8  C   UNL     1      -8.244   6.460  67.820  1.00  0.00    -0.118 C  
BRANCH   7   9
HETATM    9  O   UNL     1      -9.740   9.048  67.197  1.00  0.00    -0.159 OA 
BRANCH   9  10
HETATM   10  C   UNL     1     -10.299  10.217  66.788  1.00  0.00    -0.222 C  
HETATM   11  O   UNL     1     -10.141  10.727  65.690  1.00  0.00    -0.244 OA 
HETATM   12  C   UNL     1     -11.201  10.773  67.851  1.00  0.00    -0.386 C  
ENDBRANCH   9  10
ENDBRANCH   7   9
BRANCH   8  13
HETATM   13  C   UNL     1      -8.435   7.307  69.079  1.00  0.00    -0.129 C  
BRANCH  13  14
HETATM   14  N   UNL     1      -9.210   6.642  70.103  1.00  0.00    -0.155 NA 
HETATM   15  C   UNL     1      -9.007   5.378  70.583  1.00  0.00    -0.143 A  
HETATM   16  N   UNL     1      -9.937   5.034  71.452  1.00  0.00    -0.185 NA 
HETATM   17  C   UNL     1     -10.791   6.111  71.498  1.00  0.00    -0.261 A  
HETATM   18  C   UNL     1     -11.968   6.364  72.189  1.00  0.00    -0.298 A  
HETATM   19  N   UNL     1     -12.619   7.541  71.991  1.00  0.00    -0.272 NA 
HETATM   20  C   UNL     1     -12.104   8.428  71.121  1.00  0.00    -0.249 A  
HETATM   21  N   UNL     1     -10.959   8.305  70.433  1.00  0.00    -0.241 NA 
HETATM   22  N   UNL     1     -12.821   9.594  70.941  1.00  0.00    -0.523 NA 
HETATM   23  H2  UNL     1     -12.976  10.046  71.842  1.00  0.00     0.000 HD 
HETATM   24  H1  UNL     1     -12.431  10.267  70.280  1.00  0.00     0.000 HD 
HETATM   25  C   UNL     1     -10.361   7.123  70.661  1.00  0.00    -0.204 A  
ENDBRANCH  13  14
ENDBRANCH   8  13
ENDBRANCH   4   5
ENDBRANCH   2   4
TORSDOF 6
ENDMDL
MODEL      257
REMARK 921   NORMALIZED FREE ENERGY PREDICTED BY IDOCK:   -3.33 KCAL/MOL
REMARK 922        TOTAL FREE ENERGY PREDICTED BY IDOCK:   -5.50 KCAL/MOL
REMARK 923 INTER-LIGAND FREE ENERGY PREDICTED BY IDOCK:   -4.84 KCAL/MOL
REMARK 924 INTRA-LIGAND FREE ENERGY PREDICTED BY IDOCK:   -0.66 KCAL/MOL
REMARK 927      BINDING AFFINITY PREDICTED BY RF-SCORE:    0.00 PKD
ROOT
HETATM    1  C   UNL     1      -8.541   7.990  74.315  1.00  0.00    -0.191 C  
HETATM    2  C   UNL     1      -9.537   6.971  73.851  1.00  0.00    -0.263 C  
HETATM    3  O   UNL     1     -10.002   6.092  74.561  1.00  0.00    -0.245 OA 
ENDROOT
BRANCH   2   4
HETATM    4  O   UNL     1      -9.814   7.147  72.530  1.00  0.00    -0.152 OA 
BRANCH   4   5
HETATM    5  C   UNL     1     -10.809   8.142  72.233  1.00  0.00    -0.320 C  
HETATM    6  C   UNL     1     -10.522   8.861  70.899  1.00  0.00    -0.299 C  
HETATM    7  C   UNL     1     -11.557   9.994  70.727  1.00  0.00    -0.360 C  
HETATM    8  C   UNL     1     -10.499   7.840  69.734  1.00  0.00    -0.233 C  
BRANCH   7   9
HETATM    9  O   UNL     1     -11.379  10.756  69.522  1.00  0.00    -0.243 OA 
BRANCH   9  10
HETATM   10  C   UNL     1     -11.816  12.043  69.531  1.00  0.00    -0.326 C  
HETATM   11  O   UNL     1     -11.943  12.750  68.544  1.00  0.00    -0.308 OA 
HETATM   12  C   UNL     1     -12.190  12.466  70.922  1.00  0.00    -0.290 C  
ENDBRANCH   9  10
ENDBRANCH   7   9
BRANCH   8  13
HETATM   13  C   UNL     1     -10.110   8.440  68.382  1.00  0.00    -0.198 C  
BRANCH  13  14
HETATM   14  N   UNL     1      -9.360   7.529  67.547  1.00  0.00    -0.137 NA 
HETATM   15  C   UNL     1      -8.868   6.307  67.916  1.00  0.00    -0.112 A  
HETATM   16  N   UNL     1      -8.157   5.759  66.950  1.00  0.00    -0.102 NA 
HETATM   17  C   UNL     1      -8.163   6.690  65.937  1.00  0.00    -0.132 A  
HETATM   18  C   UNL     1      -7.580   6.731  64.679  1.00  0.00    -0.105 A  
HETATM   19  N   UNL     1      -7.744   7.834  63.902  1.00  0.00    -0.118 NA 
HETATM   20  C   UNL     1      -8.465   8.863  64.382  1.00  0.00    -0.153 A  
HETATM   21  N   UNL     1      -9.103   8.915  65.561  1.00  0.00    -0.207 NA 
HETATM   22  N   UNL     1      -8.576   9.967  63.561  1.00  0.00    -0.189 NA 
HETATM   23  H2  UNL     1      -8.942   9.685  62.652  1.00  0.00     0.000 HD 
HETATM   24  H1  UNL     1      -9.122  10.748  63.925  1.00  0.00     0.000 HD 
HETATM   25  C   UNL     1      -8.903   7.803  66.289  1.00  0.00    -0.160 A  
ENDBRANCH  13  14
ENDBRANCH   8  13
ENDBRANCH   4   5
ENDBRANCH   2   4
TORSDOF 6
ENDMDL
MODEL      258
REMARK 921   NORMALIZED FREE ENERGY PREDICTED BY IDOCK:   -3.32 KCAL/MOL
REMARK 922        TOTAL FREE ENERGY PREDICTED BY IDOCK:   -5.49 KCAL/MOL
REMARK 923 INTER-LIGAND FREE ENERGY PREDICTED BY IDOCK:   -4.60 KCAL/MOL
REMARK 924 INTRA-LIGAND FREE ENERGY PREDICTED BY IDOCK:   -0.89 KCAL/MOL
REMARK 927      BINDING AFFINITY PREDICTED BY RF-SCORE:    0.00 PKD
ROOT
HETATM    1  C   UNL     1      -9.284   4.222  64.343  1.00  0.00    -0.155 C  
HETATM    2  C   UNL     1      -8.661   4.756  65.597  1.00  0.00    -0.127 C  
HETATM    3  O   UNL     1      -7.733   4.220  66.185  1.00  0.00    -0.088 OA 
ENDROOT
BRANCH   2   4
HETATM    4  O   UNL     1      -9.298   5.891  65.995  1.00  0.00    -0.158 OA 
BRANCH   4   5
HETATM    5  C   UNL     1      -8.651   7.124  65.633  1.00  0.00    -0.107 C  
HETATM    6  C   UNL     1      -8.742   8.173  66.759  1.00  0.00    -0.145 C  
HETATM    7  C   UNL     1      -8.144   9.498  66.237  1.00  0.00    -0.111 C  
HETATM    8  C   UNL     1      -8.069   7.637  68.047  1.00  0.00    -0.123 C  
BRANCH   7   9
HETATM    9  O   UNL     1      -8.191  10.567  67.196  1.00  0.00    -0.121 OA 
BRANCH   9  10
HETATM   10  C   UNL     1      -8.993  11.625  66.907  1.00  0.00    -0.191 C  
HETATM   11  O   UNL     1      -9.436  11.893  65.801  1.00  0.00    -0.236 OA 
HETATM   12  C   UNL     1      -9.322  12.396  68.153  1.00  0.00    -0.209 C  
ENDBRANCH   9  10
ENDBRANCH   7   9
BRANCH   8  13
HETATM   13  C   UNL     1      -8.208   8.561  69.258  1.00  0.00    -0.115 C  
BRANCH  13  14
HETATM   14  N   UNL     1      -9.121   8.059  70.259  1.00  0.00    -0.147 NA 
HETATM   15  C   UNL     1      -9.110   6.810  70.816  1.00  0.00    -0.151 A  
HETATM   16  N   UNL     1     -10.127   6.635  71.636  1.00  0.00    -0.185 NA 
HETATM   17  C   UNL     1     -10.840   7.810  71.569  1.00  0.00    -0.227 A  
HETATM   18  C   UNL     1     -12.014   8.246  72.164  1.00  0.00    -0.369 A  
HETATM   19  N   UNL     1     -12.498   9.480  71.863  1.00  0.00    -0.384 NA 
HETATM   20  C   UNL     1     -11.823  10.244  70.986  1.00  0.00    -0.377 A  
HETATM   21  N   UNL     1     -10.663   9.941  70.385  1.00  0.00    -0.300 NA 
HETATM   22  N   UNL     1     -12.374  11.477  70.698  1.00  0.00    -0.373 NA 
HETATM   23  H2  UNL     1     -12.525  11.997  71.562  1.00  0.00     0.000 HD 
HETATM   24  H1  UNL     1     -11.862  12.057  70.032  1.00  0.00     0.000 HD 
HETATM   25  C   UNL     1     -10.234   8.710  70.713  1.00  0.00    -0.204 A  
ENDBRANCH  13  14
ENDBRANCH   8  13
ENDBRANCH   4   5
ENDBRANCH   2   4
TORSDOF 6
ENDMDL
MODEL      259
REMARK 921   NORMALIZED FREE ENERGY PREDICTED BY IDOCK:   -3.31 KCAL/MOL
REMARK 922        TOTAL FREE ENERGY PREDICTED BY IDOCK:   -5.47 KCAL/MOL
REMARK 923 INTER-LIGAND FREE ENERGY PREDICTED BY IDOCK:   -4.57 KCAL/MOL
REMARK 924 INTRA-LIGAND FREE ENERGY PREDICTED BY IDOCK:   -0.91 KCAL/MOL
REMARK 927      BINDING AFFINITY PREDICTED BY RF-SCORE:    0.00 PKD
ROOT
HETATM    1  C   UNL     1     -10.513   8.245  72.479  1.00  0.00    -0.406 C  
HETATM    2  C   UNL     1     -11.705   8.157  71.574  1.00  0.00    -0.286 C  
HETATM    3  O   UNL     1     -12.821   7.819  71.940  1.00  0.00    -0.313 OA 
ENDROOT
BRANCH   2   4
HETATM    4  O   UNL     1     -11.354   8.470  70.297  1.00  0.00    -0.232 OA 
BRANCH   4   5
HETATM    5  C   UNL     1     -10.479   9.602  70.155  1.00  0.00    -0.273 C  
HETATM    6  C   UNL     1      -9.288   9.295  69.224  1.00  0.00    -0.160 C  
HETATM    7  C   UNL     1      -8.337  10.512  69.235  1.00  0.00    -0.137 C  
HETATM    8  C   UNL     1      -9.797   8.899  67.815  1.00  0.00    -0.208 C  
BRANCH   7   9
HETATM    9  O   UNL     1      -7.171  10.336  68.416  1.00  0.00    -0.077 OA 
BRANCH   9  10
HETATM   10  C   UNL     1      -6.739  11.414  67.710  1.00  0.00    -0.070 C  
HETATM   11  O   UNL     1      -6.848  12.577  68.064  1.00  0.00    -0.075 OA 
HETATM   12  C   UNL     1      -6.039  10.979  66.455  1.00  0.00    -0.141 C  
ENDBRANCH   9  10
ENDBRANCH   7   9
BRANCH   8  13
HETATM   13  C   UNL     1      -8.694   8.464  66.850  1.00  0.00    -0.130 C  
BRANCH  13  14
HETATM   14  N   UNL     1      -8.189   7.136  67.119  1.00  0.00    -0.117 NA 
HETATM   15  C   UNL     1      -6.991   6.825  67.699  1.00  0.00    -0.083 A  
HETATM   16  N   UNL     1      -6.789   5.522  67.727  1.00  0.00    -0.062 NA 
HETATM   17  C   UNL     1      -7.888   4.982  67.101  1.00  0.00    -0.096 A  
HETATM   18  C   UNL     1      -8.264   3.684  66.788  1.00  0.00    -0.096 A  
HETATM   19  N   UNL     1      -9.425   3.468  66.115  1.00  0.00    -0.165 NA 
HETATM   20  C   UNL     1     -10.178   4.526  65.765  1.00  0.00    -0.265 A  
HETATM   21  N   UNL     1      -9.934   5.813  66.051  1.00  0.00    -0.015 NA 
HETATM   22  N   UNL     1     -11.333   4.249  65.062  1.00  0.00    -1.043 NA 
HETATM   23  H2  UNL     1     -11.901   3.579  65.582  1.00  0.00     0.000 HD 
HETATM   24  H1  UNL     1     -11.904   5.051  64.796  1.00  0.00     0.000 HD 
HETATM   25  C   UNL     1      -8.773   5.970  66.709  1.00  0.00    -0.119 A  
ENDBRANCH  13  14
ENDBRANCH   8  13
ENDBRANCH   4   5
ENDBRANCH   2   4
TORSDOF 6
ENDMDL
MODEL      260
REMARK 921   NORMALIZED FREE ENERGY PREDICTED BY IDOCK:   -3.30 KCAL/MOL
REMARK 922        TOTAL FREE ENERGY PREDICTED BY IDOCK:   -5.47 KCAL/MOL
REMARK 923 INTER-LIGAND FREE ENERGY PREDICTED BY IDOCK:   -4.64 KCAL/MOL
REMARK 924 INTRA-LIGAND FREE ENERGY PREDICTED BY IDOCK:   -0.83 KCAL/MOL
REMARK 927      BINDING AFFINITY PREDICTED BY RF-SCORE:    0.00 PKD
ROOT
HETATM    1  C   UNL     1     -11.929  11.823  68.990  1.00  0.00    -0.341 C  
HETATM    2  C   UNL     1     -11.963  10.699  69.981  1.00  0.00    -0.329 C  
HETATM    3  O   UNL     1     -12.956  10.372  70.615  1.00  0.00    -0.368 OA 
ENDROOT
BRANCH   2   4
HETATM    4  O   UNL     1     -10.732  10.129  70.094  1.00  0.00    -0.273 OA 
BRANCH   4   5
HETATM    5  C   UNL     1     -10.376   9.212  69.046  1.00  0.00    -0.215 C  
HETATM    6  C   UNL     1      -9.509   9.886  67.963  1.00  0.00    -0.147 C  
HETATM    7  C   UNL     1      -9.286   8.872  66.819  1.00  0.00    -0.175 C  
HETATM    8  C   UNL     1      -8.202  10.436  68.587  1.00  0.00    -0.121 C  
BRANCH   7   9
HETATM    9  O   UNL     1      -8.505   9.394  65.733  1.00  0.00    -0.124 OA 
BRANCH   9  10
HETATM   10  C   UNL     1      -9.181   9.914  64.675  1.00  0.00    -0.258 C  
HETATM   11  O   UNL     1     -10.370  10.192  64.667  1.00  0.00    -0.198 OA 
HETATM   12  C   UNL     1      -8.249  10.168  63.525  1.00  0.00    -0.165 C  
ENDBRANCH   9  10
ENDBRANCH   7   9
BRANCH   8  13
HETATM   13  C   UNL     1      -7.326  11.224  67.613  1.00  0.00    -0.100 C  
BRANCH  13  14
HETATM   14  N   UNL     1      -7.323  12.647  67.869  1.00  0.00    -0.102 NA 
HETATM   15  C   UNL     1      -6.498  13.316  68.730  1.00  0.00    -0.099 A  
HETATM   16  N   UNL     1      -6.805  14.596  68.800  1.00  0.00    -0.089 NA 
HETATM   17  C   UNL     1      -7.898  14.741  67.979  1.00  0.00    -0.130 A  
HETATM   18  C   UNL     1      -8.702  15.822  67.646  1.00  0.00    -0.170 A  
HETATM   19  N   UNL     1      -9.759  15.637  66.811  1.00  0.00    -0.234 NA 
HETATM   20  C   UNL     1     -10.000  14.402  66.335  1.00  0.00    -0.294 A  
HETATM   21  N   UNL     1      -9.269  13.300  66.556  1.00  0.00    -0.215 NA 
HETATM   22  N   UNL     1     -11.101  14.268  65.513  1.00  0.00    -0.313 NA 
HETATM   23  H2  UNL     1     -11.036  14.929  64.739  1.00  0.00     0.000 HD 
HETATM   24  H1  UNL     1     -11.284  13.332  65.152  1.00  0.00     0.000 HD 
HETATM   25  C   UNL     1      -8.243  13.538  67.391  1.00  0.00    -0.181 A  
ENDBRANCH  13  14
ENDBRANCH   8  13
ENDBRANCH   4   5
ENDBRANCH   2   4
TORSDOF 6
ENDMDL
MODEL      261
REMARK 921   NORMALIZED FREE ENERGY PREDICTED BY IDOCK:   -3.29 KCAL/MOL
REMARK 922        TOTAL FREE ENERGY PREDICTED BY IDOCK:   -5.45 KCAL/MOL
REMARK 923 INTER-LIGAND FREE ENERGY PREDICTED BY IDOCK:   -4.68 KCAL/MOL
REMARK 924 INTRA-LIGAND FREE ENERGY PREDICTED BY IDOCK:   -0.76 KCAL/MOL
REMARK 927      BINDING AFFINITY PREDICTED BY RF-SCORE:    0.00 PKD
ROOT
HETATM    1  C   UNL     1      -9.263   6.828  70.213  1.00  0.00    -0.156 C  
HETATM    2  C   UNL     1     -10.694   7.274  70.187  1.00  0.00    -0.244 C  
HETATM    3  O   UNL     1     -11.650   6.512  70.177  1.00  0.00    -0.396 OA 
ENDROOT
BRANCH   2   4
HETATM    4  O   UNL     1     -10.766   8.632  70.138  1.00  0.00    -0.228 OA 
BRANCH   4   5
HETATM    5  C   UNL     1      -9.505   9.322  70.191  1.00  0.00    -0.226 C  
HETATM    6  C   UNL     1      -9.262  10.171  68.928  1.00  0.00    -0.172 C  
HETATM    7  C   UNL     1      -7.838  10.766  69.010  1.00  0.00    -0.138 C  
HETATM    8  C   UNL     1     -10.383  11.229  68.768  1.00  0.00    -0.223 C  
BRANCH   7   9
HETATM    9  O   UNL     1      -7.484  11.566  67.872  1.00  0.00    -0.094 OA 
BRANCH   9  10
HETATM   10  C   UNL     1      -6.192  11.515  67.454  1.00  0.00    -0.090 C  
HETATM   11  O   UNL     1      -5.802  11.797  66.332  1.00  0.00    -0.212 OA 
HETATM   12  C   UNL     1      -5.285  11.126  68.587  1.00  0.00    -0.040 C  
ENDBRANCH   9  10
ENDBRANCH   7   9
BRANCH   8  13
HETATM   13  C   UNL     1     -10.293  12.048  67.480  1.00  0.00    -0.200 C  
BRANCH  13  14
HETATM   14  N   UNL     1     -10.766  13.406  67.633  1.00  0.00    -0.245 NA 
HETATM   15  C   UNL     1     -11.992  13.885  67.262  1.00  0.00    -0.411 A  
HETATM   16  N   UNL     1     -12.083  15.186  67.457  1.00  0.00     0.027 NA 
HETATM   17  C   UNL     1     -10.848  15.558  67.936  1.00  0.00    -0.307 A  
HETATM   18  C   UNL     1     -10.297  16.777  68.303  1.00  0.00    -0.319 A  
HETATM   19  N   UNL     1      -9.003  16.829  68.714  1.00  0.00    -0.257 NA 
HETATM   20  C   UNL     1      -8.287  15.690  68.747  1.00  0.00    -0.189 A  
HETATM   21  N   UNL     1      -8.728  14.457  68.454  1.00  0.00    -0.176 NA 
HETATM   22  N   UNL     1      -6.971  15.806  69.148  1.00  0.00    -0.161 NA 
HETATM   23  H2  UNL     1      -6.927  16.266  70.057  1.00  0.00     0.000 HD 
HETATM   24  H1  UNL     1      -6.428  14.943  69.172  1.00  0.00     0.000 HD 
HETATM   25  C   UNL     1     -10.009  14.465  68.049  1.00  0.00    -0.225 A  
ENDBRANCH  13  14
ENDBRANCH   8  13
ENDBRANCH   4   5
ENDBRANCH   2   4
TORSDOF 6
ENDMDL
MODEL      262
REMARK 921   NORMALIZED FREE ENERGY PREDICTED BY IDOCK:   -3.28 KCAL/MOL
REMARK 922        TOTAL FREE ENERGY PREDICTED BY IDOCK:   -5.44 KCAL/MOL
REMARK 923 INTER-LIGAND FREE ENERGY PREDICTED BY IDOCK:   -4.61 KCAL/MOL
REMARK 924 INTRA-LIGAND FREE ENERGY PREDICTED BY IDOCK:   -0.83 KCAL/MOL
REMARK 927      BINDING AFFINITY PREDICTED BY RF-SCORE:    0.00 PKD
ROOT
HETATM    1  C   UNL     1     -10.613   2.206  73.991  1.00  0.00    -0.218 C  
HETATM    2  C   UNL     1      -9.525   2.304  72.964  1.00  0.00    -0.081 C  
HETATM    3  O   UNL     1      -8.331   2.283  73.224  1.00  0.00    -0.063 OA 
ENDROOT
BRANCH   2   4
HETATM    4  O   UNL     1     -10.059   2.455  71.721  1.00  0.00    -0.161 OA 
BRANCH   4   5
HETATM    5  C   UNL     1      -9.133   2.843  70.692  1.00  0.00    -0.122 C  
HETATM    6  C   UNL     1      -9.776   3.805  69.673  1.00  0.00    -0.177 C  
HETATM    7  C   UNL     1      -8.759   4.063  68.540  1.00  0.00    -0.099 C  
HETATM    8  C   UNL     1     -10.271   5.089  70.385  1.00  0.00    -0.324 C  
BRANCH   7   9
HETATM    9  O   UNL     1      -9.253   4.934  67.511  1.00  0.00    -0.115 OA 
BRANCH   9  10
HETATM   10  C   UNL     1      -9.343   4.424  66.255  1.00  0.00    -0.160 C  
HETATM   11  O   UNL     1     -10.228   4.676  65.453  1.00  0.00    -0.197 OA 
HETATM   12  C   UNL     1      -8.159   3.551  65.953  1.00  0.00    -0.093 C  
ENDBRANCH   9  10
ENDBRANCH   7   9
BRANCH   8  13
HETATM   13  C   UNL     1     -11.028   6.058  69.476  1.00  0.00    -0.397 C  
BRANCH  13  14
HETATM   14  N   UNL     1     -10.679   7.443  69.702  1.00  0.00    -0.239 NA 
HETATM   15  C   UNL     1     -10.743   8.113  70.892  1.00  0.00    -0.221 A  
HETATM   16  N   UNL     1     -10.438   9.388  70.749  1.00  0.00    -0.280 NA 
HETATM   17  C   UNL     1     -10.210   9.545  69.401  1.00  0.00    -0.206 A  
HETATM   18  C   UNL     1      -9.882  10.639  68.612  1.00  0.00    -0.179 A  
HETATM   19  N   UNL     1      -9.756  10.479  67.268  1.00  0.00    -0.166 NA 
HETATM   20  C   UNL     1      -9.960   9.260  66.738  1.00  0.00    -0.245 A  
HETATM   21  N   UNL     1     -10.240   8.131  67.407  1.00  0.00    -0.233 NA 
HETATM   22  N   UNL     1      -9.843   9.162  65.366  1.00  0.00    -0.424 NA 
HETATM   23  H2  UNL     1      -8.934   9.518  65.072  1.00  0.00     0.000 HD 
HETATM   24  H1  UNL     1      -9.999   8.238  64.964  1.00  0.00     0.000 HD 
HETATM   25  C   UNL     1     -10.360   8.347  68.728  1.00  0.00    -0.206 A  
ENDBRANCH  13  14
ENDBRANCH   8  13
ENDBRANCH   4   5
ENDBRANCH   2   4
TORSDOF 6
ENDMDL
MODEL      263
REMARK 921   NORMALIZED FREE ENERGY PREDICTED BY IDOCK:   -3.26 KCAL/MOL
REMARK 922        TOTAL FREE ENERGY PREDICTED BY IDOCK:   -5.41 KCAL/MOL
REMARK 923 INTER-LIGAND FREE ENERGY PREDICTED BY IDOCK:   -4.67 KCAL/MOL
REMARK 924 INTRA-LIGAND FREE ENERGY PREDICTED BY IDOCK:   -0.74 KCAL/MOL
REMARK 927      BINDING AFFINITY PREDICTED BY RF-SCORE:    0.00 PKD
ROOT
HETATM    1  C   UNL     1     -11.531  12.402  66.515  1.00  0.00    -0.427 C  
HETATM    2  C   UNL     1     -11.409  11.554  67.746  1.00  0.00    -0.296 C  
HETATM    3  O   UNL     1     -12.352  11.234  68.455  1.00  0.00    -0.545 OA 
ENDROOT
BRANCH   2   4
HETATM    4  O   UNL     1     -10.107  11.230  67.972  1.00  0.00    -0.169 OA 
BRANCH   4   5
HETATM    5  C   UNL     1      -9.832  10.622  69.246  1.00  0.00    -0.180 C  
HETATM    6  C   UNL     1      -9.687   9.091  69.133  1.00  0.00    -0.167 C  
HETATM    7  C   UNL     1      -9.527   8.512  70.556  1.00  0.00    -0.170 C  
HETATM    8  C   UNL     1      -8.530   8.731  68.167  1.00  0.00    -0.130 C  
BRANCH   7   9
HETATM    9  O   UNL     1      -9.404   7.082  70.583  1.00  0.00    -0.161 OA 
BRANCH   9  10
HETATM   10  C   UNL     1     -10.465   6.376  71.052  1.00  0.00    -0.223 C  
HETATM   11  O   UNL     1     -10.574   5.937  72.187  1.00  0.00    -0.204 OA 
HETATM   12  C   UNL     1     -11.531   6.260  70.001  1.00  0.00    -0.460 C  
ENDBRANCH   9  10
ENDBRANCH   7   9
BRANCH   8  13
HETATM   13  C   UNL     1      -8.379   7.234  67.899  1.00  0.00    -0.119 C  
BRANCH  13  14
HETATM   14  N   UNL     1      -8.157   6.922  66.505  1.00  0.00    -0.108 NA 
HETATM   15  C   UNL     1      -7.768   7.797  65.529  1.00  0.00    -0.100 A  
HETATM   16  N   UNL     1      -7.736   7.220  64.344  1.00  0.00    -0.115 NA 
HETATM   17  C   UNL     1      -8.163   5.931  64.569  1.00  0.00    -0.110 A  
HETATM   18  C   UNL     1      -8.376   4.840  63.739  1.00  0.00    -0.124 A  
HETATM   19  N   UNL     1      -8.848   3.680  64.268  1.00  0.00    -0.104 NA 
HETATM   20  C   UNL     1      -9.102   3.626  65.587  1.00  0.00    -0.150 A  
HETATM   21  N   UNL     1      -8.896   4.600  66.485  1.00  0.00    -0.111 NA 
HETATM   22  N   UNL     1      -9.604   2.431  66.064  1.00  0.00    -0.355 NA 
HETATM   23  H2  UNL     1      -8.982   1.667  65.802  1.00  0.00     0.000 HD 
HETATM   24  H1  UNL     1      -9.797   2.390  67.065  1.00  0.00     0.000 HD 
HETATM   25  C   UNL     1      -8.436   5.724  65.909  1.00  0.00    -0.139 A  
ENDBRANCH  13  14
ENDBRANCH   8  13
ENDBRANCH   4   5
ENDBRANCH   2   4
TORSDOF 6
ENDMDL
MODEL      264
REMARK 921   NORMALIZED FREE ENERGY PREDICTED BY IDOCK:   -3.26 KCAL/MOL
REMARK 922        TOTAL FREE ENERGY PREDICTED BY IDOCK:   -5.41 KCAL/MOL
REMARK 923 INTER-LIGAND FREE ENERGY PREDICTED BY IDOCK:   -5.21 KCAL/MOL
REMARK 924 INTRA-LIGAND FREE ENERGY PREDICTED BY IDOCK:   -0.20 KCAL/MOL
REMARK 927      BINDING AFFINITY PREDICTED BY RF-SCORE:    0.00 PKD
ROOT
HETATM    1  C   UNL     1      -9.059   6.056  69.332  1.00  0.00    -0.135 C  
HETATM    2  C   UNL     1     -10.403   6.717  69.371  1.00  0.00    -0.199 C  
HETATM    3  O   UNL     1     -11.464   6.123  69.246  1.00  0.00    -0.404 OA 
ENDROOT
BRANCH   2   4
HETATM    4  O   UNL     1     -10.266   8.062  69.529  1.00  0.00    -0.199 OA 
BRANCH   4   5
HETATM    5  C   UNL     1      -9.079   8.634  68.954  1.00  0.00    -0.145 C  
HETATM    6  C   UNL     1      -9.242   8.901  67.444  1.00  0.00    -0.157 C  
HETATM    7  C   UNL     1      -7.886   9.388  66.888  1.00  0.00    -0.105 C  
HETATM    8  C   UNL     1     -10.418   9.879  67.196  1.00  0.00    -0.305 C  
BRANCH   7   9
HETATM    9  O   UNL     1      -7.906   9.651  65.476  1.00  0.00    -0.106 OA 
BRANCH   9  10
HETATM   10  C   UNL     1      -7.560   8.630  64.649  1.00  0.00    -0.111 C  
HETATM   11  O   UNL     1      -8.151   7.565  64.558  1.00  0.00    -0.135 OA 
HETATM   12  C   UNL     1      -6.380   9.012  63.802  1.00  0.00    -0.088 C  
ENDBRANCH   9  10
ENDBRANCH   7   9
BRANCH   8  13
HETATM   13  C   UNL     1     -10.734  10.118  65.719  1.00  0.00     0.185 C  
BRANCH  13  14
HETATM   14  N   UNL     1     -10.738  11.517  65.355  1.00  0.00    -0.285 NA 
HETATM   15  C   UNL     1     -10.228  12.059  64.208  1.00  0.00    -0.318 A  
HETATM   16  N   UNL     1     -10.312  13.375  64.214  1.00  0.00    -0.357 NA 
HETATM   17  C   UNL     1     -10.863  13.687  65.435  1.00  0.00    -0.301 A  
HETATM   18  C   UNL     1     -11.180  14.885  66.059  1.00  0.00    -0.327 A  
HETATM   19  N   UNL     1     -11.695  14.868  67.316  1.00  0.00    -0.338 NA 
HETATM   20  C   UNL     1     -11.878  13.683  67.926  1.00  0.00    -0.366 A  
HETATM   21  N   UNL     1     -11.646  12.469  67.405  1.00  0.00    -0.349 NA 
HETATM   22  N   UNL     1     -12.379  13.728  69.211  1.00  0.00    -0.367 NA 
HETATM   23  H2  UNL     1     -13.250  14.259  69.223  1.00  0.00     0.000 HD 
HETATM   24  H1  UNL     1     -12.518  12.829  69.674  1.00  0.00     0.000 HD 
HETATM   25  C   UNL     1     -11.133  12.544  66.165  1.00  0.00    -0.298 A  
ENDBRANCH  13  14
ENDBRANCH   8  13
ENDBRANCH   4   5
ENDBRANCH   2   4
TORSDOF 6
ENDMDL
MODEL      265
REMARK 921   NORMALIZED FREE ENERGY PREDICTED BY IDOCK:   -3.23 KCAL/MOL
REMARK 922        TOTAL FREE ENERGY PREDICTED BY IDOCK:   -5.37 KCAL/MOL
REMARK 923 INTER-LIGAND FREE ENERGY PREDICTED BY IDOCK:   -4.51 KCAL/MOL
REMARK 924 INTRA-LIGAND FREE ENERGY PREDICTED BY IDOCK:   -0.86 KCAL/MOL
REMARK 927      BINDING AFFINITY PREDICTED BY RF-SCORE:    0.00 PKD
ROOT
HETATM    1  C   UNL     1     -11.962  11.190  69.962  1.00  0.00    -0.447 C  
HETATM    2  C   UNL     1     -11.810  11.986  68.702  1.00  0.00    -0.311 C  
HETATM    3  O   UNL     1     -11.528  13.175  68.670  1.00  0.00    -0.261 OA 
ENDROOT
BRANCH   2   4
HETATM    4  O   UNL     1     -12.066  11.208  67.615  1.00  0.00    -0.537 OA 
BRANCH   4   5
HETATM    5  C   UNL     1     -11.144  11.350  66.521  1.00  0.00    -0.251 C  
HETATM    6  C   UNL     1      -9.847  10.550  66.754  1.00  0.00    -0.237 C  
HETATM    7  C   UNL     1      -8.869  10.864  65.601  1.00  0.00    -0.190 C  
HETATM    8  C   UNL     1     -10.168   9.043  66.921  1.00  0.00    -0.339 C  
BRANCH   7   9
HETATM    9  O   UNL     1      -7.606  10.189  65.719  1.00  0.00    -0.121 OA 
BRANCH   9  10
HETATM   10  C   UNL     1      -6.641  10.801  66.453  1.00  0.00    -0.128 C  
HETATM   11  O   UNL     1      -6.689  11.951  66.862  1.00  0.00    -0.138 OA 
HETATM   12  C   UNL     1      -5.521   9.847  66.756  1.00  0.00    -0.045 C  
ENDBRANCH   9  10
ENDBRANCH   7   9
BRANCH   8  13
HETATM   13  C   UNL     1      -8.957   8.178  67.271  1.00  0.00    -0.137 C  
BRANCH  13  14
HETATM   14  N   UNL     1      -9.294   7.014  68.059  1.00  0.00    -0.128 NA 
HETATM   15  C   UNL     1      -9.615   6.998  69.388  1.00  0.00    -0.155 A  
HETATM   16  N   UNL     1      -9.788   5.768  69.830  1.00  0.00    -0.169 NA 
HETATM   17  C   UNL     1      -9.527   4.964  68.745  1.00  0.00    -0.145 A  
HETATM   18  C   UNL     1      -9.509   3.589  68.562  1.00  0.00    -0.141 A  
HETATM   19  N   UNL     1      -9.169   3.081  67.347  1.00  0.00    -0.183 NA 
HETATM   20  C   UNL     1      -8.853   3.932  66.355  1.00  0.00    -0.125 A  
HETATM   21  N   UNL     1      -8.877   5.271  66.408  1.00  0.00    -0.120 NA 
HETATM   22  N   UNL     1      -8.492   3.360  65.151  1.00  0.00    -0.098 NA 
HETATM   23  H2  UNL     1      -9.225   2.723  64.839  1.00  0.00     0.000 HD 
HETATM   24  H1  UNL     1      -8.251   4.005  64.398  1.00  0.00     0.000 HD 
HETATM   25  C   UNL     1      -9.212   5.719  67.631  1.00  0.00    -0.105 A  
ENDBRANCH  13  14
ENDBRANCH   8  13
ENDBRANCH   4   5
ENDBRANCH   2   4
TORSDOF 6
ENDMDL
MODEL      266
REMARK 921   NORMALIZED FREE ENERGY PREDICTED BY IDOCK:   -3.18 KCAL/MOL
REMARK 922        TOTAL FREE ENERGY PREDICTED BY IDOCK:   -5.31 KCAL/MOL
REMARK 923 INTER-LIGAND FREE ENERGY PREDICTED BY IDOCK:   -4.87 KCAL/MOL
REMARK 924 INTRA-LIGAND FREE ENERGY PREDICTED BY IDOCK:   -0.44 KCAL/MOL
REMARK 927      BINDING AFFINITY PREDICTED BY RF-SCORE:    0.00 PKD
ROOT
HETATM    1  C   UNL     1      -8.319   8.135  71.511  1.00  0.00    -0.155 C  
HETATM    2  C   UNL     1      -9.733   8.221  71.021  1.00  0.00    -0.163 C  
HETATM    3  O   UNL     1     -10.445   9.206  71.148  1.00  0.00    -0.261 OA 
ENDROOT
BRANCH   2   4
HETATM    4  O   UNL     1     -10.111   7.042  70.456  1.00  0.00    -0.190 OA 
BRANCH   4   5
HETATM    5  C   UNL     1      -9.038   6.215  69.972  1.00  0.00    -0.147 C  
HETATM    6  C   UNL     1      -9.019   6.140  68.432  1.00  0.00    -0.115 C  
HETATM    7  C   UNL     1      -7.927   5.134  68.008  1.00  0.00    -0.091 C  
HETATM    8  C   UNL     1      -8.846   7.556  67.828  1.00  0.00    -0.132 C  
BRANCH   7   9
HETATM    9  O   UNL     1      -7.827   4.960  66.586  1.00  0.00    -0.098 OA 
BRANCH   9  10
HETATM   10  C   UNL     1      -7.363   3.765  66.138  1.00  0.00    -0.072 C  
HETATM   11  O   UNL     1      -6.188   3.492  65.944  1.00  0.00    -0.030 OA 
HETATM   12  C   UNL     1      -8.491   2.787  65.973  1.00  0.00    -0.103 C  
ENDBRANCH   9  10
ENDBRANCH   7   9
BRANCH   8  13
HETATM   13  C   UNL     1      -8.930   7.602  66.302  1.00  0.00    -0.169 C  
BRANCH  13  14
HETATM   14  N   UNL     1      -9.244   8.915  65.785  1.00  0.00    -0.223 NA 
HETATM   15  C   UNL     1      -8.649   9.532  64.720  1.00  0.00    -0.176 A  
HETATM   16  N   UNL     1      -9.102  10.760  64.555  1.00  0.00    -0.204 NA 
HETATM   17  C   UNL     1      -9.995  10.946  65.585  1.00  0.00    -0.251 A  
HETATM   18  C   UNL     1     -10.779  12.020  65.982  1.00  0.00    -0.279 A  
HETATM   19  N   UNL     1     -11.554  11.906  67.093  1.00  0.00    -0.519 NA 
HETATM   20  C   UNL     1     -11.533  10.751  67.783  1.00  0.00    -0.202 A  
HETATM   21  N   UNL     1     -10.849   9.641  67.468  1.00  0.00    -0.260 NA 
HETATM   22  N   UNL     1     -12.320  10.701  68.916  1.00  0.00    -0.790 NA 
HETATM   23  H2  UNL     1     -13.282  10.943  68.679  1.00  0.00     0.000 HD 
HETATM   24  H1  UNL     1     -12.304   9.826  69.439  1.00  0.00     0.000 HD 
HETATM   25  C   UNL     1     -10.097   9.811  66.367  1.00  0.00    -0.243 A  
ENDBRANCH  13  14
ENDBRANCH   8  13
ENDBRANCH   4   5
ENDBRANCH   2   4
TORSDOF 6
ENDMDL
MODEL      267
REMARK 921   NORMALIZED FREE ENERGY PREDICTED BY IDOCK:   -3.15 KCAL/MOL
REMARK 922        TOTAL FREE ENERGY PREDICTED BY IDOCK:   -5.27 KCAL/MOL
REMARK 923 INTER-LIGAND FREE ENERGY PREDICTED BY IDOCK:   -4.24 KCAL/MOL
REMARK 924 INTRA-LIGAND FREE ENERGY PREDICTED BY IDOCK:   -1.03 KCAL/MOL
REMARK 927      BINDING AFFINITY PREDICTED BY RF-SCORE:    0.00 PKD
ROOT
HETATM    1  C   UNL     1      -9.571  14.674  69.520  1.00  0.00     0.140 C  
HETATM    2  C   UNL     1     -10.044  14.904  68.116  1.00  0.00    -0.222 C  
HETATM    3  O   UNL     1      -9.535  15.701  67.342  1.00  0.00    -0.213 OA 
ENDROOT
BRANCH   2   4
HETATM    4  O   UNL     1     -11.132  14.130  67.850  1.00  0.00    -0.255 OA 
BRANCH   4   5
HETATM    5  C   UNL     1     -11.159  13.528  66.544  1.00  0.00    -0.300 C  
HETATM    6  C   UNL     1     -10.582  12.098  66.558  1.00  0.00    -0.269 C  
HETATM    7  C   UNL     1     -10.528  11.583  65.103  1.00  0.00    -0.286 C  
HETATM    8  C   UNL     1     -11.399  11.200  67.520  1.00  0.00    -0.351 C  
BRANCH   7   9
HETATM    9  O   UNL     1      -9.984  10.259  64.984  1.00  0.00    -0.306 OA 
BRANCH   9  10
HETATM   10  C   UNL     1      -9.075  10.047  63.996  1.00  0.00    -0.257 C  
HETATM   11  O   UNL     1      -9.344   9.743  62.845  1.00  0.00    -0.273 OA 
HETATM   12  C   UNL     1      -7.682  10.304  64.495  1.00  0.00    -0.107 C  
ENDBRANCH   9  10
ENDBRANCH   7   9
BRANCH   8  13
HETATM   13  C   UNL     1     -10.836   9.789  67.691  1.00  0.00    -0.239 C  
BRANCH  13  14
HETATM   14  N   UNL     1     -10.020   9.639  68.875  1.00  0.00    -0.172 NA 
HETATM   15  C   UNL     1     -10.461   9.624  70.169  1.00  0.00    -0.273 A  
HETATM   16  N   UNL     1      -9.459   9.557  71.023  1.00  0.00    -0.182 NA 
HETATM   17  C   UNL     1      -8.328   9.569  70.239  1.00  0.00    -0.195 A  
HETATM   18  C   UNL     1      -6.971   9.548  70.526  1.00  0.00    -0.123 A  
HETATM   19  N   UNL     1      -6.071   9.607  69.509  1.00  0.00    -0.039 NA 
HETATM   20  C   UNL     1      -6.527   9.691  68.246  1.00  0.00    -0.056 A  
HETATM   21  N   UNL     1      -7.809   9.677  67.853  1.00  0.00    -0.087 NA 
HETATM   22  N   UNL     1      -5.569   9.774  67.255  1.00  0.00    -0.046 NA 
HETATM   23  H2  UNL     1      -4.921   8.991  67.336  1.00  0.00     0.000 HD 
HETATM   24  H1  UNL     1      -5.914   9.839  66.297  1.00  0.00     0.000 HD 
HETATM   25  C   UNL     1      -8.653   9.624  68.897  1.00  0.00    -0.127 A  
ENDBRANCH  13  14
ENDBRANCH   8  13
ENDBRANCH   4   5
ENDBRANCH   2   4
TORSDOF 6
ENDMDL
MODEL      268
REMARK 921   NORMALIZED FREE ENERGY PREDICTED BY IDOCK:   -3.13 KCAL/MOL
REMARK 922        TOTAL FREE ENERGY PREDICTED BY IDOCK:   -5.24 KCAL/MOL
REMARK 923 INTER-LIGAND FREE ENERGY PREDICTED BY IDOCK:   -4.27 KCAL/MOL
REMARK 924 INTRA-LIGAND FREE ENERGY PREDICTED BY IDOCK:   -0.97 KCAL/MOL
REMARK 927      BINDING AFFINITY PREDICTED BY RF-SCORE:    0.00 PKD
ROOT
HETATM    1  C   UNL     1      -8.197   4.797  66.156  1.00  0.00    -0.107 C  
HETATM    2  C   UNL     1      -7.736   5.339  67.476  1.00  0.00    -0.096 C  
HETATM    3  O   UNL     1      -8.052   4.868  68.559  1.00  0.00    -0.084 OA 
ENDROOT
BRANCH   2   4
HETATM    4  O   UNL     1      -6.956   6.438  67.291  1.00  0.00    -0.067 OA 
BRANCH   4   5
HETATM    5  C   UNL     1      -7.640   7.609  66.809  1.00  0.00    -0.098 C  
HETATM    6  C   UNL     1      -8.617   8.175  67.859  1.00  0.00    -0.132 C  
HETATM    7  C   UNL     1      -9.398   9.342  67.214  1.00  0.00    -0.131 C  
HETATM    8  C   UNL     1      -7.853   8.561  69.150  1.00  0.00    -0.100 C  
BRANCH   7   9
HETATM    9  O   UNL     1     -10.362   9.942  68.093  1.00  0.00    -0.174 OA 
BRANCH   9  10
HETATM   10  C   UNL     1     -10.380  11.299  68.161  1.00  0.00    -0.186 C  
HETATM   11  O   UNL     1      -9.515  11.991  68.675  1.00  0.00    -0.163 OA 
HETATM   12  C   UNL     1     -11.586  11.848  67.454  1.00  0.00    -0.367 C  
ENDBRANCH   9  10
ENDBRANCH   7   9
BRANCH   8  13
HETATM   13  C   UNL     1      -8.753   9.028  70.295  1.00  0.00    -0.184 C  
BRANCH  13  14
HETATM   14  N   UNL     1      -9.166   7.955  71.172  1.00  0.00    -0.145 NA 
HETATM   15  C   UNL     1      -8.348   7.043  71.780  1.00  0.00    -0.110 A  
HETATM   16  N   UNL     1      -9.040   6.141  72.449  1.00  0.00    -0.137 NA 
HETATM   17  C   UNL     1     -10.356   6.469  72.223  1.00  0.00    -0.191 A  
HETATM   18  C   UNL     1     -11.560   5.903  72.618  1.00  0.00    -0.241 A  
HETATM   19  N   UNL     1     -12.728   6.453  72.193  1.00  0.00    -0.141 NA 
HETATM   20  C   UNL     1     -12.683   7.532  71.392  1.00  0.00    -0.348 A  
HETATM   21  N   UNL     1     -11.584   8.182  70.983  1.00  0.00    -0.280 NA 
HETATM   22  N   UNL     1     -13.899   8.032  70.971  1.00  0.00    -0.581 NA 
HETATM   23  H2  UNL     1     -14.490   8.228  71.778  1.00  0.00     0.000 HD 
HETATM   24  H1  UNL     1     -13.865   8.850  70.362  1.00  0.00     0.000 HD 
HETATM   25  C   UNL     1     -10.459   7.595  71.426  1.00  0.00    -0.208 A  
ENDBRANCH  13  14
ENDBRANCH   8  13
ENDBRANCH   4   5
ENDBRANCH   2   4
TORSDOF 6
ENDMDL
MODEL      269
REMARK 921   NORMALIZED FREE ENERGY PREDICTED BY IDOCK:   -3.13 KCAL/MOL
REMARK 922        TOTAL FREE ENERGY PREDICTED BY IDOCK:   -5.23 KCAL/MOL
REMARK 923 INTER-LIGAND FREE ENERGY PREDICTED BY IDOCK:   -4.40 KCAL/MOL
REMARK 924 INTRA-LIGAND FREE ENERGY PREDICTED BY IDOCK:   -0.83 KCAL/MOL
REMARK 927      BINDING AFFINITY PREDICTED BY RF-SCORE:    0.00 PKD
ROOT
HETATM    1  C   UNL     1     -13.396  10.371  72.132  1.00  0.00    -0.374 C  
HETATM    2  C   UNL     1     -12.785  11.289  71.117  1.00  0.00    -0.390 C  
HETATM    3  O   UNL     1     -12.561  12.475  71.310  1.00  0.00    -0.345 OA 
ENDROOT
BRANCH   2   4
HETATM    4  O   UNL     1     -12.555  10.622  69.953  1.00  0.00    -0.277 OA 
BRANCH   4   5
HETATM    5  C   UNL     1     -11.264  10.843  69.358  1.00  0.00    -0.272 C  
HETATM    6  C   UNL     1     -10.211   9.848  69.884  1.00  0.00    -0.298 C  
HETATM    7  C   UNL     1      -8.837  10.240  69.297  1.00  0.00    -0.177 C  
HETATM    8  C   UNL     1     -10.643   8.394  69.571  1.00  0.00    -0.217 C  
BRANCH   7   9
HETATM    9  O   UNL     1      -7.763   9.394  69.734  1.00  0.00    -0.087 OA 
BRANCH   9  10
HETATM   10  C   UNL     1      -6.673   9.306  68.928  1.00  0.00    -0.052 C  
HETATM   11  O   UNL     1      -5.513   9.312  69.308  1.00  0.00    -0.035 OA 
HETATM   12  C   UNL     1      -7.088   9.131  67.495  1.00  0.00    -0.079 C  
ENDBRANCH   9  10
ENDBRANCH   7   9
BRANCH   8  13
HETATM   13  C   UNL     1      -9.717   7.325  70.155  1.00  0.00    -0.172 C  
BRANCH  13  14
HETATM   14  N   UNL     1      -9.965   7.056  71.553  1.00  0.00    -0.180 NA 
HETATM   15  C   UNL     1     -10.787   7.767  72.384  1.00  0.00    -0.303 A  
HETATM   16  N   UNL     1     -10.730   7.318  73.622  1.00  0.00    -0.337 NA 
HETATM   17  C   UNL     1      -9.802   6.303  73.587  1.00  0.00    -0.190 A  
HETATM   18  C   UNL     1      -9.276   5.460  74.555  1.00  0.00    -0.124 A  
HETATM   19  N   UNL     1      -8.321   4.557  74.207  1.00  0.00    -0.098 NA 
HETATM   20  C   UNL     1      -7.907   4.512  72.928  1.00  0.00    -0.088 A  
HETATM   21  N   UNL     1      -8.373   5.247  71.908  1.00  0.00    -0.120 NA 
HETATM   22  N   UNL     1      -6.918   3.594  72.638  1.00  0.00    -0.042 NA 
HETATM   23  H2  UNL     1      -7.211   2.664  72.938  1.00  0.00     0.000 HD 
HETATM   24  H1  UNL     1      -6.603   3.559  71.668  1.00  0.00     0.000 HD 
HETATM   25  C   UNL     1      -9.308   6.125  72.308  1.00  0.00    -0.146 A  
ENDBRANCH  13  14
ENDBRANCH   8  13
ENDBRANCH   4   5
ENDBRANCH   2   4
TORSDOF 6
ENDMDL
MODEL      270
REMARK 921   NORMALIZED FREE ENERGY PREDICTED BY IDOCK:   -3.10 KCAL/MOL
REMARK 922        TOTAL FREE ENERGY PREDICTED BY IDOCK:   -5.20 KCAL/MOL
REMARK 923 INTER-LIGAND FREE ENERGY PREDICTED BY IDOCK:   -5.48 KCAL/MOL
REMARK 924 INTRA-LIGAND FREE ENERGY PREDICTED BY IDOCK:    0.27 KCAL/MOL
REMARK 927      BINDING AFFINITY PREDICTED BY RF-SCORE:    0.00 PKD
ROOT
HETATM    1  C   UNL     1     -12.195  11.029  68.814  1.00  0.00    -0.029 C  
HETATM    2  C   UNL     1     -11.744  10.372  70.083  1.00  0.00    -0.312 C  
HETATM    3  O   UNL     1     -12.163  10.663  71.194  1.00  0.00    -0.349 OA 
ENDROOT
BRANCH   2   4
HETATM    4  O   UNL     1     -10.785   9.442  69.821  1.00  0.00    -0.220 OA 
BRANCH   4   5
HETATM    5  C   UNL     1      -9.440   9.828  70.154  1.00  0.00    -0.229 C  
HETATM    6  C   UNL     1      -8.650  10.285  68.912  1.00  0.00    -0.150 C  
HETATM    7  C   UNL     1      -7.189  10.552  69.337  1.00  0.00    -0.117 C  
HETATM    8  C   UNL     1      -9.348  11.497  68.247  1.00  0.00    -0.190 C  
BRANCH   7   9
HETATM    9  O   UNL     1      -6.342  10.966  68.254  1.00  0.00    -0.056 OA 
BRANCH   9  10
HETATM   10  C   UNL     1      -5.825   9.990  67.461  1.00  0.00    -0.049 C  
HETATM   11  O   UNL     1      -5.151   9.050  67.851  1.00  0.00    -0.034 OA 
HETATM   12  C   UNL     1      -6.251  10.186  66.035  1.00  0.00    -0.086 C  
ENDBRANCH   9  10
ENDBRANCH   7   9
BRANCH   8  13
HETATM   13  C   UNL     1      -8.702  11.954  66.938  1.00  0.00    -0.191 C  
BRANCH  13  14
HETATM   14  N   UNL     1      -8.654  13.391  66.796  1.00  0.00    -0.098 NA 
HETATM   15  C   UNL     1      -7.807  14.244  67.448  1.00  0.00    -0.187 A  
HETATM   16  N   UNL     1      -8.072  15.504  67.163  1.00  0.00    -0.197 NA 
HETATM   17  C   UNL     1      -9.162  15.453  66.324  1.00  0.00    -0.319 A  
HETATM   18  C   UNL     1      -9.931  16.426  65.702  1.00  0.00    -0.238 A  
HETATM   19  N   UNL     1     -10.993  16.052  64.941  1.00  0.00    -0.548 NA 
HETATM   20  C   UNL     1     -11.274  14.742  64.819  1.00  0.00    -0.385 A  
HETATM   21  N   UNL     1     -10.578  13.721  65.339  1.00  0.00    -0.307 NA 
HETATM   22  N   UNL     1     -12.379  14.423  64.055  1.00  0.00    -0.931 NA 
HETATM   23  H2  UNL     1     -12.293  14.844  63.131  1.00  0.00     0.000 HD 
HETATM   24  H1  UNL     1     -12.593  13.430  63.963  1.00  0.00     0.000 HD 
HETATM   25  C   UNL     1      -9.544  14.146  66.085  1.00  0.00    -0.254 A  
ENDBRANCH  13  14
ENDBRANCH   8  13
ENDBRANCH   4   5
ENDBRANCH   2   4
TORSDOF 6
ENDMDL
MODEL      271
REMARK 921   NORMALIZED FREE ENERGY PREDICTED BY IDOCK:   -3.06 KCAL/MOL
REMARK 922        TOTAL FREE ENERGY PREDICTED BY IDOCK:   -5.15 KCAL/MOL
REMARK 923 INTER-LIGAND FREE ENERGY PREDICTED BY IDOCK:   -4.10 KCAL/MOL
REMARK 924 INTRA-LIGAND FREE ENERGY PREDICTED BY IDOCK:   -1.05 KCAL/MOL
REMARK 927      BINDING AFFINITY PREDICTED BY RF-SCORE:    0.00 PKD
ROOT
HETATM    1  C   UNL     1     -13.351  10.416  72.066  1.00  0.00    -0.440 C  
HETATM    2  C   UNL     1     -12.659  11.238  71.020  1.00  0.00    -0.394 C  
HETATM    3  O   UNL     1     -12.430  12.433  71.127  1.00  0.00    -0.343 OA 
ENDROOT
BRANCH   2   4
HETATM    4  O   UNL     1     -12.362  10.471  69.935  1.00  0.00    -0.271 OA 
BRANCH   4   5
HETATM    5  C   UNL     1     -10.963  10.362  69.619  1.00  0.00    -0.277 C  
HETATM    6  C   UNL     1     -10.230   9.405  70.580  1.00  0.00    -0.332 C  
HETATM    7  C   UNL     1      -8.721   9.451  70.252  1.00  0.00    -0.230 C  
HETATM    8  C   UNL     1     -10.852   7.989  70.506  1.00  0.00    -0.241 C  
BRANCH   7   9
HETATM    9  O   UNL     1      -7.923   8.611  71.101  1.00  0.00    -0.112 OA 
BRANCH   9  10
HETATM   10  C   UNL     1      -6.750   8.150  70.594  1.00  0.00    -0.037 C  
HETATM   11  O   UNL     1      -6.493   6.979  70.363  1.00  0.00    -0.041 OA 
HETATM   12  C   UNL     1      -5.823   9.291  70.286  1.00  0.00    -0.036 C  
ENDBRANCH   9  10
ENDBRANCH   7   9
BRANCH   8  13
HETATM   13  C   UNL     1     -10.267   6.993  71.507  1.00  0.00    -0.198 C  
BRANCH  13  14
HETATM   14  N   UNL     1      -9.853   5.748  70.901  1.00  0.00    -0.173 NA 
HETATM   15  C   UNL     1     -10.360   5.194  69.757  1.00  0.00    -0.262 A  
HETATM   16  N   UNL     1      -9.830   4.011  69.515  1.00  0.00    -0.150 NA 
HETATM   17  C   UNL     1      -8.978   3.784  70.571  1.00  0.00    -0.092 A  
HETATM   18  C   UNL     1      -8.154   2.724  70.919  1.00  0.00    -0.049 A  
HETATM   19  N   UNL     1      -7.441   2.782  72.075  1.00  0.00    -0.046 NA 
HETATM   20  C   UNL     1      -7.562   3.870  72.856  1.00  0.00    -0.074 A  
HETATM   21  N   UNL     1      -8.293   4.965  72.599  1.00  0.00    -0.115 NA 
HETATM   22  N   UNL     1      -6.835   3.864  74.030  1.00  0.00    -0.052 NA 
HETATM   23  H2  UNL     1      -5.850   3.695  73.825  1.00  0.00     0.000 HD 
HETATM   24  H1  UNL     1      -6.926   4.689  74.623  1.00  0.00     0.000 HD 
HETATM   25  C   UNL     1      -8.980   4.852  71.450  1.00  0.00    -0.134 A  
ENDBRANCH  13  14
ENDBRANCH   8  13
ENDBRANCH   4   5
ENDBRANCH   2   4
TORSDOF 6
ENDMDL
MODEL      272
REMARK 921   NORMALIZED FREE ENERGY PREDICTED BY IDOCK:   -3.06 KCAL/MOL
REMARK 922        TOTAL FREE ENERGY PREDICTED BY IDOCK:   -5.14 KCAL/MOL
REMARK 923 INTER-LIGAND FREE ENERGY PREDICTED BY IDOCK:   -5.24 KCAL/MOL
REMARK 924 INTRA-LIGAND FREE ENERGY PREDICTED BY IDOCK:    0.10 KCAL/MOL
REMARK 927      BINDING AFFINITY PREDICTED BY RF-SCORE:    0.00 PKD
ROOT
HETATM    1  C   UNL     1      -8.347  12.817  67.996  1.00  0.00    -0.173 C  
HETATM    2  C   UNL     1      -8.710  13.680  66.826  1.00  0.00    -0.082 C  
HETATM    3  O   UNL     1      -7.963  14.509  66.326  1.00  0.00     0.717 OA 
ENDROOT
BRANCH   2   4
HETATM    4  O   UNL     1      -9.989  13.432  66.432  1.00  0.00    -0.279 OA 
BRANCH   4   5
HETATM    5  C   UNL     1     -11.005  13.726  67.407  1.00  0.00    -0.284 C  
HETATM    6  C   UNL     1     -10.624  14.933  68.287  1.00  0.00    -0.240 C  
HETATM    7  C   UNL     1     -11.701  15.093  69.383  1.00  0.00    -0.332 C  
HETATM    8  C   UNL     1     -10.420  16.194  67.410  1.00  0.00    -0.310 C  
BRANCH   7   9
HETATM    9  O   UNL     1     -11.445  16.181  70.286  1.00  0.00    -0.346 OA 
BRANCH   9  10
HETATM   10  C   UNL     1     -11.975  16.091  71.534  1.00  0.00    -0.475 C  
HETATM   11  O   UNL     1     -11.450  16.507  72.554  1.00  0.00    -0.244 OA 
HETATM   12  C   UNL     1     -13.339  15.465  71.485  1.00  0.00    -0.586 C  
ENDBRANCH   9  10
ENDBRANCH   7   9
BRANCH   8  13
HETATM   13  C   UNL     1      -9.929  17.421  68.179  1.00  0.00    -0.308 C  
BRANCH  13  14
HETATM   14  N   UNL     1      -8.800  18.073  67.554  1.00  0.00    -0.250 NA 
HETATM   15  C   UNL     1      -8.418  17.959  66.245  1.00  0.00    -0.185 A  
HETATM   16  N   UNL     1      -7.298  18.612  66.008  1.00  0.00    -0.349 NA 
HETATM   17  C   UNL     1      -6.928  19.131  67.227  1.00  0.00    -0.199 A  
HETATM   18  C   UNL     1      -5.843  19.884  67.652  1.00  0.00    -0.182 A  
HETATM   19  N   UNL     1      -5.737  20.222  68.964  1.00  0.00    -0.267 NA 
HETATM   20  C   UNL     1      -6.690  19.809  69.819  1.00  0.00    -0.279 A  
HETATM   21  N   UNL     1      -7.796  19.116  69.513  1.00  0.00     0.053 NA 
HETATM   22  N   UNL     1      -6.517  20.160  71.143  1.00  0.00    -0.338 NA 
HETATM   23  H2  UNL     1      -6.401  21.171  71.219  1.00  0.00     0.000 HD 
HETATM   24  H1  UNL     1      -7.239  19.847  71.792  1.00  0.00     0.000 HD 
HETATM   25  C   UNL     1      -7.847  18.803  68.207  1.00  0.00    -0.305 A  
ENDBRANCH  13  14
ENDBRANCH   8  13
ENDBRANCH   4   5
ENDBRANCH   2   4
TORSDOF 6
ENDMDL
MODEL      273
REMARK 921   NORMALIZED FREE ENERGY PREDICTED BY IDOCK:   -3.00 KCAL/MOL
REMARK 922        TOTAL FREE ENERGY PREDICTED BY IDOCK:   -5.07 KCAL/MOL
REMARK 923 INTER-LIGAND FREE ENERGY PREDICTED BY IDOCK:   -4.16 KCAL/MOL
REMARK 924 INTRA-LIGAND FREE ENERGY PREDICTED BY IDOCK:   -0.91 KCAL/MOL
REMARK 927      BINDING AFFINITY PREDICTED BY RF-SCORE:    0.00 PKD
ROOT
HETATM    1  C   UNL     1     -10.589  14.750  66.157  1.00  0.00    -0.314 C  
HETATM    2  C   UNL     1     -11.529  14.092  67.121  1.00  0.00    -0.352 C  
HETATM    3  O   UNL     1     -12.148  14.686  67.991  1.00  0.00    -0.286 OA 
ENDROOT
BRANCH   2   4
HETATM    4  O   UNL     1     -11.561  12.748  66.909  1.00  0.00    -0.327 OA 
BRANCH   4   5
HETATM    5  C   UNL     1     -10.467  12.215  66.143  1.00  0.00    -0.248 C  
HETATM    6  C   UNL     1      -9.636  11.202  66.956  1.00  0.00    -0.201 C  
HETATM    7  C   UNL     1      -8.414  10.785  66.109  1.00  0.00    -0.167 C  
HETATM    8  C   UNL     1     -10.528  10.018  67.409  1.00  0.00    -0.316 C  
BRANCH   7   9
HETATM    9  O   UNL     1      -7.547   9.852  66.772  1.00  0.00    -0.094 OA 
BRANCH   9  10
HETATM   10  C   UNL     1      -6.930   8.919  66.000  1.00  0.00    -0.084 C  
HETATM   11  O   UNL     1      -7.206   8.674  64.836  1.00  0.00    -0.082 OA 
HETATM   12  C   UNL     1      -5.807   8.267  66.753  1.00  0.00    -0.048 C  
ENDBRANCH   9  10
ENDBRANCH   7   9
BRANCH   8  13
HETATM   13  C   UNL     1      -9.822   9.014  68.320  1.00  0.00    -0.166 C  
BRANCH  13  14
HETATM   14  N   UNL     1      -9.940   7.647  67.864  1.00  0.00    -0.161 NA 
HETATM   15  C   UNL     1     -10.903   7.149  67.031  1.00  0.00    -0.312 A  
HETATM   16  N   UNL     1     -10.783   5.846  66.874  1.00  0.00    -0.312 NA 
HETATM   17  C   UNL     1      -9.721   5.492  67.674  1.00  0.00    -0.129 A  
HETATM   18  C   UNL     1      -9.114   4.279  67.969  1.00  0.00    -0.131 A  
HETATM   19  N   UNL     1      -8.078   4.247  68.849  1.00  0.00    -0.072 NA 
HETATM   20  C   UNL     1      -7.675   5.398  69.417  1.00  0.00    -0.085 A  
HETATM   21  N   UNL     1      -8.159   6.625  69.175  1.00  0.00    -0.115 NA 
HETATM   22  N   UNL     1      -6.636   5.302  70.322  1.00  0.00    -0.034 NA 
HETATM   23  H2  UNL     1      -5.841   4.836  69.885  1.00  0.00     0.000 HD 
HETATM   24  H1  UNL     1      -6.330   6.174  70.753  1.00  0.00     0.000 HD 
HETATM   25  C   UNL     1      -9.183   6.598  68.305  1.00  0.00    -0.121 A  
ENDBRANCH  13  14
ENDBRANCH   8  13
ENDBRANCH   4   5
ENDBRANCH   2   4
TORSDOF 6
ENDMDL
MODEL      274
REMARK 921   NORMALIZED FREE ENERGY PREDICTED BY IDOCK:   -3.00 KCAL/MOL
REMARK 922        TOTAL FREE ENERGY PREDICTED BY IDOCK:   -5.07 KCAL/MOL
REMARK 923 INTER-LIGAND FREE ENERGY PREDICTED BY IDOCK:   -4.27 KCAL/MOL
REMARK 924 INTRA-LIGAND FREE ENERGY PREDICTED BY IDOCK:   -0.80 KCAL/MOL
REMARK 927      BINDING AFFINITY PREDICTED BY RF-SCORE:    0.00 PKD
ROOT
HETATM    1  C   UNL     1     -10.474   8.908  72.007  1.00  0.00    -0.383 C  
HETATM    2  C   UNL     1     -11.449   9.636  71.131  1.00  0.00    -0.384 C  
HETATM    3  O   UNL     1     -12.147  10.567  71.507  1.00  0.00    -0.330 OA 
ENDROOT
BRANCH   2   4
HETATM    4  O   UNL     1     -11.466   9.091  69.885  1.00  0.00    -0.090 OA 
BRANCH   4   5
HETATM    5  C   UNL     1     -11.014   9.952  68.825  1.00  0.00    -0.179 C  
HETATM    6  C   UNL     1     -10.050   9.225  67.866  1.00  0.00    -0.246 C  
HETATM    7  C   UNL     1      -9.514  10.253  66.845  1.00  0.00    -0.169 C  
HETATM    8  C   UNL     1     -10.751   8.001  67.226  1.00  0.00    -0.280 C  
BRANCH   7   9
HETATM    9  O   UNL     1      -8.583   9.696  65.904  1.00  0.00    -0.128 OA 
BRANCH   9  10
HETATM   10  C   UNL     1      -8.717  10.067  64.604  1.00  0.00    -0.191 C  
HETATM   11  O   UNL     1      -7.831  10.027  63.764  1.00  0.00    -0.144 OA 
HETATM   12  C   UNL     1     -10.133  10.475  64.313  1.00  0.00    -0.380 C  
ENDBRANCH   9  10
ENDBRANCH   7   9
BRANCH   8  13
HETATM   13  C   UNL     1      -9.840   7.146  66.343  1.00  0.00    -0.046 C  
BRANCH  13  14
HETATM   14  N   UNL     1      -9.478   5.885  66.949  1.00  0.00    -0.130 NA 
HETATM   15  C   UNL     1      -8.978   5.703  68.209  1.00  0.00    -0.114 A  
HETATM   16  N   UNL     1      -8.669   4.440  68.431  1.00  0.00    -0.098 NA 
HETATM   17  C   UNL     1      -8.946   3.797  67.247  1.00  0.00    -0.140 A  
HETATM   18  C   UNL     1      -8.815   2.482  66.824  1.00  0.00    -0.131 A  
HETATM   19  N   UNL     1      -9.150   2.154  65.548  1.00  0.00    -0.120 NA 
HETATM   20  C   UNL     1      -9.596   3.120  64.726  1.00  0.00    -0.136 A  
HETATM   21  N   UNL     1      -9.800   4.408  65.039  1.00  0.00    -0.176 NA 
HETATM   22  N   UNL     1      -9.897   2.734  63.435  1.00  0.00    -0.105 NA 
HETATM   23  H2  UNL     1     -10.563   1.962  63.453  1.00  0.00     0.000 HD 
HETATM   24  H1  UNL     1     -10.235   3.467  62.811  1.00  0.00     0.000 HD 
HETATM   25  C   UNL     1      -9.447   4.679  66.307  1.00  0.00    -0.167 A  
ENDBRANCH  13  14
ENDBRANCH   8  13
ENDBRANCH   4   5
ENDBRANCH   2   4
TORSDOF 6
ENDMDL
MODEL      275
REMARK 921   NORMALIZED FREE ENERGY PREDICTED BY IDOCK:   -2.97 KCAL/MOL
REMARK 922        TOTAL FREE ENERGY PREDICTED BY IDOCK:   -5.02 KCAL/MOL
REMARK 923 INTER-LIGAND FREE ENERGY PREDICTED BY IDOCK:   -4.18 KCAL/MOL
REMARK 924 INTRA-LIGAND FREE ENERGY PREDICTED BY IDOCK:   -0.85 KCAL/MOL
REMARK 927      BINDING AFFINITY PREDICTED BY RF-SCORE:    0.00 PKD
ROOT
HETATM    1  C   UNL     1     -10.071  11.860  66.348  1.00  0.00    -0.241 C  
HETATM    2  C   UNL     1     -10.978  11.142  67.301  1.00  0.00    -0.296 C  
HETATM    3  O   UNL     1     -12.077  11.552  67.643  1.00  0.00    -0.623 OA 
ENDROOT
BRANCH   2   4
HETATM    4  O   UNL     1     -10.386  10.001  67.750  1.00  0.00    -0.186 OA 
BRANCH   4   5
HETATM    5  C   UNL     1     -10.812   9.552  69.048  1.00  0.00    -0.160 C  
HETATM    6  C   UNL     1     -10.506   8.057  69.268  1.00  0.00    -0.221 C  
HETATM    7  C   UNL     1     -11.111   7.632  70.624  1.00  0.00    -0.257 C  
HETATM    8  C   UNL     1      -8.984   7.797  69.143  1.00  0.00    -0.145 C  
BRANCH   7   9
HETATM    9  O   UNL     1     -10.908   6.244  70.934  1.00  0.00    -0.245 OA 
BRANCH   9  10
HETATM   10  C   UNL     1     -10.801   5.910  72.246  1.00  0.00    -0.245 C  
HETATM   11  O   UNL     1     -11.593   5.215  72.863  1.00  0.00    -0.297 OA 
HETATM   12  C   UNL     1      -9.531   6.458  72.830  1.00  0.00    -0.150 C  
ENDBRANCH   9  10
ENDBRANCH   7   9
BRANCH   8  13
HETATM   13  C   UNL     1      -8.590   6.322  69.233  1.00  0.00    -0.124 C  
BRANCH  13  14
HETATM   14  N   UNL     1      -9.028   5.543  68.096  1.00  0.00    -0.108 NA 
HETATM   15  C   UNL     1      -9.837   4.441  68.129  1.00  0.00    -0.066 A  
HETATM   16  N   UNL     1      -9.981   3.908  66.932  1.00  0.00    -0.065 NA 
HETATM   17  C   UNL     1      -9.197   4.681  66.107  1.00  0.00    -0.140 A  
HETATM   18  C   UNL     1      -8.899   4.627  64.753  1.00  0.00    -0.152 A  
HETATM   19  N   UNL     1      -8.038   5.536  64.221  1.00  0.00    -0.120 NA 
HETATM   20  C   UNL     1      -7.491   6.461  65.030  1.00  0.00    -0.084 A  
HETATM   21  N   UNL     1      -7.738   6.630  66.338  1.00  0.00    -0.100 NA 
HETATM   22  N   UNL     1      -6.605   7.341  64.442  1.00  0.00    -0.040 NA 
HETATM   23  H2  UNL     1      -7.051   7.798  63.647  1.00  0.00     0.000 HD 
HETATM   24  H1  UNL     1      -6.190   8.042  65.055  1.00  0.00     0.000 HD 
HETATM   25  C   UNL     1      -8.589   5.703  66.812  1.00  0.00    -0.111 A  
ENDBRANCH  13  14
ENDBRANCH   8  13
ENDBRANCH   4   5
ENDBRANCH   2   4
TORSDOF 6
ENDMDL
MODEL      276
REMARK 921   NORMALIZED FREE ENERGY PREDICTED BY IDOCK:   -2.95 KCAL/MOL
REMARK 922        TOTAL FREE ENERGY PREDICTED BY IDOCK:   -4.99 KCAL/MOL
REMARK 923 INTER-LIGAND FREE ENERGY PREDICTED BY IDOCK:   -3.98 KCAL/MOL
REMARK 924 INTRA-LIGAND FREE ENERGY PREDICTED BY IDOCK:   -1.00 KCAL/MOL
REMARK 927      BINDING AFFINITY PREDICTED BY RF-SCORE:    0.00 PKD
ROOT
HETATM    1  C   UNL     1     -11.567   8.638  71.451  1.00  0.00    -0.354 C  
HETATM    2  C   UNL     1     -10.565   8.164  72.459  1.00  0.00    -0.340 C  
HETATM    3  O   UNL     1     -10.826   7.409  73.384  1.00  0.00    -0.388 OA 
ENDROOT
BRANCH   2   4
HETATM    4  O   UNL     1      -9.347   8.721  72.216  1.00  0.00    -0.314 OA 
BRANCH   4   5
HETATM    5  C   UNL     1      -8.370   7.843  71.631  1.00  0.00    -0.116 C  
HETATM    6  C   UNL     1      -8.038   8.238  70.178  1.00  0.00    -0.112 C  
HETATM    7  C   UNL     1      -7.088   7.172  69.590  1.00  0.00    -0.074 C  
HETATM    8  C   UNL     1      -7.479   9.682  70.129  1.00  0.00    -0.157 C  
BRANCH   7   9
HETATM    9  O   UNL     1      -6.722   7.420  68.223  1.00  0.00    -0.051 OA 
BRANCH   9  10
HETATM   10  C   UNL     1      -7.179   6.546  67.289  1.00  0.00    -0.078 C  
HETATM   11  O   UNL     1      -8.255   5.971  67.328  1.00  0.00    -0.106 OA 
HETATM   12  C   UNL     1      -6.204   6.429  66.152  1.00  0.00    -0.038 C  
ENDBRANCH   9  10
ENDBRANCH   7   9
BRANCH   8  13
HETATM   13  C   UNL     1      -7.226  10.209  68.716  1.00  0.00    -0.081 C  
BRANCH  13  14
HETATM   14  N   UNL     1      -8.435  10.597  68.025  1.00  0.00    -0.117 NA 
HETATM   15  C   UNL     1      -9.583  11.070  68.600  1.00  0.00    -0.195 A  
HETATM   16  N   UNL     1     -10.534  11.253  67.705  1.00  0.00    -0.180 NA 
HETATM   17  C   UNL     1      -9.981  10.841  66.515  1.00  0.00    -0.213 A  
HETATM   18  C   UNL     1     -10.467  10.756  65.218  1.00  0.00    -0.212 A  
HETATM   19  N   UNL     1      -9.668  10.261  64.236  1.00  0.00    -0.317 NA 
HETATM   20  C   UNL     1      -8.424   9.860  64.553  1.00  0.00    -0.175 A  
HETATM   21  N   UNL     1      -7.840   9.934  65.758  1.00  0.00    -0.117 NA 
HETATM   22  N   UNL     1      -7.667   9.343  63.521  1.00  0.00    -0.116 NA 
HETATM   23  H2  UNL     1      -7.627  10.012  62.753  1.00  0.00     0.000 HD 
HETATM   24  H1  UNL     1      -6.723   9.038  63.761  1.00  0.00     0.000 HD 
HETATM   25  C   UNL     1      -8.674  10.424  66.691  1.00  0.00    -0.135 A  
ENDBRANCH  13  14
ENDBRANCH   8  13
ENDBRANCH   4   5
ENDBRANCH   2   4
TORSDOF 6
ENDMDL
MODEL      277
REMARK 921   NORMALIZED FREE ENERGY PREDICTED BY IDOCK:   -2.91 KCAL/MOL
REMARK 922        TOTAL FREE ENERGY PREDICTED BY IDOCK:   -4.94 KCAL/MOL
REMARK 923 INTER-LIGAND FREE ENERGY PREDICTED BY IDOCK:   -4.24 KCAL/MOL
REMARK 924 INTRA-LIGAND FREE ENERGY PREDICTED BY IDOCK:   -0.71 KCAL/MOL
REMARK 927      BINDING AFFINITY PREDICTED BY RF-SCORE:    0.00 PKD
ROOT
HETATM    1  C   UNL     1     -11.499  12.363  66.429  1.00  0.00    -0.427 C  
HETATM    2  C   UNL     1     -11.380  11.360  67.536  1.00  0.00    -0.292 C  
HETATM    3  O   UNL     1     -12.281  11.088  68.316  1.00  0.00    -0.582 OA 
ENDROOT
BRANCH   2   4
HETATM    4  O   UNL     1     -10.125  10.833  67.565  1.00  0.00    -0.177 OA 
BRANCH   4   5
HETATM    5  C   UNL     1      -9.520  10.747  68.867  1.00  0.00    -0.181 C  
HETATM    6  C   UNL     1      -9.385   9.287  69.343  1.00  0.00    -0.164 C  
HETATM    7  C   UNL     1      -8.851   9.296  70.792  1.00  0.00    -0.225 C  
HETATM    8  C   UNL     1      -8.512   8.478  68.351  1.00  0.00    -0.138 C  
BRANCH   7   9
HETATM    9  O   UNL     1      -8.702   7.984  71.358  1.00  0.00    -0.124 OA 
BRANCH   9  10
HETATM   10  C   UNL     1      -7.999   7.883  72.516  1.00  0.00    -0.120 C  
HETATM   11  O   UNL     1      -8.120   8.623  73.480  1.00  0.00    -0.408 OA 
HETATM   12  C   UNL     1      -7.090   6.689  72.481  1.00  0.00    -0.073 C  
ENDBRANCH   9  10
ENDBRANCH   7   9
BRANCH   8  13
HETATM   13  C   UNL     1      -8.412   6.987  68.675  1.00  0.00    -0.121 C  
BRANCH  13  14
HETATM   14  N   UNL     1      -8.546   6.138  67.513  1.00  0.00    -0.107 NA 
HETATM   15  C   UNL     1      -8.679   6.552  66.216  1.00  0.00    -0.144 A  
HETATM   16  N   UNL     1      -8.865   5.535  65.398  1.00  0.00    -0.150 NA 
HETATM   17  C   UNL     1      -8.892   4.428  66.215  1.00  0.00    -0.114 A  
HETATM   18  C   UNL     1      -9.080   3.074  65.977  1.00  0.00    -0.140 A  
HETATM   19  N   UNL     1      -9.089   2.207  67.023  1.00  0.00    -0.125 NA 
HETATM   20  C   UNL     1      -8.921   2.690  68.267  1.00  0.00    -0.149 A  
HETATM   21  N   UNL     1      -8.692   3.967  68.607  1.00  0.00    -0.094 NA 
HETATM   22  N   UNL     1      -8.965   1.767  69.293  1.00  0.00    -0.081 NA 
HETATM   23  H2  UNL     1      -8.288   1.025  69.118  1.00  0.00     0.000 HD 
HETATM   24  H1  UNL     1      -8.839   2.134  70.236  1.00  0.00     0.000 HD 
HETATM   25  C   UNL     1      -8.700   4.781  67.538  1.00  0.00    -0.103 A  
ENDBRANCH  13  14
ENDBRANCH   8  13
ENDBRANCH   4   5
ENDBRANCH   2   4
TORSDOF 6
ENDMDL
MODEL      278
REMARK 921   NORMALIZED FREE ENERGY PREDICTED BY IDOCK:   -2.82 KCAL/MOL
REMARK 922        TOTAL FREE ENERGY PREDICTED BY IDOCK:   -4.82 KCAL/MOL
REMARK 923 INTER-LIGAND FREE ENERGY PREDICTED BY IDOCK:   -3.96 KCAL/MOL
REMARK 924 INTRA-LIGAND FREE ENERGY PREDICTED BY IDOCK:   -0.86 KCAL/MOL
REMARK 927      BINDING AFFINITY PREDICTED BY RF-SCORE:    0.00 PKD
ROOT
HETATM    1  C   UNL     1      -9.091  10.807  68.861  1.00  0.00    -0.170 C  
HETATM    2  C   UNL     1     -10.224  10.475  67.938  1.00  0.00    -0.183 C  
HETATM    3  O   UNL     1     -10.642  11.224  67.067  1.00  0.00    -0.222 OA 
ENDROOT
BRANCH   2   4
HETATM    4  O   UNL     1     -10.733   9.248  68.236  1.00  0.00    -0.209 OA 
BRANCH   4   5
HETATM    5  C   UNL     1     -10.572   8.247  67.216  1.00  0.00    -0.265 C  
HETATM    6  C   UNL     1      -9.892   6.975  67.761  1.00  0.00    -0.166 C  
HETATM    7  C   UNL     1      -9.641   6.014  66.578  1.00  0.00    -0.154 C  
HETATM    8  C   UNL     1     -10.737   6.364  68.907  1.00  0.00    -0.339 C  
BRANCH   7   9
HETATM    9  O   UNL     1      -8.987   4.794  66.960  1.00  0.00    -0.110 OA 
BRANCH   9  10
HETATM   10  C   UNL     1      -9.161   3.716  66.150  1.00  0.00    -0.167 C  
HETATM   11  O   UNL     1      -8.586   2.646  66.267  1.00  0.00    -0.100 OA 
HETATM   12  C   UNL     1     -10.218   3.995  65.119  1.00  0.00    -0.172 C  
ENDBRANCH   9  10
ENDBRANCH   7   9
BRANCH   8  13
HETATM   13  C   UNL     1     -10.088   5.161  69.592  1.00  0.00    -0.261 C  
BRANCH  13  14
HETATM   14  N   UNL     1      -8.892   5.499  70.329  1.00  0.00    -0.128 NA 
HETATM   15  C   UNL     1      -7.602   5.270  69.935  1.00  0.00    -0.065 A  
HETATM   16  N   UNL     1      -6.740   5.619  70.869  1.00  0.00    -0.047 NA 
HETATM   17  C   UNL     1      -7.515   6.052  71.920  1.00  0.00    -0.095 A  
HETATM   18  C   UNL     1      -7.219   6.518  73.193  1.00  0.00    -0.081 A  
HETATM   19  N   UNL     1      -8.233   6.844  74.037  1.00  0.00    -0.126 NA 
HETATM   20  C   UNL     1      -9.502   6.697  73.614  1.00  0.00    -0.164 A  
HETATM   21  N   UNL     1      -9.900   6.296  72.398  1.00  0.00    -0.164 NA 
HETATM   22  N   UNL     1     -10.490   7.019  74.523  1.00  0.00    -0.427 NA 
HETATM   23  H2  UNL     1     -10.349   7.970  74.864  1.00  0.00     0.000 HD 
HETATM   24  H1  UNL     1     -11.452   6.907  74.203  1.00  0.00     0.000 HD 
HETATM   25  C   UNL     1      -8.860   5.982  71.607  1.00  0.00    -0.139 A  
ENDBRANCH  13  14
ENDBRANCH   8  13
ENDBRANCH   4   5
ENDBRANCH   2   4
TORSDOF 6
ENDMDL
MODEL      279
REMARK 921   NORMALIZED FREE ENERGY PREDICTED BY IDOCK:   -2.78 KCAL/MOL
REMARK 922        TOTAL FREE ENERGY PREDICTED BY IDOCK:   -4.77 KCAL/MOL
REMARK 923 INTER-LIGAND FREE ENERGY PREDICTED BY IDOCK:   -4.69 KCAL/MOL
REMARK 924 INTRA-LIGAND FREE ENERGY PREDICTED BY IDOCK:   -0.08 KCAL/MOL
REMARK 927      BINDING AFFINITY PREDICTED BY RF-SCORE:    0.00 PKD
ROOT
HETATM    1  C   UNL     1     -11.131   8.057  73.011  1.00  0.00    -0.301 C  
HETATM    2  C   UNL     1     -10.267   8.252  71.801  1.00  0.00    -0.230 C  
HETATM    3  O   UNL     1      -9.166   8.782  71.822  1.00  0.00    -0.248 OA 
ENDROOT
BRANCH   2   4
HETATM    4  O   UNL     1     -10.900   7.791  70.688  1.00  0.00    -0.229 OA 
BRANCH   4   5
HETATM    5  C   UNL     1     -11.143   8.770  69.663  1.00  0.00    -0.028 C  
HETATM    6  C   UNL     1     -10.345   8.468  68.379  1.00  0.00    -0.241 C  
HETATM    7  C   UNL     1     -10.562   9.632  67.388  1.00  0.00    -0.268 C  
HETATM    8  C   UNL     1     -10.735   7.077  67.819  1.00  0.00    -0.300 C  
BRANCH   7   9
HETATM    9  O   UNL     1      -9.846   9.476  66.153  1.00  0.00    -0.235 OA 
BRANCH   9  10
HETATM   10  C   UNL     1      -9.544  10.606  65.462  1.00  0.00    -0.221 C  
HETATM   11  O   UNL     1      -9.196  11.665  65.960  1.00  0.00    -0.217 OA 
HETATM   12  C   UNL     1      -9.631  10.362  63.983  1.00  0.00    -0.376 C  
ENDBRANCH   9  10
ENDBRANCH   7   9
BRANCH   8  13
HETATM   13  C   UNL     1      -9.914   6.636  66.607  1.00  0.00    -0.140 C  
BRANCH  13  14
HETATM   14  N   UNL     1      -9.606   5.224  66.609  1.00  0.00    -0.141 NA 
HETATM   15  C   UNL     1      -9.469   4.421  65.510  1.00  0.00    -0.175 A  
HETATM   16  N   UNL     1      -9.271   3.162  65.850  1.00  0.00    -0.152 NA 
HETATM   17  C   UNL     1      -9.324   3.157  67.225  1.00  0.00    -0.179 A  
HETATM   18  C   UNL     1      -9.220   2.154  68.178  1.00  0.00    -0.193 A  
HETATM   19  N   UNL     1      -9.354   2.466  69.494  1.00  0.00    -0.116 NA 
HETATM   20  C   UNL     1      -9.591   3.745  69.836  1.00  0.00    -0.184 A  
HETATM   21  N   UNL     1      -9.669   4.796  69.006  1.00  0.00    -0.169 NA 
HETATM   22  N   UNL     1      -9.744   4.000  71.184  1.00  0.00    -0.182 NA 
HETATM   23  H2  UNL     1      -8.932   3.652  71.695  1.00  0.00     0.000 HD 
HETATM   24  H1  UNL     1      -9.924   4.969  71.444  1.00  0.00     0.000 HD 
HETATM   25  C   UNL     1      -9.537   4.431  67.720  1.00  0.00    -0.160 A  
ENDBRANCH  13  14
ENDBRANCH   8  13
ENDBRANCH   4   5
ENDBRANCH   2   4
TORSDOF 6
ENDMDL
MODEL      280
REMARK 921   NORMALIZED FREE ENERGY PREDICTED BY IDOCK:   -2.77 KCAL/MOL
REMARK 922        TOTAL FREE ENERGY PREDICTED BY IDOCK:   -4.74 KCAL/MOL
REMARK 923 INTER-LIGAND FREE ENERGY PREDICTED BY IDOCK:   -3.98 KCAL/MOL
REMARK 924 INTRA-LIGAND FREE ENERGY PREDICTED BY IDOCK:   -0.76 KCAL/MOL
REMARK 927      BINDING AFFINITY PREDICTED BY RF-SCORE:    0.00 PKD
ROOT
HETATM    1  C   UNL     1      -9.591   8.751  71.061  1.00  0.00    -0.290 C  
HETATM    2  C   UNL     1      -9.143   8.800  69.632  1.00  0.00    -0.149 C  
HETATM    3  O   UNL     1      -9.113   7.831  68.888  1.00  0.00    -0.141 OA 
ENDROOT
BRANCH   2   4
HETATM    4  O   UNL     1      -8.746  10.060  69.302  1.00  0.00    -0.151 OA 
BRANCH   4   5
HETATM    5  C   UNL     1      -8.822  10.387  67.904  1.00  0.00    -0.125 C  
HETATM    6  C   UNL     1      -9.983  11.356  67.603  1.00  0.00    -0.196 C  
HETATM    7  C   UNL     1     -10.072  11.547  66.073  1.00  0.00    -0.232 C  
HETATM    8  C   UNL     1      -9.802  12.674  68.397  1.00  0.00    -0.200 C  
BRANCH   7   9
HETATM    9  O   UNL     1     -11.137  12.419  65.664  1.00  0.00    -0.286 OA 
BRANCH   9  10
HETATM   10  C   UNL     1     -10.848  13.352  64.719  1.00  0.00    -0.375 C  
HETATM   11  O   UNL     1     -10.916  14.561  64.879  1.00  0.00    -0.373 OA 
HETATM   12  C   UNL     1     -10.365  12.696  63.458  1.00  0.00    -0.182 C  
ENDBRANCH   9  10
ENDBRANCH   7   9
BRANCH   8  13
HETATM   13  C   UNL     1     -10.964  13.658  68.254  1.00  0.00    -0.254 C  
BRANCH  13  14
HETATM   14  N   UNL     1     -10.927  14.730  69.222  1.00  0.00    -0.253 NA 
HETATM   15  C   UNL     1     -11.384  14.678  70.510  1.00  0.00    -0.160 A  
HETATM   16  N   UNL     1     -11.284  15.848  71.109  1.00  0.00    -0.351 NA 
HETATM   17  C   UNL     1     -10.778  16.693  70.148  1.00  0.00    -0.084 A  
HETATM   18  C   UNL     1     -10.472  18.046  70.135  1.00  0.00     1.294 A  
HETATM   19  N   UNL     1     -10.008  18.616  68.992  1.00  0.00    -0.359 NA 
HETATM   20  C   UNL     1      -9.865  17.847  67.897  1.00  0.00    -0.309 A  
HETATM   21  N   UNL     1     -10.090  16.528  67.808  1.00  0.00    -0.257 NA 
HETATM   22  N   UNL     1      -9.415  18.484  66.758  1.00  0.00    -0.291 NA 
HETATM   23  H2  UNL     1      -8.539  18.967  66.956  1.00  0.00     0.000 HD 
HETATM   24  H1  UNL     1      -9.307  17.902  65.927  1.00  0.00     0.000 HD 
HETATM   25  C   UNL     1     -10.552  16.019  68.962  1.00  0.00    -0.257 A  
ENDBRANCH  13  14
ENDBRANCH   8  13
ENDBRANCH   4   5
ENDBRANCH   2   4
TORSDOF 6
ENDMDL
MODEL      281
REMARK 921   NORMALIZED FREE ENERGY PREDICTED BY IDOCK:   -2.67 KCAL/MOL
REMARK 922        TOTAL FREE ENERGY PREDICTED BY IDOCK:   -4.61 KCAL/MOL
REMARK 923 INTER-LIGAND FREE ENERGY PREDICTED BY IDOCK:   -3.74 KCAL/MOL
REMARK 924 INTRA-LIGAND FREE ENERGY PREDICTED BY IDOCK:   -0.87 KCAL/MOL
REMARK 927      BINDING AFFINITY PREDICTED BY RF-SCORE:    0.00 PKD
ROOT
HETATM    1  C   UNL     1     -11.330   6.574  68.331  1.00  0.00    -0.154 C  
HETATM    2  C   UNL     1     -11.036   6.969  69.746  1.00  0.00    -0.250 C  
HETATM    3  O   UNL     1     -11.867   6.983  70.642  1.00  0.00    -0.339 OA 
ENDROOT
BRANCH   2   4
HETATM    4  O   UNL     1      -9.732   7.341  69.874  1.00  0.00    -0.173 OA 
BRANCH   4   5
HETATM    5  C   UNL     1      -8.999   6.678  70.918  1.00  0.00    -0.147 C  
HETATM    6  C   UNL     1      -8.832   5.171  70.637  1.00  0.00    -0.150 C  
HETATM    7  C   UNL     1      -8.155   4.520  71.863  1.00  0.00    -0.100 C  
HETATM    8  C   UNL     1      -8.073   4.956  69.304  1.00  0.00    -0.078 C  
BRANCH   7   9
HETATM    9  O   UNL     1      -7.963   3.103  71.728  1.00  0.00    -0.056 OA 
BRANCH   9  10
HETATM   10  C   UNL     1      -8.587   2.303  72.632  1.00  0.00    -0.063 C  
HETATM   11  O   UNL     1      -9.794   2.134  72.708  1.00  0.00    -0.094 OA 
HETATM   12  C   UNL     1      -7.583   1.593  73.493  1.00  0.00    -0.033 C  
ENDBRANCH   9  10
ENDBRANCH   7   9
BRANCH   8  13
HETATM   13  C   UNL     1      -7.956   3.492  68.878  1.00  0.00    -0.057 C  
BRANCH  13  14
HETATM   14  N   UNL     1      -7.555   3.328  67.498  1.00  0.00    -0.065 NA 
HETATM   15  C   UNL     1      -6.294   3.055  67.046  1.00  0.00    -0.036 A  
HETATM   16  N   UNL     1      -6.241   3.050  65.729  1.00  0.00    -0.024 NA 
HETATM   17  C   UNL     1      -7.515   3.374  65.325  1.00  0.00    -0.076 A  
HETATM   18  C   UNL     1      -8.102   3.558  64.081  1.00  0.00    -0.086 A  
HETATM   19  N   UNL     1      -9.410   3.918  64.005  1.00  0.00    -0.142 NA 
HETATM   20  C   UNL     1     -10.101   4.093  65.146  1.00  0.00    -0.209 A  
HETATM   21  N   UNL     1      -9.649   3.904  66.395  1.00  0.00    -0.199 NA 
HETATM   22  N   UNL     1     -11.418   4.484  65.010  1.00  0.00    -1.108 NA 
HETATM   23  H2  UNL     1     -11.912   3.827  64.406  1.00  0.00     0.000 HD 
HETATM   24  H1  UNL     1     -11.942   4.618  65.875  1.00  0.00     0.000 HD 
HETATM   25  C   UNL     1      -8.351   3.556  66.411  1.00  0.00    -0.102 A  
ENDBRANCH  13  14
ENDBRANCH   8  13
ENDBRANCH   4   5
ENDBRANCH   2   4
TORSDOF 6
ENDMDL
MODEL      282
REMARK 921   NORMALIZED FREE ENERGY PREDICTED BY IDOCK:   -2.63 KCAL/MOL
REMARK 922        TOTAL FREE ENERGY PREDICTED BY IDOCK:   -4.56 KCAL/MOL
REMARK 923 INTER-LIGAND FREE ENERGY PREDICTED BY IDOCK:   -3.75 KCAL/MOL
REMARK 924 INTRA-LIGAND FREE ENERGY PREDICTED BY IDOCK:   -0.81 KCAL/MOL
REMARK 927      BINDING AFFINITY PREDICTED BY RF-SCORE:    0.00 PKD
ROOT
HETATM    1  C   UNL     1      -8.124   1.790  64.482  1.00  0.00    -0.070 C  
HETATM    2  C   UNL     1      -8.950   3.036  64.373  1.00  0.00    -0.113 C  
HETATM    3  O   UNL     1      -9.162   3.629  63.325  1.00  0.00    -0.096 OA 
ENDROOT
BRANCH   2   4
HETATM    4  O   UNL     1      -9.393   3.421  65.601  1.00  0.00    -0.155 OA 
BRANCH   4   5
HETATM    5  C   UNL     1      -9.933   4.752  65.675  1.00  0.00    -0.176 C  
HETATM    6  C   UNL     1      -9.820   5.340  67.096  1.00  0.00    -0.184 C  
HETATM    7  C   UNL     1     -10.539   6.707  67.114  1.00  0.00    -0.331 C  
HETATM    8  C   UNL     1      -8.335   5.398  67.536  1.00  0.00    -0.103 C  
BRANCH   7   9
HETATM    9  O   UNL     1     -10.520   7.348  68.399  1.00  0.00    -0.195 OA 
BRANCH   9  10
HETATM   10  C   UNL     1     -10.402   8.702  68.416  1.00  0.00    -0.201 C  
HETATM   11  O   UNL     1     -11.214   9.486  67.950  1.00  0.00    -0.097 OA 
HETATM   12  C   UNL     1      -9.159   9.116  69.151  1.00  0.00    -0.144 C  
ENDBRANCH   9  10
ENDBRANCH   7   9
BRANCH   8  13
HETATM   13  C   UNL     1      -8.126   5.861  68.978  1.00  0.00    -0.103 C  
BRANCH  13  14
HETATM   14  N   UNL     1      -8.450   4.848  69.957  1.00  0.00    -0.082 NA 
HETATM   15  C   UNL     1      -7.962   3.571  69.996  1.00  0.00    -0.046 A  
HETATM   16  N   UNL     1      -8.518   2.869  70.964  1.00  0.00    -0.061 NA 
HETATM   17  C   UNL     1      -9.428   3.724  71.541  1.00  0.00    -0.151 A  
HETATM   18  C   UNL     1     -10.340   3.585  72.577  1.00  0.00    -0.122 A  
HETATM   19  N   UNL     1     -11.149   4.629  72.900  1.00  0.00    -0.216 NA 
HETATM   20  C   UNL     1     -11.046   5.771  72.196  1.00  0.00    -0.271 A  
HETATM   21  N   UNL     1     -10.176   6.027  71.208  1.00  0.00    -0.199 NA 
HETATM   22  N   UNL     1     -11.909   6.788  72.550  1.00  0.00    -0.488 NA 
HETATM   23  H2  UNL     1     -11.816   6.987  73.546  1.00  0.00     0.000 HD 
HETATM   24  H1  UNL     1     -11.831   7.653  72.017  1.00  0.00     0.000 HD 
HETATM   25  C   UNL     1      -9.407   4.962  70.926  1.00  0.00    -0.152 A  
ENDBRANCH  13  14
ENDBRANCH   8  13
ENDBRANCH   4   5
ENDBRANCH   2   4
TORSDOF 6
ENDMDL
MODEL      283
REMARK 921   NORMALIZED FREE ENERGY PREDICTED BY IDOCK:   -2.63 KCAL/MOL
REMARK 922        TOTAL FREE ENERGY PREDICTED BY IDOCK:   -4.55 KCAL/MOL
REMARK 923 INTER-LIGAND FREE ENERGY PREDICTED BY IDOCK:   -3.78 KCAL/MOL
REMARK 924 INTRA-LIGAND FREE ENERGY PREDICTED BY IDOCK:   -0.78 KCAL/MOL
REMARK 927      BINDING AFFINITY PREDICTED BY RF-SCORE:    0.00 PKD
ROOT
HETATM    1  C   UNL     1      -7.628   4.415  65.843  1.00  0.00    -0.089 C  
HETATM    2  C   UNL     1      -7.134   5.530  64.972  1.00  0.00    -0.061 C  
HETATM    3  O   UNL     1      -6.668   5.373  63.853  1.00  0.00    -0.042 OA 
ENDROOT
BRANCH   2   4
HETATM    4  O   UNL     1      -7.248   6.722  65.619  1.00  0.00    -0.069 OA 
BRANCH   4   5
HETATM    5  C   UNL     1      -7.901   7.768  64.878  1.00  0.00    -0.123 C  
HETATM    6  C   UNL     1      -8.681   8.726  65.802  1.00  0.00    -0.209 C  
HETATM    7  C   UNL     1      -9.452   9.731  64.919  1.00  0.00    -0.265 C  
HETATM    8  C   UNL     1      -7.721   9.386  66.824  1.00  0.00    -0.098 C  
BRANCH   7   9
HETATM    9  O   UNL     1     -10.239  10.669  65.670  1.00  0.00    -0.255 OA 
BRANCH   9  10
HETATM   10  C   UNL     1     -10.564  11.838  65.058  1.00  0.00    -0.288 C  
HETATM   11  O   UNL     1     -10.522  12.941  65.579  1.00  0.00    -0.280 OA 
HETATM   12  C   UNL     1     -10.920  11.601  63.618  1.00  0.00    -0.507 C  
ENDBRANCH   9  10
ENDBRANCH   7   9
BRANCH   8  13
HETATM   13  C   UNL     1      -8.418  10.268  67.860  1.00  0.00    -0.118 C  
BRANCH  13  14
HETATM   14  N   UNL     1      -7.868  10.131  69.190  1.00  0.00    -0.108 NA 
HETATM   15  C   UNL     1      -6.807  10.824  69.706  1.00  0.00    -0.151 A  
HETATM   16  N   UNL     1      -6.499  10.407  70.918  1.00  0.00    -0.341 NA 
HETATM   17  C   UNL     1      -7.376   9.378  71.170  1.00  0.00     0.040 A  
HETATM   18  C   UNL     1      -7.551   8.517  72.244  1.00  0.00    -0.058 A  
HETATM   19  N   UNL     1      -8.507   7.553  72.179  1.00  0.00    -0.108 NA 
HETATM   20  C   UNL     1      -9.255   7.456  71.066  1.00  0.00    -0.153 A  
HETATM   21  N   UNL     1      -9.199   8.255  69.990  1.00  0.00    -0.151 NA 
HETATM   22  N   UNL     1     -10.192   6.442  71.045  1.00  0.00    -0.189 NA 
HETATM   23  H2  UNL     1     -10.798   6.517  71.862  1.00  0.00     0.000 HD 
HETATM   24  H1  UNL     1     -10.759   6.367  70.201  1.00  0.00     0.000 HD 
HETATM   25  C   UNL     1      -8.236   9.184  70.104  1.00  0.00    -0.155 A  
ENDBRANCH  13  14
ENDBRANCH   8  13
ENDBRANCH   4   5
ENDBRANCH   2   4
TORSDOF 6
ENDMDL
MODEL      284
REMARK 921   NORMALIZED FREE ENERGY PREDICTED BY IDOCK:   -2.49 KCAL/MOL
REMARK 922        TOTAL FREE ENERGY PREDICTED BY IDOCK:   -4.36 KCAL/MOL
REMARK 923 INTER-LIGAND FREE ENERGY PREDICTED BY IDOCK:   -4.08 KCAL/MOL
REMARK 924 INTRA-LIGAND FREE ENERGY PREDICTED BY IDOCK:   -0.28 KCAL/MOL
REMARK 927      BINDING AFFINITY PREDICTED BY RF-SCORE:    0.00 PKD
ROOT
HETATM    1  C   UNL     1      -5.144  10.087  66.702  1.00  0.00    -0.040 C  
HETATM    2  C   UNL     1      -5.800   9.777  68.014  1.00  0.00    -0.040 C  
HETATM    3  O   UNL     1      -6.352   8.717  68.272  1.00  0.00    -0.053 OA 
ENDROOT
BRANCH   2   4
HETATM    4  O   UNL     1      -5.720  10.849  68.849  1.00  0.00    -0.041 OA 
BRANCH   4   5
HETATM    5  C   UNL     1      -6.975  11.331  69.359  1.00  0.00    -0.109 C  
HETATM    6  C   UNL     1      -7.626  12.357  68.409  1.00  0.00    -0.129 C  
HETATM    7  C   UNL     1      -8.893  12.916  69.093  1.00  0.00     0.728 C  
HETATM    8  C   UNL     1      -7.883  11.716  67.022  1.00  0.00    -0.164 C  
BRANCH   7   9
HETATM    9  O   UNL     1      -9.579  13.904  68.309  1.00  0.00    -0.209 OA 
BRANCH   9  10
HETATM   10  C   UNL     1     -10.938  13.885  68.335  1.00  0.00    -0.253 C  
HETATM   11  O   UNL     1     -11.625  12.890  68.507  1.00  0.00    -0.279 OA 
HETATM   12  C   UNL     1     -11.490  15.274  68.191  1.00  0.00    -0.357 C  
ENDBRANCH   9  10
ENDBRANCH   7   9
BRANCH   8  13
HETATM   13  C   UNL     1      -8.423  12.688  65.972  1.00  0.00     0.731 C  
BRANCH  13  14
HETATM   14  N   UNL     1      -9.571  12.178  65.257  1.00  0.00    -0.129 NA 
HETATM   15  C   UNL     1      -9.780  10.881  64.877  1.00  0.00    -0.266 A  
HETATM   16  N   UNL     1     -10.883  10.756  64.166  1.00  0.00    -0.047 NA 
HETATM   17  C   UNL     1     -11.377  12.035  64.055  1.00  0.00    -0.403 A  
HETATM   18  C   UNL     1     -12.482  12.576  63.414  1.00  0.00    -0.408 A  
HETATM   19  N   UNL     1     -12.689  13.919  63.459  1.00  0.00    -0.644 NA 
HETATM   20  C   UNL     1     -11.807  14.689  64.120  1.00  0.00    -0.241 A  
HETATM   21  N   UNL     1     -10.733  14.270  64.806  1.00  0.00    -0.422 NA 
HETATM   22  N   UNL     1     -12.052  16.048  64.110  1.00  0.00    -0.965 NA 
HETATM   23  H2  UNL     1     -12.995  16.230  64.455  1.00  0.00     0.000 HD 
HETATM   24  H1  UNL     1     -11.383  16.632  64.612  1.00  0.00     0.000 HD 
HETATM   25  C   UNL     1     -10.572  12.939  64.724  1.00  0.00    -0.342 A  
ENDBRANCH  13  14
ENDBRANCH   8  13
ENDBRANCH   4   5
ENDBRANCH   2   4
TORSDOF 6
ENDMDL
MODEL      285
REMARK 921   NORMALIZED FREE ENERGY PREDICTED BY IDOCK:   -2.46 KCAL/MOL
REMARK 922        TOTAL FREE ENERGY PREDICTED BY IDOCK:   -4.32 KCAL/MOL
REMARK 923 INTER-LIGAND FREE ENERGY PREDICTED BY IDOCK:   -3.88 KCAL/MOL
REMARK 924 INTRA-LIGAND FREE ENERGY PREDICTED BY IDOCK:   -0.45 KCAL/MOL
REMARK 927      BINDING AFFINITY PREDICTED BY RF-SCORE:    0.00 PKD
ROOT
HETATM    1  C   UNL     1      -5.641  10.864  66.590  1.00  0.00    -0.084 C  
HETATM    2  C   UNL     1      -6.001  11.344  67.964  1.00  0.00    -0.046 C  
HETATM    3  O   UNL     1      -6.414  10.620  68.858  1.00  0.00    -0.047 OA 
ENDROOT
BRANCH   2   4
HETATM    4  O   UNL     1      -5.837  12.692  68.053  1.00  0.00    -0.070 OA 
BRANCH   4   5
HETATM    5  C   UNL     1      -6.830  13.387  68.826  1.00  0.00    -0.101 C  
HETATM    6  C   UNL     1      -7.405  14.600  68.067  1.00  0.00    -0.142 C  
HETATM    7  C   UNL     1      -8.359  15.359  69.015  1.00  0.00    -0.223 C  
HETATM    8  C   UNL     1      -8.060  14.141  66.740  1.00  0.00     0.239 C  
BRANCH   7   9
HETATM    9  O   UNL     1      -8.944  16.529  68.425  1.00  0.00    -0.204 OA 
BRANCH   9  10
HETATM   10  C   UNL     1     -10.205  16.857  68.813  1.00  0.00    -0.311 C  
HETATM   11  O   UNL     1     -11.028  16.077  69.264  1.00  0.00    -0.262 OA 
HETATM   12  C   UNL     1     -10.434  18.335  68.674  1.00  0.00    -0.185 C  
ENDBRANCH   9  10
ENDBRANCH   7   9
BRANCH   8  13
HETATM   13  C   UNL     1      -8.560  15.287  65.859  1.00  0.00     0.605 C  
BRANCH  13  14
HETATM   14  N   UNL     1      -9.889  15.067  65.335  1.00  0.00    -0.324 NA 
HETATM   15  C   UNL     1     -10.888  15.995  65.239  1.00  0.00    -0.362 A  
HETATM   16  N   UNL     1     -12.009  15.459  64.796  1.00  0.00    -0.175 NA 
HETATM   17  C   UNL     1     -11.722  14.123  64.641  1.00  0.00    -0.417 A  
HETATM   18  C   UNL     1     -12.473  13.028  64.239  1.00  0.00    -0.315 A  
HETATM   19  N   UNL     1     -11.901  11.795  64.222  1.00  0.00    -0.265 NA 
HETATM   20  C   UNL     1     -10.618  11.670  64.605  1.00  0.00    -0.312 A  
HETATM   21  N   UNL     1      -9.790  12.660  64.971  1.00  0.00    -0.135 NA 
HETATM   22  N   UNL     1     -10.097  10.391  64.592  1.00  0.00    -0.345 NA 
HETATM   23  H2  UNL     1     -10.223   9.977  63.669  1.00  0.00     0.000 HD 
HETATM   24  H1  UNL     1      -9.124  10.296  64.883  1.00  0.00     0.000 HD 
HETATM   25  C   UNL     1     -10.407  13.854  64.976  1.00  0.00    -0.396 A  
ENDBRANCH  13  14
ENDBRANCH   8  13
ENDBRANCH   4   5
ENDBRANCH   2   4
TORSDOF 6
ENDMDL
MODEL      286
REMARK 921   NORMALIZED FREE ENERGY PREDICTED BY IDOCK:   -2.44 KCAL/MOL
REMARK 922        TOTAL FREE ENERGY PREDICTED BY IDOCK:   -4.30 KCAL/MOL
REMARK 923 INTER-LIGAND FREE ENERGY PREDICTED BY IDOCK:   -4.39 KCAL/MOL
REMARK 924 INTRA-LIGAND FREE ENERGY PREDICTED BY IDOCK:    0.09 KCAL/MOL
REMARK 927      BINDING AFFINITY PREDICTED BY RF-SCORE:    0.00 PKD
ROOT
HETATM    1  C   UNL     1     -10.742  17.453  65.979  1.00  0.00    -0.122 C  
HETATM    2  C   UNL     1      -9.773  18.523  66.382  1.00  0.00    -0.336 C  
HETATM    3  O   UNL     1     -10.007  19.382  67.219  1.00  0.00    -0.330 OA 
ENDROOT
BRANCH   2   4
HETATM    4  O   UNL     1      -8.624  18.419  65.660  1.00  0.00    -0.307 OA 
BRANCH   4   5
HETATM    5  C   UNL     1      -7.442  18.109  66.419  1.00  0.00    -0.252 C  
HETATM    6  C   UNL     1      -7.733  17.105  67.552  1.00  0.00    -0.190 C  
HETATM    7  C   UNL     1      -6.447  16.934  68.391  1.00  0.00    -0.149 C  
HETATM    8  C   UNL     1      -8.290  15.783  66.968  1.00  0.00    -0.259 C  
BRANCH   7   9
HETATM    9  O   UNL     1      -6.600  16.032  69.498  1.00  0.00    -0.184 OA 
BRANCH   9  10
HETATM   10  C   UNL     1      -5.721  16.157  70.527  1.00  0.00    -0.053 C  
HETATM   11  O   UNL     1      -5.188  17.198  70.875  1.00  0.00    -0.244 OA 
HETATM   12  C   UNL     1      -5.541  14.843  71.232  1.00  0.00    -0.020 C  
ENDBRANCH   9  10
ENDBRANCH   7   9
BRANCH   8  13
HETATM   13  C   UNL     1      -8.718  14.762  68.023  1.00  0.00    -0.168 C  
BRANCH  13  14
HETATM   14  N   UNL     1      -9.929  14.054  67.675  1.00  0.00    -0.234 NA 
HETATM   15  C   UNL     1     -11.205  14.408  68.020  1.00  0.00    -0.280 A  
HETATM   16  N   UNL     1     -12.082  13.508  67.621  1.00  0.00    -0.325 NA 
HETATM   17  C   UNL     1     -11.330  12.519  67.031  1.00  0.00    -0.328 A  
HETATM   18  C   UNL     1     -11.648  11.302  66.446  1.00  0.00     0.303 A  
HETATM   19  N   UNL     1     -10.651  10.509  65.971  1.00  0.00    -0.147 NA 
HETATM   20  C   UNL     1      -9.378  10.926  66.090  1.00  0.00    -0.186 A  
HETATM   21  N   UNL     1      -8.961  12.095  66.599  1.00  0.00    -0.206 NA 
HETATM   22  N   UNL     1      -8.407  10.068  65.614  1.00  0.00    -0.140 NA 
HETATM   23  H2  UNL     1      -8.602   9.832  64.642  1.00  0.00     0.000 HD 
HETATM   24  H1  UNL     1      -7.441  10.384  65.705  1.00  0.00     0.000 HD 
HETATM   25  C   UNL     1      -9.984  12.836  67.058  1.00  0.00    -0.231 A  
ENDBRANCH  13  14
ENDBRANCH   8  13
ENDBRANCH   4   5
ENDBRANCH   2   4
TORSDOF 6
ENDMDL
MODEL      287
REMARK 921   NORMALIZED FREE ENERGY PREDICTED BY IDOCK:   -2.38 KCAL/MOL
REMARK 922        TOTAL FREE ENERGY PREDICTED BY IDOCK:   -4.23 KCAL/MOL
REMARK 923 INTER-LIGAND FREE ENERGY PREDICTED BY IDOCK:   -3.44 KCAL/MOL
REMARK 924 INTRA-LIGAND FREE ENERGY PREDICTED BY IDOCK:   -0.79 KCAL/MOL
REMARK 927      BINDING AFFINITY PREDICTED BY RF-SCORE:    0.00 PKD
ROOT
HETATM    1  C   UNL     1      -9.158  11.810  68.144  1.00  0.00    -0.185 C  
HETATM    2  C   UNL     1     -10.098  11.945  66.985  1.00  0.00    -0.205 C  
HETATM    3  O   UNL     1     -10.364  13.005  66.436  1.00  0.00    -0.271 OA 
ENDROOT
BRANCH   2   4
HETATM    4  O   UNL     1     -10.633  10.735  66.665  1.00  0.00    -0.245 OA 
BRANCH   4   5
HETATM    5  C   UNL     1      -9.996  10.047  65.574  1.00  0.00    -0.296 C  
HETATM    6  C   UNL     1      -9.088   8.903  66.069  1.00  0.00    -0.265 C  
HETATM    7  C   UNL     1      -8.348   8.309  64.850  1.00  0.00    -0.135 C  
HETATM    8  C   UNL     1      -9.915   7.870  66.874  1.00  0.00    -0.332 C  
BRANCH   7   9
HETATM    9  O   UNL     1      -7.448   7.242  65.188  1.00  0.00    -0.077 OA 
BRANCH   9  10
HETATM   10  C   UNL     1      -6.125   7.543  65.256  1.00  0.00    -0.038 C  
HETATM   11  O   UNL     1      -5.287   6.901  65.870  1.00  0.00    -0.021 OA 
HETATM   12  C   UNL     1      -5.811   8.743  64.410  1.00  0.00    -0.065 C  
ENDBRANCH   9  10
ENDBRANCH   7   9
BRANCH   8  13
HETATM   13  C   UNL     1      -9.083   6.754  67.505  1.00  0.00    -0.117 C  
BRANCH  13  14
HETATM   14  N   UNL     1      -8.431   7.151  68.733  1.00  0.00    -0.125 NA 
HETATM   15  C   UNL     1      -7.451   8.096  68.863  1.00  0.00    -0.089 A  
HETATM   16  N   UNL     1      -7.005   8.164  70.102  1.00  0.00    -0.040 NA 
HETATM   17  C   UNL     1      -7.703   7.193  70.782  1.00  0.00    -0.094 A  
HETATM   18  C   UNL     1      -7.679   6.746  72.095  1.00  0.00    -0.095 A  
HETATM   19  N   UNL     1      -8.486   5.717  72.465  1.00  0.00    -0.117 NA 
HETATM   20  C   UNL     1      -9.284   5.154  71.541  1.00  0.00    -0.146 A  
HETATM   21  N   UNL     1      -9.418   5.530  70.260  1.00  0.00    -0.159 NA 
HETATM   22  N   UNL     1     -10.062   4.097  71.967  1.00  0.00    -0.178 NA 
HETATM   23  H2  UNL     1     -10.617   4.380  72.774  1.00  0.00     0.000 HD 
HETATM   24  H1  UNL     1     -10.668   3.669  71.266  1.00  0.00     0.000 HD 
HETATM   25  C   UNL     1      -8.595   6.545  69.947  1.00  0.00    -0.139 A  
ENDBRANCH  13  14
ENDBRANCH   8  13
ENDBRANCH   4   5
ENDBRANCH   2   4
TORSDOF 6
ENDMDL
MODEL      288
REMARK 921   NORMALIZED FREE ENERGY PREDICTED BY IDOCK:   -2.38 KCAL/MOL
REMARK 922        TOTAL FREE ENERGY PREDICTED BY IDOCK:   -4.23 KCAL/MOL
REMARK 923 INTER-LIGAND FREE ENERGY PREDICTED BY IDOCK:   -3.32 KCAL/MOL
REMARK 924 INTRA-LIGAND FREE ENERGY PREDICTED BY IDOCK:   -0.90 KCAL/MOL
REMARK 927      BINDING AFFINITY PREDICTED BY RF-SCORE:    0.00 PKD
ROOT
HETATM    1  C   UNL     1     -10.521  11.232  68.817  1.00  0.00    -0.232 C  
HETATM    2  C   UNL     1     -10.030  11.339  67.405  1.00  0.00    -0.182 C  
HETATM    3  O   UNL     1     -10.374  12.213  66.623  1.00  0.00    -0.206 OA 
ENDROOT
BRANCH   2   4
HETATM    4  O   UNL     1      -9.183  10.313  67.118  1.00  0.00    -0.144 OA 
BRANCH   4   5
HETATM    5  C   UNL     1      -9.811   9.102  66.662  1.00  0.00    -0.240 C  
HETATM    6  C   UNL     1      -9.068   7.846  67.160  1.00  0.00    -0.158 C  
HETATM    7  C   UNL     1      -9.727   6.606  66.517  1.00  0.00    -0.121 C  
HETATM    8  C   UNL     1      -9.039   7.819  68.708  1.00  0.00    -0.140 C  
BRANCH   7   9
HETATM    9  O   UNL     1      -9.105   5.366  66.891  1.00  0.00    -0.113 OA 
BRANCH   9  10
HETATM   10  C   UNL     1      -8.370   4.729  65.942  1.00  0.00    -0.116 C  
HETATM   11  O   UNL     1      -7.537   3.864  66.159  1.00  0.00    -0.086 OA 
HETATM   12  C   UNL     1      -8.770   5.186  64.568  1.00  0.00    -0.106 C  
ENDBRANCH   9  10
ENDBRANCH   7   9
BRANCH   8  13
HETATM   13  C   UNL     1      -8.224   6.668  69.300  1.00  0.00    -0.124 C  
BRANCH  13  14
HETATM   14  N   UNL     1      -8.805   6.115  70.503  1.00  0.00    -0.145 NA 
HETATM   15  C   UNL     1      -8.987   6.767  71.691  1.00  0.00    -0.136 A  
HETATM   16  N   UNL     1      -9.464   5.961  72.619  1.00  0.00    -0.147 NA 
HETATM   17  C   UNL     1      -9.553   4.733  72.006  1.00  0.00    -0.149 A  
HETATM   18  C   UNL     1      -9.949   3.477  72.443  1.00  0.00    -0.167 A  
HETATM   19  N   UNL     1      -9.890   2.422  71.588  1.00  0.00    -0.155 NA 
HETATM   20  C   UNL     1      -9.439   2.627  70.337  1.00  0.00    -0.115 A  
HETATM   21  N   UNL     1      -9.071   3.798  69.799  1.00  0.00    -0.109 NA 
HETATM   22  N   UNL     1      -9.377   1.515  69.521  1.00  0.00    -0.103 NA 
HETATM   23  H2  UNL     1     -10.288   1.060  69.488  1.00  0.00     0.000 HD 
HETATM   24  H1  UNL     1      -9.034   1.670  68.572  1.00  0.00     0.000 HD 
HETATM   25  C   UNL     1      -9.142   4.804  70.688  1.00  0.00    -0.128 A  
ENDBRANCH  13  14
ENDBRANCH   8  13
ENDBRANCH   4   5
ENDBRANCH   2   4
TORSDOF 6
ENDMDL
MODEL      289
REMARK 921   NORMALIZED FREE ENERGY PREDICTED BY IDOCK:   -2.35 KCAL/MOL
REMARK 922        TOTAL FREE ENERGY PREDICTED BY IDOCK:   -4.18 KCAL/MOL
REMARK 923 INTER-LIGAND FREE ENERGY PREDICTED BY IDOCK:   -3.39 KCAL/MOL
REMARK 924 INTRA-LIGAND FREE ENERGY PREDICTED BY IDOCK:   -0.79 KCAL/MOL
REMARK 927      BINDING AFFINITY PREDICTED BY RF-SCORE:    0.00 PKD
ROOT
HETATM    1  C   UNL     1     -10.007   8.619  72.001  1.00  0.00    -0.399 C  
HETATM    2  C   UNL     1     -11.225   9.080  71.258  1.00  0.00    -0.315 C  
HETATM    3  O   UNL     1     -11.999   9.931  71.670  1.00  0.00    -0.393 OA 
ENDROOT
BRANCH   2   4
HETATM    4  O   UNL     1     -11.357   8.391  70.091  1.00  0.00    -0.195 OA 
BRANCH   4   5
HETATM    5  C   UNL     1     -10.475   8.797  69.030  1.00  0.00    -0.203 C  
HETATM    6  C   UNL     1      -9.776   7.591  68.371  1.00  0.00    -0.161 C  
HETATM    7  C   UNL     1      -8.757   8.124  67.341  1.00  0.00    -0.124 C  
HETATM    8  C   UNL     1     -10.827   6.619  67.779  1.00  0.00    -0.372 C  
BRANCH   7   9
HETATM    9  O   UNL     1      -8.021   7.088  66.671  1.00  0.00    -0.104 OA 
BRANCH   9  10
HETATM   10  C   UNL     1      -6.667   7.124  66.771  1.00  0.00    -0.060 C  
HETATM   11  O   UNL     1      -6.040   7.663  67.669  1.00  0.00    -0.045 OA 
HETATM   12  C   UNL     1      -6.033   6.346  65.653  1.00  0.00    -0.029 C  
ENDBRANCH   9  10
ENDBRANCH   7   9
BRANCH   8  13
HETATM   13  C   UNL     1     -10.237   5.331  67.203  1.00  0.00    -0.220 C  
BRANCH  13  14
HETATM   14  N   UNL     1      -9.527   4.539  68.182  1.00  0.00    -0.141 NA 
HETATM   15  C   UNL     1      -9.759   4.515  69.530  1.00  0.00    -0.212 A  
HETATM   16  N   UNL     1      -8.885   3.754  70.159  1.00  0.00    -0.073 NA 
HETATM   17  C   UNL     1      -8.035   3.306  69.174  1.00  0.00    -0.049 A  
HETATM   18  C   UNL     1      -6.905   2.501  69.185  1.00  0.00    -0.033 A  
HETATM   19  N   UNL     1      -6.243   2.262  68.022  1.00  0.00    -0.024 NA 
HETATM   20  C   UNL     1      -6.703   2.821  66.888  1.00  0.00    -0.040 A  
HETATM   21  N   UNL     1      -7.803   3.577  66.755  1.00  0.00    -0.080 NA 
HETATM   22  N   UNL     1      -5.977   2.564  65.742  1.00  0.00    -0.022 NA 
HETATM   23  H2  UNL     1      -5.879   1.557  65.615  1.00  0.00     0.000 HD 
HETATM   24  H1  UNL     1      -6.325   2.988  64.882  1.00  0.00     0.000 HD 
HETATM   25  C   UNL     1      -8.413   3.787  67.934  1.00  0.00    -0.094 A  
ENDBRANCH  13  14
ENDBRANCH   8  13
ENDBRANCH   4   5
ENDBRANCH   2   4
TORSDOF 6
ENDMDL
MODEL      290
REMARK 921   NORMALIZED FREE ENERGY PREDICTED BY IDOCK:   -2.32 KCAL/MOL
REMARK 922        TOTAL FREE ENERGY PREDICTED BY IDOCK:   -4.14 KCAL/MOL
REMARK 923 INTER-LIGAND FREE ENERGY PREDICTED BY IDOCK:   -3.19 KCAL/MOL
REMARK 924 INTRA-LIGAND FREE ENERGY PREDICTED BY IDOCK:   -0.96 KCAL/MOL
REMARK 927      BINDING AFFINITY PREDICTED BY RF-SCORE:    0.00 PKD
ROOT
HETATM    1  C   UNL     1     -10.321   8.089  72.933  1.00  0.00    -0.397 C  
HETATM    2  C   UNL     1      -9.760   7.894  71.557  1.00  0.00    -0.161 C  
HETATM    3  O   UNL     1      -8.592   8.091  71.257  1.00  0.00    -0.115 OA 
ENDROOT
BRANCH   2   4
HETATM    4  O   UNL     1     -10.741   7.506  70.696  1.00  0.00    -0.222 OA 
BRANCH   4   5
HETATM    5  C   UNL     1     -11.149   8.496  69.735  1.00  0.00    -0.062 C  
HETATM    6  C   UNL     1     -10.391   8.347  68.400  1.00  0.00    -0.239 C  
HETATM    7  C   UNL     1     -10.792   9.522  67.481  1.00  0.00    -0.170 C  
HETATM    8  C   UNL     1     -10.649   6.947  67.789  1.00  0.00    -0.305 C  
BRANCH   7   9
HETATM    9  O   UNL     1     -10.131   9.506  66.207  1.00  0.00    -0.269 OA 
BRANCH   9  10
HETATM   10  C   UNL     1      -8.990  10.236  66.089  1.00  0.00    -0.154 C  
HETATM   11  O   UNL     1      -7.878   9.776  65.886  1.00  0.00    -0.104 OA 
HETATM   12  C   UNL     1      -9.291  11.704  66.176  1.00  0.00    -0.237 C  
ENDBRANCH   9  10
ENDBRANCH   7   9
BRANCH   8  13
HETATM   13  C   UNL     1      -9.849   6.660  66.518  1.00  0.00    -0.104 C  
BRANCH  13  14
HETATM   14  N   UNL     1      -8.855   5.625  66.690  1.00  0.00    -0.117 NA 
HETATM   15  C   UNL     1      -8.978   4.312  66.326  1.00  0.00    -0.120 A  
HETATM   16  N   UNL     1      -7.927   3.606  66.696  1.00  0.00    -0.088 NA 
HETATM   17  C   UNL     1      -7.119   4.499  67.360  1.00  0.00    -0.065 A  
HETATM   18  C   UNL     1      -5.897   4.379  68.007  1.00  0.00    -0.022 A  
HETATM   19  N   UNL     1      -5.353   5.465  68.616  1.00  0.00    -0.006 NA 
HETATM   20  C   UNL     1      -6.023   6.631  68.579  1.00  0.00    -0.022 A  
HETATM   21  N   UNL     1      -7.184   6.870  67.952  1.00  0.00    -0.092 NA 
HETATM   22  N   UNL     1      -5.436   7.694  69.236  1.00  0.00    -0.019 NA 
HETATM   23  H2  UNL     1      -4.487   7.832  68.889  1.00  0.00     0.000 HD 
HETATM   24  H1  UNL     1      -5.944   8.579  69.209  1.00  0.00     0.000 HD 
HETATM   25  C   UNL     1      -7.679   5.763  67.373  1.00  0.00    -0.097 A  
ENDBRANCH  13  14
ENDBRANCH   8  13
ENDBRANCH   4   5
ENDBRANCH   2   4
TORSDOF 6
ENDMDL
MODEL      291
REMARK 921   NORMALIZED FREE ENERGY PREDICTED BY IDOCK:   -2.29 KCAL/MOL
REMARK 922        TOTAL FREE ENERGY PREDICTED BY IDOCK:   -4.10 KCAL/MOL
REMARK 923 INTER-LIGAND FREE ENERGY PREDICTED BY IDOCK:   -3.49 KCAL/MOL
REMARK 924 INTRA-LIGAND FREE ENERGY PREDICTED BY IDOCK:   -0.61 KCAL/MOL
REMARK 927      BINDING AFFINITY PREDICTED BY RF-SCORE:    0.00 PKD
ROOT
HETATM    1  C   UNL     1      -8.078   9.256  68.295  1.00  0.00    -0.107 C  
HETATM    2  C   UNL     1      -9.555   9.292  68.042  1.00  0.00    -0.142 C  
HETATM    3  O   UNL     1     -10.156  10.270  67.623  1.00  0.00    -0.175 OA 
ENDROOT
BRANCH   2   4
HETATM    4  O   UNL     1     -10.122   8.101  68.377  1.00  0.00    -0.188 OA 
BRANCH   4   5
HETATM    5  C   UNL     1      -9.583   6.948  67.708  1.00  0.00    -0.122 C  
HETATM    6  C   UNL     1      -9.155   5.853  68.706  1.00  0.00    -0.116 C  
HETATM    7  C   UNL     1      -8.471   4.716  67.914  1.00  0.00    -0.102 C  
HETATM    8  C   UNL     1     -10.368   5.395  69.553  1.00  0.00    -0.350 C  
BRANCH   7   9
HETATM    9  O   UNL     1      -8.005   3.640  68.743  1.00  0.00    -0.059 OA 
BRANCH   9  10
HETATM   10  C   UNL     1      -7.725   2.460  68.129  1.00  0.00    -0.055 C  
HETATM   11  O   UNL     1      -6.605   2.043  67.882  1.00  0.00    -0.028 OA 
HETATM   12  C   UNL     1      -8.987   1.695  67.852  1.00  0.00    -0.168 C  
ENDBRANCH   9  10
ENDBRANCH   7   9
BRANCH   8  13
HETATM   13  C   UNL     1     -10.021   4.390  70.653  1.00  0.00    -0.183 C  
BRANCH  13  14
HETATM   14  N   UNL     1     -10.146   4.935  71.986  1.00  0.00    -0.190 NA 
HETATM   15  C   UNL     1     -11.040   4.542  72.943  1.00  0.00    -0.153 A  
HETATM   16  N   UNL     1     -10.956   5.293  74.024  1.00  0.00    -0.219 NA 
HETATM   17  C   UNL     1      -9.994   6.230  73.726  1.00  0.00    -0.224 A  
HETATM   18  C   UNL     1      -9.467   7.308  74.422  1.00  0.00    -0.038 A  
HETATM   19  N   UNL     1      -8.527   8.092  73.830  1.00  0.00    -0.255 NA 
HETATM   20  C   UNL     1      -8.137   7.801  72.576  1.00  0.00    -0.122 A  
HETATM   21  N   UNL     1      -8.547   6.766  71.829  1.00  0.00    -0.121 NA 
HETATM   22  N   UNL     1      -7.199   8.645  72.016  1.00  0.00    -0.225 NA 
HETATM   23  H2  UNL     1      -6.383   8.706  72.625  1.00  0.00     0.000 HD 
HETATM   24  H1  UNL     1      -6.904   8.425  71.065  1.00  0.00     0.000 HD 
HETATM   25  C   UNL     1      -9.479   6.030  72.458  1.00  0.00    -0.147 A  
ENDBRANCH  13  14
ENDBRANCH   8  13
ENDBRANCH   4   5
ENDBRANCH   2   4
TORSDOF 6
ENDMDL
MODEL      292
REMARK 921   NORMALIZED FREE ENERGY PREDICTED BY IDOCK:   -2.26 KCAL/MOL
REMARK 922        TOTAL FREE ENERGY PREDICTED BY IDOCK:   -4.06 KCAL/MOL
REMARK 923 INTER-LIGAND FREE ENERGY PREDICTED BY IDOCK:   -3.21 KCAL/MOL
REMARK 924 INTRA-LIGAND FREE ENERGY PREDICTED BY IDOCK:   -0.85 KCAL/MOL
REMARK 927      BINDING AFFINITY PREDICTED BY RF-SCORE:    0.00 PKD
ROOT
HETATM    1  C   UNL     1      -8.808   5.929  73.881  1.00  0.00    -0.126 C  
HETATM    2  C   UNL     1      -7.592   6.715  73.490  1.00  0.00    -0.086 C  
HETATM    3  O   UNL     1      -6.589   6.817  74.182  1.00  0.00    -0.078 OA 
ENDROOT
BRANCH   2   4
HETATM    4  O   UNL     1      -7.784   7.317  72.285  1.00  0.00    -0.090 OA 
BRANCH   4   5
HETATM    5  C   UNL     1      -9.095   7.870  72.071  1.00  0.00    -0.148 C  
HETATM    6  C   UNL     1      -9.396   8.069  70.572  1.00  0.00    -0.155 C  
HETATM    7  C   UNL     1     -10.760   8.784  70.443  1.00  0.00    -0.225 C  
HETATM    8  C   UNL     1      -9.316   6.715  69.824  1.00  0.00    -0.145 C  
BRANCH   7   9
HETATM    9  O   UNL     1     -11.143   9.047  69.084  1.00  0.00    -0.074 OA 
BRANCH   9  10
HETATM   10  C   UNL     1     -10.985  10.317  68.628  1.00  0.00    -0.244 C  
HETATM   11  O   UNL     1     -10.828  11.303  69.331  1.00  0.00    -0.233 OA 
HETATM   12  C   UNL     1     -10.962  10.341  67.127  1.00  0.00    -0.233 C  
ENDBRANCH   9  10
ENDBRANCH   7   9
BRANCH   8  13
HETATM   13  C   UNL     1      -9.488   6.825  68.309  1.00  0.00    -0.125 C  
BRANCH  13  14
HETATM   14  N   UNL     1      -8.430   6.179  67.565  1.00  0.00    -0.109 NA 
HETATM   15  C   UNL     1      -7.380   6.797  66.945  1.00  0.00    -0.082 A  
HETATM   16  N   UNL     1      -6.635   5.936  66.279  1.00  0.00    -0.053 NA 
HETATM   17  C   UNL     1      -7.261   4.723  66.450  1.00  0.00    -0.077 A  
HETATM   18  C   UNL     1      -6.998   3.442  65.987  1.00  0.00    -0.061 A  
HETATM   19  N   UNL     1      -7.845   2.428  66.308  1.00  0.00    -0.079 NA 
HETATM   20  C   UNL     1      -8.924   2.699  67.065  1.00  0.00    -0.150 A  
HETATM   21  N   UNL     1      -9.251   3.886  67.598  1.00  0.00    -0.153 NA 
HETATM   22  N   UNL     1      -9.762   1.637  67.338  1.00  0.00    -0.380 NA 
HETATM   23  H2  UNL     1      -9.229   0.877  67.759  1.00  0.00     0.000 HD 
HETATM   24  H1  UNL     1     -10.580   1.843  67.911  1.00  0.00     0.000 HD 
HETATM   25  C   UNL     1      -8.386   4.851  67.244  1.00  0.00    -0.106 A  
ENDBRANCH  13  14
ENDBRANCH   8  13
ENDBRANCH   4   5
ENDBRANCH   2   4
TORSDOF 6
ENDMDL
MODEL      293
REMARK 921   NORMALIZED FREE ENERGY PREDICTED BY IDOCK:   -2.26 KCAL/MOL
REMARK 922        TOTAL FREE ENERGY PREDICTED BY IDOCK:   -4.06 KCAL/MOL
REMARK 923 INTER-LIGAND FREE ENERGY PREDICTED BY IDOCK:   -4.09 KCAL/MOL
REMARK 924 INTRA-LIGAND FREE ENERGY PREDICTED BY IDOCK:    0.03 KCAL/MOL
REMARK 927      BINDING AFFINITY PREDICTED BY RF-SCORE:    0.00 PKD
ROOT
HETATM    1  C   UNL     1      -6.174   6.526  67.786  1.00  0.00    -0.031 C  
HETATM    2  C   UNL     1      -7.227   7.551  68.081  1.00  0.00    -0.090 C  
HETATM    3  O   UNL     1      -8.424   7.374  67.911  1.00  0.00    -0.122 OA 
ENDROOT
BRANCH   2   4
HETATM    4  O   UNL     1      -6.655   8.703  68.527  1.00  0.00    -0.057 OA 
BRANCH   4   5
HETATM    5  C   UNL     1      -6.878   9.862  67.707  1.00  0.00    -0.080 C  
HETATM    6  C   UNL     1      -8.380  10.126  67.480  1.00  0.00    -0.118 C  
HETATM    7  C   UNL     1      -8.523  11.301  66.488  1.00  0.00    -0.171 C  
HETATM    8  C   UNL     1      -9.096  10.350  68.836  1.00  0.00    -0.175 C  
BRANCH   7   9
HETATM    9  O   UNL     1      -9.886  11.630  66.179  1.00  0.00    -0.210 OA 
BRANCH   9  10
HETATM   10  C   UNL     1     -10.163  12.930  65.898  1.00  0.00    -0.290 C  
HETATM   11  O   UNL     1      -9.546  13.627  65.109  1.00  0.00    -0.016 OA 
HETATM   12  C   UNL     1     -11.386  13.383  66.643  1.00  0.00    -0.350 C  
ENDBRANCH   9  10
ENDBRANCH   7   9
BRANCH   8  13
HETATM   13  C   UNL     1     -10.613  10.507  68.725  1.00  0.00    -0.207 C  
BRANCH  13  14
HETATM   14  N   UNL     1     -11.326   9.996  69.875  1.00  0.00    -0.254 NA 
HETATM   15  C   UNL     1     -11.848  10.734  70.901  1.00  0.00    -0.297 A  
HETATM   16  N   UNL     1     -12.363   9.964  71.839  1.00  0.00    -0.359 NA 
HETATM   17  C   UNL     1     -12.124   8.679  71.411  1.00  0.00    -0.303 A  
HETATM   18  C   UNL     1     -12.389   7.429  71.953  1.00  0.00    -0.310 A  
HETATM   19  N   UNL     1     -11.986   6.314  71.288  1.00  0.00    -0.211 NA 
HETATM   20  C   UNL     1     -11.333   6.455  70.121  1.00  0.00    -0.420 A  
HETATM   21  N   UNL     1     -11.061   7.605  69.488  1.00  0.00    -0.093 NA 
HETATM   22  N   UNL     1     -10.925   5.289  69.504  1.00  0.00     0.079 NA 
HETATM   23  H2  UNL     1     -11.725   4.668  69.378  1.00  0.00     0.000 HD 
HETATM   24  H1  UNL     1     -10.429   5.395  68.619  1.00  0.00     0.000 HD 
HETATM   25  C   UNL     1     -11.474   8.674  70.190  1.00  0.00    -0.005 A  
ENDBRANCH  13  14
ENDBRANCH   8  13
ENDBRANCH   4   5
ENDBRANCH   2   4
TORSDOF 6
ENDMDL
MODEL      294
REMARK 921   NORMALIZED FREE ENERGY PREDICTED BY IDOCK:   -2.25 KCAL/MOL
REMARK 922        TOTAL FREE ENERGY PREDICTED BY IDOCK:   -4.04 KCAL/MOL
REMARK 923 INTER-LIGAND FREE ENERGY PREDICTED BY IDOCK:   -3.95 KCAL/MOL
REMARK 924 INTRA-LIGAND FREE ENERGY PREDICTED BY IDOCK:   -0.10 KCAL/MOL
REMARK 927      BINDING AFFINITY PREDICTED BY RF-SCORE:    0.00 PKD
ROOT
HETATM    1  C   UNL     1     -12.671   9.810  70.780  1.00  0.00    -0.251 C  
HETATM    2  C   UNL     1     -12.390   8.584  71.595  1.00  0.00    -0.326 C  
HETATM    3  O   UNL     1     -12.294   8.576  72.813  1.00  0.00    -0.327 OA 
ENDROOT
BRANCH   2   4
HETATM    4  O   UNL     1     -12.224   7.504  70.784  1.00  0.00    -0.236 OA 
BRANCH   4   5
HETATM    5  C   UNL     1     -10.999   6.774  70.966  1.00  0.00    -0.255 C  
HETATM    6  C   UNL     1     -10.707   5.833  69.780  1.00  0.00    -0.418 C  
HETATM    7  C   UNL     1      -9.452   4.999  70.119  1.00  0.00    -0.169 C  
HETATM    8  C   UNL     1     -10.593   6.646  68.466  1.00  0.00    -0.276 C  
BRANCH   7   9
HETATM    9  O   UNL     1      -9.091   4.063  69.092  1.00  0.00    -0.110 OA 
BRANCH   9  10
HETATM   10  C   UNL     1      -9.174   2.742  69.398  1.00  0.00    -0.139 C  
HETATM   11  O   UNL     1      -9.524   1.861  68.628  1.00  0.00    -0.171 OA 
HETATM   12  C   UNL     1      -8.709   2.494  70.804  1.00  0.00    -0.119 C  
ENDBRANCH   9  10
ENDBRANCH   7   9
BRANCH   8  13
HETATM   13  C   UNL     1     -10.418   5.789  67.212  1.00  0.00    -0.266 C  
BRANCH  13  14
HETATM   14  N   UNL     1      -9.220   6.104  66.467  1.00  0.00    -0.146 NA 
HETATM   15  C   UNL     1      -8.795   5.497  65.317  1.00  0.00    -0.107 A  
HETATM   16  N   UNL     1      -7.621   5.957  64.932  1.00  0.00    -0.084 NA 
HETATM   17  C   UNL     1      -7.264   6.867  65.899  1.00  0.00    -0.074 A  
HETATM   18  C   UNL     1      -6.144   7.664  66.090  1.00  0.00    -0.038 A  
HETATM   19  N   UNL     1      -6.067   8.455  67.193  1.00  0.00    -0.054 NA 
HETATM   20  C   UNL     1      -7.082   8.436  68.076  1.00  0.00    -0.086 A  
HETATM   21  N   UNL     1      -8.223   7.739  67.972  1.00  0.00    -0.122 NA 
HETATM   22  N   UNL     1      -6.938   9.239  69.190  1.00  0.00    -0.057 NA 
HETATM   23  H2  UNL     1      -6.751  10.199  68.900  1.00  0.00     0.000 HD 
HETATM   24  H1  UNL     1      -7.707   9.225  69.860  1.00  0.00     0.000 HD 
HETATM   25  C   UNL     1      -8.244   6.972  66.869  1.00  0.00    -0.117 A  
ENDBRANCH  13  14
ENDBRANCH   8  13
ENDBRANCH   4   5
ENDBRANCH   2   4
TORSDOF 6
ENDMDL
MODEL      295
REMARK 921   NORMALIZED FREE ENERGY PREDICTED BY IDOCK:   -2.24 KCAL/MOL
REMARK 922        TOTAL FREE ENERGY PREDICTED BY IDOCK:   -4.03 KCAL/MOL
REMARK 923 INTER-LIGAND FREE ENERGY PREDICTED BY IDOCK:   -3.18 KCAL/MOL
REMARK 924 INTRA-LIGAND FREE ENERGY PREDICTED BY IDOCK:   -0.85 KCAL/MOL
REMARK 927      BINDING AFFINITY PREDICTED BY RF-SCORE:    0.00 PKD
ROOT
HETATM    1  C   UNL     1      -8.805   5.931  73.882  1.00  0.00    -0.126 C  
HETATM    2  C   UNL     1      -7.575   6.714  73.536  1.00  0.00    -0.086 C  
HETATM    3  O   UNL     1      -6.590   6.799  74.254  1.00  0.00    -0.079 OA 
ENDROOT
BRANCH   2   4
HETATM    4  O   UNL     1      -7.731   7.335  72.335  1.00  0.00    -0.086 OA 
BRANCH   4   5
HETATM    5  C   UNL     1      -9.035   7.892  72.091  1.00  0.00    -0.146 C  
HETATM    6  C   UNL     1      -9.283   8.137  70.589  1.00  0.00    -0.162 C  
HETATM    7  C   UNL     1     -10.643   8.853  70.433  1.00  0.00    -0.217 C  
HETATM    8  C   UNL     1      -9.173   6.807  69.803  1.00  0.00    -0.146 C  
BRANCH   7   9
HETATM    9  O   UNL     1     -10.978   9.156  69.070  1.00  0.00    -0.143 OA 
BRANCH   9  10
HETATM   10  C   UNL     1     -10.808  10.441  68.659  1.00  0.00    -0.232 C  
HETATM   11  O   UNL     1     -10.681  11.405  69.397  1.00  0.00    -0.196 OA 
HETATM   12  C   UNL     1     -10.730  10.511  67.161  1.00  0.00    -0.323 C  
ENDBRANCH   9  10
ENDBRANCH   7   9
BRANCH   8  13
HETATM   13  C   UNL     1      -9.291   6.963  68.286  1.00  0.00    -0.125 C  
BRANCH  13  14
HETATM   14  N   UNL     1      -8.205   6.341  67.561  1.00  0.00    -0.113 NA 
HETATM   15  C   UNL     1      -7.249   5.514  68.083  1.00  0.00    -0.072 A  
HETATM   16  N   UNL     1      -6.349   5.182  67.178  1.00  0.00    -0.035 NA 
HETATM   17  C   UNL     1      -6.727   5.858  66.041  1.00  0.00    -0.059 A  
HETATM   18  C   UNL     1      -6.188   5.953  64.766  1.00  0.00    -0.030 A  
HETATM   19  N   UNL     1      -6.788   6.752  63.845  1.00  0.00    -0.051 NA 
HETATM   20  C   UNL     1      -7.890   7.438  64.200  1.00  0.00    -0.120 A  
HETATM   21  N   UNL     1      -8.516   7.390  65.385  1.00  0.00    -0.126 NA 
HETATM   22  N   UNL     1      -8.441   8.253  63.232  1.00  0.00    -0.403 NA 
HETATM   23  H2  UNL     1      -8.631   7.709  62.391  1.00  0.00     0.000 HD 
HETATM   24  H1  UNL     1      -9.276   8.773  63.502  1.00  0.00     0.000 HD 
HETATM   25  C   UNL     1      -7.879   6.592  66.258  1.00  0.00    -0.105 A  
ENDBRANCH  13  14
ENDBRANCH   8  13
ENDBRANCH   4   5
ENDBRANCH   2   4
TORSDOF 6
ENDMDL
MODEL      296
REMARK 921   NORMALIZED FREE ENERGY PREDICTED BY IDOCK:   -2.19 KCAL/MOL
REMARK 922        TOTAL FREE ENERGY PREDICTED BY IDOCK:   -3.97 KCAL/MOL
REMARK 923 INTER-LIGAND FREE ENERGY PREDICTED BY IDOCK:   -3.65 KCAL/MOL
REMARK 924 INTRA-LIGAND FREE ENERGY PREDICTED BY IDOCK:   -0.32 KCAL/MOL
REMARK 927      BINDING AFFINITY PREDICTED BY RF-SCORE:    0.00 PKD
ROOT
HETATM    1  C   UNL     1     -12.728   9.031  71.365  1.00  0.00    -0.361 C  
HETATM    2  C   UNL     1     -11.726   8.213  72.123  1.00  0.00    -0.359 C  
HETATM    3  O   UNL     1     -11.060   8.635  73.056  1.00  0.00     0.167 OA 
ENDROOT
BRANCH   2   4
HETATM    4  O   UNL     1     -11.647   6.958  71.601  1.00  0.00    -0.259 OA 
BRANCH   4   5
HETATM    5  C   UNL     1     -10.431   6.245  71.886  1.00  0.00    -0.209 C  
HETATM    6  C   UNL     1     -10.121   5.184  70.811  1.00  0.00    -0.303 C  
HETATM    7  C   UNL     1      -8.880   4.383  71.263  1.00  0.00    -0.116 C  
HETATM    8  C   UNL     1      -9.971   5.856  69.423  1.00  0.00    -0.229 C  
BRANCH   7   9
HETATM    9  O   UNL     1      -8.503   3.344  70.347  1.00  0.00    -0.055 OA 
BRANCH   9  10
HETATM   10  C   UNL     1      -7.182   3.036  70.266  1.00  0.00    -0.037 C  
HETATM   11  O   UNL     1      -6.392   3.070  71.196  1.00  0.00    -0.018 OA 
HETATM   12  C   UNL     1      -6.829   2.580  68.879  1.00  0.00    -0.036 C  
ENDBRANCH   9  10
ENDBRANCH   7   9
BRANCH   8  13
HETATM   13  C   UNL     1      -9.774   4.873  68.268  1.00  0.00    -0.145 C  
BRANCH  13  14
HETATM   14  N   UNL     1      -9.130   5.464  67.117  1.00  0.00    -0.111 NA 
HETATM   15  C   UNL     1      -8.152   4.893  66.351  1.00  0.00    -0.107 A  
HETATM   16  N   UNL     1      -7.712   5.723  65.426  1.00  0.00    -0.087 NA 
HETATM   17  C   UNL     1      -8.412   6.888  65.638  1.00  0.00    -0.136 A  
HETATM   18  C   UNL     1      -8.394   8.135  65.029  1.00  0.00    -0.136 A  
HETATM   19  N   UNL     1      -9.201   9.121  65.501  1.00  0.00    -0.228 NA 
HETATM   20  C   UNL     1      -9.993   8.861  66.556  1.00  0.00    -0.288 A  
HETATM   21  N   UNL     1     -10.121   7.688  67.193  1.00  0.00    -0.225 NA 
HETATM   22  N   UNL     1     -10.772   9.908  67.008  1.00  0.00    -0.206 NA 
HETATM   23  H2  UNL     1     -11.332  10.278  66.240  1.00  0.00     0.000 HD 
HETATM   24  H1  UNL     1     -11.373   9.711  67.809  1.00  0.00     0.000 HD 
HETATM   25  C   UNL     1      -9.298   6.752  66.691  1.00  0.00    -0.165 A  
ENDBRANCH  13  14
ENDBRANCH   8  13
ENDBRANCH   4   5
ENDBRANCH   2   4
TORSDOF 6
ENDMDL
MODEL      297
REMARK 921   NORMALIZED FREE ENERGY PREDICTED BY IDOCK:   -2.12 KCAL/MOL
REMARK 922        TOTAL FREE ENERGY PREDICTED BY IDOCK:   -3.87 KCAL/MOL
REMARK 923 INTER-LIGAND FREE ENERGY PREDICTED BY IDOCK:   -3.04 KCAL/MOL
REMARK 924 INTRA-LIGAND FREE ENERGY PREDICTED BY IDOCK:   -0.82 KCAL/MOL
REMARK 927      BINDING AFFINITY PREDICTED BY RF-SCORE:    0.00 PKD
ROOT
HETATM    1  C   UNL     1     -12.728   9.031  71.365  1.00  0.00    -0.361 C  
HETATM    2  C   UNL     1     -11.726   8.213  72.123  1.00  0.00    -0.359 C  
HETATM    3  O   UNL     1     -11.060   8.635  73.056  1.00  0.00     0.167 OA 
ENDROOT
BRANCH   2   4
HETATM    4  O   UNL     1     -11.647   6.958  71.601  1.00  0.00    -0.259 OA 
BRANCH   4   5
HETATM    5  C   UNL     1     -10.431   6.245  71.886  1.00  0.00    -0.209 C  
HETATM    6  C   UNL     1     -10.121   5.184  70.811  1.00  0.00    -0.303 C  
HETATM    7  C   UNL     1      -8.880   4.383  71.263  1.00  0.00    -0.116 C  
HETATM    8  C   UNL     1      -9.971   5.856  69.423  1.00  0.00    -0.229 C  
BRANCH   7   9
HETATM    9  O   UNL     1      -8.503   3.344  70.347  1.00  0.00    -0.055 OA 
BRANCH   9  10
HETATM   10  C   UNL     1      -7.182   3.036  70.266  1.00  0.00    -0.037 C  
HETATM   11  O   UNL     1      -6.392   3.070  71.196  1.00  0.00    -0.018 OA 
HETATM   12  C   UNL     1      -6.829   2.580  68.879  1.00  0.00    -0.036 C  
ENDBRANCH   9  10
ENDBRANCH   7   9
BRANCH   8  13
HETATM   13  C   UNL     1      -9.774   4.873  68.268  1.00  0.00    -0.145 C  
BRANCH  13  14
HETATM   14  N   UNL     1      -9.130   5.464  67.117  1.00  0.00    -0.111 NA 
HETATM   15  C   UNL     1      -8.977   6.801  66.869  1.00  0.00    -0.128 A  
HETATM   16  N   UNL     1      -8.421   7.015  65.693  1.00  0.00    -0.149 NA 
HETATM   17  C   UNL     1      -8.250   5.763  65.151  1.00  0.00    -0.140 A  
HETATM   18  C   UNL     1      -7.749   5.310  63.939  1.00  0.00    -0.081 A  
HETATM   19  N   UNL     1      -7.742   3.977  63.674  1.00  0.00    -0.073 NA 
HETATM   20  C   UNL     1      -8.231   3.130  64.598  1.00  0.00    -0.090 A  
HETATM   21  N   UNL     1      -8.699   3.452  65.813  1.00  0.00    -0.118 NA 
HETATM   22  N   UNL     1      -8.222   1.791  64.265  1.00  0.00    -0.073 NA 
HETATM   23  H2  UNL     1      -7.279   1.507  64.003  1.00  0.00     0.000 HD 
HETATM   24  H1  UNL     1      -8.593   1.148  64.966  1.00  0.00     0.000 HD 
HETATM   25  C   UNL     1      -8.688   4.780  66.019  1.00  0.00    -0.118 A  
ENDBRANCH  13  14
ENDBRANCH   8  13
ENDBRANCH   4   5
ENDBRANCH   2   4
TORSDOF 6
ENDMDL
MODEL      298
REMARK 921   NORMALIZED FREE ENERGY PREDICTED BY IDOCK:   -2.09 KCAL/MOL
REMARK 922        TOTAL FREE ENERGY PREDICTED BY IDOCK:   -3.82 KCAL/MOL
REMARK 923 INTER-LIGAND FREE ENERGY PREDICTED BY IDOCK:   -3.47 KCAL/MOL
REMARK 924 INTRA-LIGAND FREE ENERGY PREDICTED BY IDOCK:   -0.36 KCAL/MOL
REMARK 927      BINDING AFFINITY PREDICTED BY RF-SCORE:    0.00 PKD
ROOT
HETATM    1  C   UNL     1      -8.948  10.105  68.839  1.00  0.00    -0.155 C  
HETATM    2  C   UNL     1     -10.413   9.786  68.835  1.00  0.00    -0.214 C  
HETATM    3  O   UNL     1     -11.297  10.620  68.963  1.00  0.00    -0.247 OA 
ENDROOT
BRANCH   2   4
HETATM    4  O   UNL     1     -10.606   8.445  68.706  1.00  0.00    -0.203 OA 
BRANCH   4   5
HETATM    5  C   UNL     1     -10.357   7.907  67.395  1.00  0.00    -0.279 C  
HETATM    6  C   UNL     1      -9.703   6.512  67.462  1.00  0.00    -0.141 C  
HETATM    7  C   UNL     1      -9.352   6.072  66.023  1.00  0.00    -0.076 C  
HETATM    8  C   UNL     1     -10.624   5.524  68.221  1.00  0.00    -0.207 C  
BRANCH   7   9
HETATM    9  O   UNL     1      -8.714   4.787  65.956  1.00  0.00    -0.115 OA 
BRANCH   9  10
HETATM   10  C   UNL     1      -7.393   4.732  66.271  1.00  0.00    -0.078 C  
HETATM   11  O   UNL     1      -6.877   3.900  66.999  1.00  0.00    -0.049 OA 
HETATM   12  C   UNL     1      -6.631   5.801  65.543  1.00  0.00    -0.044 C  
ENDBRANCH   9  10
ENDBRANCH   7   9
BRANCH   8  13
HETATM   13  C   UNL     1     -10.013   4.140  68.440  1.00  0.00     0.089 C  
BRANCH  13  14
HETATM   14  N   UNL     1      -9.438   3.970  69.755  1.00  0.00    -0.180 NA 
HETATM   15  C   UNL     1      -8.377   3.170  70.080  1.00  0.00    -0.048 A  
HETATM   16  N   UNL     1      -8.150   3.170  71.379  1.00  0.00    -0.059 NA 
HETATM   17  C   UNL     1      -9.133   3.974  71.908  1.00  0.00    -0.121 A  
HETATM   18  C   UNL     1      -9.459   4.352  73.203  1.00  0.00    -0.120 A  
HETATM   19  N   UNL     1     -10.539   5.150  73.414  1.00  0.00    -0.229 NA 
HETATM   20  C   UNL     1     -11.270   5.545  72.355  1.00  0.00    -0.247 A  
HETATM   21  N   UNL     1     -11.024   5.274  71.065  1.00  0.00    -0.059 NA 
HETATM   22  N   UNL     1     -12.370   6.332  72.631  1.00  0.00    -0.491 NA 
HETATM   23  H2  UNL     1     -12.084   7.145  73.176  1.00  0.00     0.000 HD 
HETATM   24  H1  UNL     1     -12.924   6.631  71.829  1.00  0.00     0.000 HD 
HETATM   25  C   UNL     1      -9.951   4.479  70.915  1.00  0.00    -0.193 A  
ENDBRANCH  13  14
ENDBRANCH   8  13
ENDBRANCH   4   5
ENDBRANCH   2   4
TORSDOF 6
ENDMDL
MODEL      299
REMARK 921   NORMALIZED FREE ENERGY PREDICTED BY IDOCK:   -2.08 KCAL/MOL
REMARK 922        TOTAL FREE ENERGY PREDICTED BY IDOCK:   -3.81 KCAL/MOL
REMARK 923 INTER-LIGAND FREE ENERGY PREDICTED BY IDOCK:   -3.45 KCAL/MOL
REMARK 924 INTRA-LIGAND FREE ENERGY PREDICTED BY IDOCK:   -0.37 KCAL/MOL
REMARK 927      BINDING AFFINITY PREDICTED BY RF-SCORE:    0.00 PKD
ROOT
HETATM    1  C   UNL     1      -8.415   4.782  66.206  1.00  0.00    -0.111 C  
HETATM    2  C   UNL     1      -9.150   6.023  66.613  1.00  0.00    -0.137 C  
HETATM    3  O   UNL     1      -9.209   7.039  65.937  1.00  0.00    -0.084 OA 
ENDROOT
BRANCH   2   4
HETATM    4  O   UNL     1      -9.702   5.864  67.847  1.00  0.00    -0.113 OA 
BRANCH   4   5
HETATM    5  C   UNL     1     -10.708   6.828  68.204  1.00  0.00    -0.236 C  
HETATM    6  C   UNL     1     -10.149   7.925  69.133  1.00  0.00    -0.197 C  
HETATM    7  C   UNL     1     -11.319   8.834  69.569  1.00  0.00     0.249 C  
HETATM    8  C   UNL     1      -8.987   8.677  68.436  1.00  0.00    -0.142 C  
BRANCH   7   9
HETATM    9  O   UNL     1     -10.924   9.889  70.460  1.00  0.00    -0.281 OA 
BRANCH   9  10
HETATM   10  C   UNL     1     -11.894  10.444  71.233  1.00  0.00    -0.289 C  
HETATM   11  O   UNL     1     -12.285  11.598  71.154  1.00  0.00    -0.290 OA 
HETATM   12  C   UNL     1     -12.477   9.421  72.166  1.00  0.00    -0.396 C  
ENDBRANCH   9  10
ENDBRANCH   7   9
BRANCH   8  13
HETATM   13  C   UNL     1      -8.289   9.711  69.320  1.00  0.00    -0.137 C  
BRANCH  13  14
HETATM   14  N   UNL     1      -7.170   9.170  70.058  1.00  0.00    -0.059 NA 
HETATM   15  C   UNL     1      -5.906   8.960  69.579  1.00  0.00    -0.033 A  
HETATM   16  N   UNL     1      -5.138   8.375  70.477  1.00  0.00    -0.022 NA 
HETATM   17  C   UNL     1      -5.959   8.168  71.561  1.00  0.00    -0.036 A  
HETATM   18  C   UNL     1      -5.766   7.578  72.802  1.00  0.00    -0.040 A  
HETATM   19  N   UNL     1      -6.809   7.490  73.669  1.00  0.00    -0.073 NA 
HETATM   20  C   UNL     1      -8.007   7.973  73.294  1.00  0.00    -0.178 A  
HETATM   21  N   UNL     1      -8.295   8.597  72.142  1.00  0.00    -0.341 NA 
HETATM   22  N   UNL     1      -9.035   7.834  74.204  1.00  0.00    -0.413 NA 
HETATM   23  H2  UNL     1      -8.763   8.243  75.097  1.00  0.00     0.000 HD 
HETATM   24  H1  UNL     1      -9.944   8.200  73.919  1.00  0.00     0.000 HD 
HETATM   25  C   UNL     1      -7.232   8.651  71.321  1.00  0.00    -0.089 A  
ENDBRANCH  13  14
ENDBRANCH   8  13
ENDBRANCH   4   5
ENDBRANCH   2   4
TORSDOF 6
ENDMDL
MODEL      300
REMARK 921   NORMALIZED FREE ENERGY PREDICTED BY IDOCK:   -2.06 KCAL/MOL
REMARK 922        TOTAL FREE ENERGY PREDICTED BY IDOCK:   -3.79 KCAL/MOL
REMARK 923 INTER-LIGAND FREE ENERGY PREDICTED BY IDOCK:   -3.71 KCAL/MOL
REMARK 924 INTRA-LIGAND FREE ENERGY PREDICTED BY IDOCK:   -0.08 KCAL/MOL
REMARK 927      BINDING AFFINITY PREDICTED BY RF-SCORE:    0.00 PKD
ROOT
HETATM    1  C   UNL     1      -9.780   7.625  66.205  1.00  0.00    -0.030 C  
HETATM    2  C   UNL     1      -8.567   8.505  66.226  1.00  0.00    -0.129 C  
HETATM    3  O   UNL     1      -8.301   9.330  65.364  1.00  0.00    -0.124 OA 
ENDROOT
BRANCH   2   4
HETATM    4  O   UNL     1      -7.798   8.225  67.314  1.00  0.00    -0.102 OA 
BRANCH   4   5
HETATM    5  C   UNL     1      -8.092   8.994  68.494  1.00  0.00    -0.107 C  
HETATM    6  C   UNL     1      -9.349   8.474  69.219  1.00  0.00    -0.154 C  
HETATM    7  C   UNL     1      -9.664   9.431  70.390  1.00  0.00    -0.261 C  
HETATM    8  C   UNL     1      -9.152   6.997  69.643  1.00  0.00    -0.144 C  
BRANCH   7   9
HETATM    9  O   UNL     1     -10.836   9.062  71.134  1.00  0.00    -0.245 OA 
BRANCH   9  10
HETATM   10  C   UNL     1     -11.912   9.887  71.049  1.00  0.00    -0.365 C  
HETATM   11  O   UNL     1     -12.093  10.722  70.177  1.00  0.00    -0.294 OA 
HETATM   12  C   UNL     1     -12.895   9.589  72.144  1.00  0.00    -0.471 C  
ENDBRANCH   9  10
ENDBRANCH   7   9
BRANCH   8  13
HETATM   13  C   UNL     1     -10.390   6.354  70.271  1.00  0.00    -0.205 C  
BRANCH  13  14
HETATM   14  N   UNL     1     -10.085   5.191  71.073  1.00  0.00    -0.215 NA 
HETATM   15  C   UNL     1     -10.464   4.976  72.369  1.00  0.00    -0.217 A  
HETATM   16  N   UNL     1      -9.955   3.856  72.844  1.00  0.00    -0.139 NA 
HETATM   17  C   UNL     1      -9.186   3.356  71.819  1.00  0.00    -0.120 A  
HETATM   18  C   UNL     1      -8.379   2.235  71.694  1.00  0.00    -0.059 A  
HETATM   19  N   UNL     1      -7.700   2.026  70.535  1.00  0.00    -0.039 NA 
HETATM   20  C   UNL     1      -7.826   2.922  69.539  1.00  0.00    -0.042 A  
HETATM   21  N   UNL     1      -8.606   4.013  69.536  1.00  0.00    -0.074 NA 
HETATM   22  N   UNL     1      -7.094   2.673  68.396  1.00  0.00    -0.048 NA 
HETATM   23  H2  UNL     1      -7.307   1.739  68.047  1.00  0.00     0.000 HD 
HETATM   24  H1  UNL     1      -7.189   3.352  67.641  1.00  0.00     0.000 HD 
HETATM   25  C   UNL     1      -9.248   4.175  70.706  1.00  0.00    -0.127 A  
ENDBRANCH  13  14
ENDBRANCH   8  13
ENDBRANCH   4   5
ENDBRANCH   2   4
TORSDOF 6
ENDMDL
MODEL      301
REMARK 921   NORMALIZED FREE ENERGY PREDICTED BY IDOCK:   -2.05 KCAL/MOL
REMARK 922        TOTAL FREE ENERGY PREDICTED BY IDOCK:   -3.78 KCAL/MOL
REMARK 923 INTER-LIGAND FREE ENERGY PREDICTED BY IDOCK:   -2.90 KCAL/MOL
REMARK 924 INTRA-LIGAND FREE ENERGY PREDICTED BY IDOCK:   -0.88 KCAL/MOL
REMARK 927      BINDING AFFINITY PREDICTED BY RF-SCORE:    0.00 PKD
ROOT
HETATM    1  C   UNL     1     -13.829  10.312  71.958  1.00  0.00    -0.012 C  
HETATM    2  C   UNL     1     -12.899   9.146  72.103  1.00  0.00    -0.412 C  
HETATM    3  O   UNL     1     -12.119   9.001  73.034  1.00  0.00     0.165 OA 
ENDROOT
BRANCH   2   4
HETATM    4  O   UNL     1     -13.025   8.304  71.042  1.00  0.00    -0.118 OA 
BRANCH   4   5
HETATM    5  C   UNL     1     -12.138   7.171  71.041  1.00  0.00    -0.350 C  
HETATM    6  C   UNL     1     -11.571   6.886  69.635  1.00  0.00    -0.150 C  
HETATM    7  C   UNL     1     -10.742   5.585  69.701  1.00  0.00    -0.278 C  
HETATM    8  C   UNL     1     -10.783   8.115  69.116  1.00  0.00    -0.117 C  
BRANCH   7   9
HETATM    9  O   UNL     1     -10.175   5.201  68.439  1.00  0.00    -0.159 OA 
BRANCH   9  10
HETATM   10  C   UNL     1      -9.112   4.354  68.467  1.00  0.00    -0.124 C  
HETATM   11  O   UNL     1      -8.898   3.521  69.333  1.00  0.00    -0.077 OA 
HETATM   12  C   UNL     1      -8.261   4.533  67.243  1.00  0.00    -0.101 C  
ENDBRANCH   9  10
ENDBRANCH   7   9
BRANCH   8  13
HETATM   13  C   UNL     1     -10.276   7.974  67.680  1.00  0.00    -0.228 C  
BRANCH  13  14
HETATM   14  N   UNL     1      -8.835   8.019  67.576  1.00  0.00    -0.127 NA 
HETATM   15  C   UNL     1      -7.959   8.361  68.569  1.00  0.00    -0.121 A  
HETATM   16  N   UNL     1      -6.716   8.388  68.131  1.00  0.00    -0.064 NA 
HETATM   17  C   UNL     1      -6.808   8.089  66.791  1.00  0.00    -0.072 A  
HETATM   18  C   UNL     1      -5.872   7.987  65.772  1.00  0.00    -0.037 A  
HETATM   19  N   UNL     1      -6.288   7.703  64.509  1.00  0.00    -0.044 NA 
HETATM   20  C   UNL     1      -7.603   7.535  64.282  1.00  0.00    -0.105 A  
HETATM   21  N   UNL     1      -8.585   7.570  65.195  1.00  0.00    -0.029 NA 
HETATM   22  N   UNL     1      -7.969   7.274  62.977  1.00  0.00    -0.230 NA 
HETATM   23  H2  UNL     1      -7.454   6.466  62.629  1.00  0.00     0.000 HD 
HETATM   24  H1  UNL     1      -8.967   7.147  62.804  1.00  0.00     0.000 HD 
HETATM   25  C   UNL     1      -8.121   7.860  66.422  1.00  0.00    -0.108 A  
ENDBRANCH  13  14
ENDBRANCH   8  13
ENDBRANCH   4   5
ENDBRANCH   2   4
TORSDOF 6
ENDMDL
MODEL      302
REMARK 921   NORMALIZED FREE ENERGY PREDICTED BY IDOCK:   -1.97 KCAL/MOL
REMARK 922        TOTAL FREE ENERGY PREDICTED BY IDOCK:   -3.67 KCAL/MOL
REMARK 923 INTER-LIGAND FREE ENERGY PREDICTED BY IDOCK:   -3.12 KCAL/MOL
REMARK 924 INTRA-LIGAND FREE ENERGY PREDICTED BY IDOCK:   -0.56 KCAL/MOL
REMARK 927      BINDING AFFINITY PREDICTED BY RF-SCORE:    0.00 PKD
ROOT
HETATM    1  C   UNL     1     -11.029  10.981  69.052  1.00  0.00    -0.284 C  
HETATM    2  C   UNL     1     -10.354  11.308  67.753  1.00  0.00    -0.182 C  
HETATM    3  O   UNL     1     -10.816  12.064  66.912  1.00  0.00    -0.238 OA 
ENDROOT
BRANCH   2   4
HETATM    4  O   UNL     1      -9.187  10.618  67.639  1.00  0.00    -0.145 OA 
BRANCH   4   5
HETATM    5  C   UNL     1      -9.235   9.455  66.794  1.00  0.00    -0.143 C  
HETATM    6  C   UNL     1      -8.835   8.175  67.554  1.00  0.00    -0.137 C  
HETATM    7  C   UNL     1      -8.787   7.006  66.546  1.00  0.00    -0.141 C  
HETATM    8  C   UNL     1      -9.791   7.941  68.751  1.00  0.00    -0.171 C  
BRANCH   7   9
HETATM    9  O   UNL     1      -8.402   5.754  67.135  1.00  0.00    -0.105 OA 
BRANCH   9  10
HETATM   10  C   UNL     1      -8.412   4.659  66.331  1.00  0.00    -0.109 C  
HETATM   11  O   UNL     1      -7.926   3.575  66.610  1.00  0.00    -0.087 OA 
HETATM   12  C   UNL     1      -9.167   4.941  65.063  1.00  0.00    -0.107 C  
ENDBRANCH   9  10
ENDBRANCH   7   9
BRANCH   8  13
HETATM   13  C   UNL     1      -9.408   6.756  69.638  1.00  0.00    -0.144 C  
BRANCH  13  14
HETATM   14  N   UNL     1      -9.188   7.122  71.019  1.00  0.00    -0.158 NA 
HETATM   15  C   UNL     1      -9.865   8.080  71.722  1.00  0.00    -0.183 A  
HETATM   16  N   UNL     1      -9.369   8.232  72.935  1.00  0.00    -0.265 NA 
HETATM   17  C   UNL     1      -8.306   7.361  72.992  1.00  0.00    -0.118 A  
HETATM   18  C   UNL     1      -7.368   7.067  73.971  1.00  0.00    -0.091 A  
HETATM   19  N   UNL     1      -6.390   6.160  73.709  1.00  0.00    -0.065 NA 
HETATM   20  C   UNL     1      -6.357   5.574  72.498  1.00  0.00    -0.052 A  
HETATM   21  N   UNL     1      -7.232   5.752  71.497  1.00  0.00    -0.080 NA 
HETATM   22  N   UNL     1      -5.328   4.681  72.279  1.00  0.00    -0.004 NA 
HETATM   23  H2  UNL     1      -5.332   3.966  73.007  1.00  0.00     0.000 HD 
HETATM   24  H1  UNL     1      -5.302   4.237  71.361  1.00  0.00     0.000 HD 
HETATM   25  C   UNL     1      -8.171   6.662  71.807  1.00  0.00    -0.110 A  
ENDBRANCH  13  14
ENDBRANCH   8  13
ENDBRANCH   4   5
ENDBRANCH   2   4
TORSDOF 6
ENDMDL
MODEL      303
REMARK 921   NORMALIZED FREE ENERGY PREDICTED BY IDOCK:   -1.92 KCAL/MOL
REMARK 922        TOTAL FREE ENERGY PREDICTED BY IDOCK:   -3.60 KCAL/MOL
REMARK 923 INTER-LIGAND FREE ENERGY PREDICTED BY IDOCK:   -2.63 KCAL/MOL
REMARK 924 INTRA-LIGAND FREE ENERGY PREDICTED BY IDOCK:   -0.97 KCAL/MOL
REMARK 927      BINDING AFFINITY PREDICTED BY RF-SCORE:    0.00 PKD
ROOT
HETATM    1  C   UNL     1     -13.444  10.524  71.275  1.00  0.00    -0.150 C  
HETATM    2  C   UNL     1     -13.285   9.218  71.993  1.00  0.00    -0.447 C  
HETATM    3  O   UNL     1     -13.641   9.020  73.145  1.00  0.00    -0.214 OA 
ENDROOT
BRANCH   2   4
HETATM    4  O   UNL     1     -12.660   8.311  71.193  1.00  0.00    -0.257 OA 
BRANCH   4   5
HETATM    5  C   UNL     1     -12.802   6.935  71.589  1.00  0.00    -0.335 C  
HETATM    6  C   UNL     1     -11.435   6.253  71.795  1.00  0.00    -0.355 C  
HETATM    7  C   UNL     1     -11.679   4.756  72.086  1.00  0.00     0.831 C  
HETATM    8  C   UNL     1     -10.627   6.989  72.892  1.00  0.00    -0.302 C  
BRANCH   7   9
HETATM    9  O   UNL     1     -10.470   4.003  72.276  1.00  0.00    -0.149 OA 
BRANCH   9  10
HETATM   10  C   UNL     1     -10.561   2.854  72.995  1.00  0.00    -0.149 C  
HETATM   11  O   UNL     1     -11.260   1.896  72.706  1.00  0.00    -0.082 OA 
HETATM   12  C   UNL     1      -9.625   2.888  74.168  1.00  0.00    -0.117 C  
ENDBRANCH   9  10
ENDBRANCH   7   9
BRANCH   8  13
HETATM   13  C   UNL     1      -9.207   6.456  73.091  1.00  0.00    -0.128 C  
BRANCH  13  14
HETATM   14  N   UNL     1      -8.201   7.246  72.418  1.00  0.00    -0.100 NA 
HETATM   15  C   UNL     1      -7.731   8.469  72.811  1.00  0.00     0.001 A  
HETATM   16  N   UNL     1      -6.878   8.965  71.937  1.00  0.00    -0.255 NA 
HETATM   17  C   UNL     1      -6.832   8.035  70.923  1.00  0.00    -0.041 A  
HETATM   18  C   UNL     1      -6.154   7.978  69.714  1.00  0.00    -0.029 A  
HETATM   19  N   UNL     1      -6.349   6.915  68.889  1.00  0.00    -0.027 NA 
HETATM   20  C   UNL     1      -7.203   5.948  69.268  1.00  0.00    -0.074 A  
HETATM   21  N   UNL     1      -7.876   5.881  70.426  1.00  0.00    -0.102 NA 
HETATM   22  N   UNL     1      -7.381   4.906  68.380  1.00  0.00    -0.065 NA 
HETATM   23  H2  UNL     1      -6.477   4.495  68.146  1.00  0.00     0.000 HD 
HETATM   24  H1  UNL     1      -8.029   4.173  68.667  1.00  0.00     0.000 HD 
HETATM   25  C   UNL     1      -7.653   6.957  71.199  1.00  0.00    -0.087 A  
ENDBRANCH  13  14
ENDBRANCH   8  13
ENDBRANCH   4   5
ENDBRANCH   2   4
TORSDOF 6
ENDMDL
MODEL      304
REMARK 921   NORMALIZED FREE ENERGY PREDICTED BY IDOCK:   -1.89 KCAL/MOL
REMARK 922        TOTAL FREE ENERGY PREDICTED BY IDOCK:   -3.56 KCAL/MOL
REMARK 923 INTER-LIGAND FREE ENERGY PREDICTED BY IDOCK:   -2.89 KCAL/MOL
REMARK 924 INTRA-LIGAND FREE ENERGY PREDICTED BY IDOCK:   -0.67 KCAL/MOL
REMARK 927      BINDING AFFINITY PREDICTED BY RF-SCORE:    0.00 PKD
ROOT
HETATM    1  C   UNL     1      -9.967   8.955  70.440  1.00  0.00    -0.230 C  
HETATM    2  C   UNL     1     -10.324   9.567  69.119  1.00  0.00    -0.207 C  
HETATM    3  O   UNL     1     -10.732  10.710  68.979  1.00  0.00    -0.193 OA 
ENDROOT
BRANCH   2   4
HETATM    4  O   UNL     1     -10.161   8.659  68.118  1.00  0.00    -0.190 OA 
BRANCH   4   5
HETATM    5  C   UNL     1     -10.203   9.195  66.784  1.00  0.00    -0.261 C  
HETATM    6  C   UNL     1      -9.050   8.657  65.912  1.00  0.00    -0.259 C  
HETATM    7  C   UNL     1      -9.094   9.380  64.548  1.00  0.00    -0.150 C  
HETATM    8  C   UNL     1      -9.128   7.113  65.814  1.00  0.00     0.015 C  
BRANCH   7   9
HETATM    9  O   UNL     1      -8.049   8.977  63.650  1.00  0.00    -0.146 OA 
BRANCH   9  10
HETATM   10  C   UNL     1      -6.848   9.600  63.774  1.00  0.00    -0.112 C  
HETATM   11  O   UNL     1      -6.607  10.518  64.542  1.00  0.00    -0.069 OA 
HETATM   12  C   UNL     1      -5.825   8.961  62.880  1.00  0.00    -0.086 C  
ENDBRANCH   9  10
ENDBRANCH   7   9
BRANCH   8  13
HETATM   13  C   UNL     1      -7.960   6.472  65.063  1.00  0.00    -0.121 C  
BRANCH  13  14
HETATM   14  N   UNL     1      -7.681   5.119  65.486  1.00  0.00    -0.086 NA 
HETATM   15  C   UNL     1      -6.733   4.730  66.393  1.00  0.00    -0.054 A  
HETATM   16  N   UNL     1      -6.671   3.417  66.498  1.00  0.00    -0.051 NA 
HETATM   17  C   UNL     1      -7.592   2.948  65.589  1.00  0.00    -0.073 A  
HETATM   18  C   UNL     1      -7.982   1.675  65.201  1.00  0.00    -0.073 A  
HETATM   19  N   UNL     1      -8.918   1.531  64.225  1.00  0.00    -0.095 NA 
HETATM   20  C   UNL     1      -9.436   2.634  63.656  1.00  0.00    -0.109 A  
HETATM   21  N   UNL     1      -9.163   3.907  63.980  1.00  0.00    -0.134 NA 
HETATM   22  N   UNL     1     -10.362   2.428  62.654  1.00  0.00    -0.107 NA 
HETATM   23  H2  UNL     1     -11.115   1.832  62.998  1.00  0.00     0.000 HD 
HETATM   24  H1  UNL     1     -10.755   3.265  62.222  1.00  0.00     0.000 HD 
HETATM   25  C   UNL     1      -8.230   3.991  64.944  1.00  0.00    -0.097 A  
ENDBRANCH  13  14
ENDBRANCH   8  13
ENDBRANCH   4   5
ENDBRANCH   2   4
TORSDOF 6
ENDMDL
MODEL      305
REMARK 921   NORMALIZED FREE ENERGY PREDICTED BY IDOCK:   -1.77 KCAL/MOL
REMARK 922        TOTAL FREE ENERGY PREDICTED BY IDOCK:   -3.40 KCAL/MOL
REMARK 923 INTER-LIGAND FREE ENERGY PREDICTED BY IDOCK:   -2.74 KCAL/MOL
REMARK 924 INTRA-LIGAND FREE ENERGY PREDICTED BY IDOCK:   -0.66 KCAL/MOL
REMARK 927      BINDING AFFINITY PREDICTED BY RF-SCORE:    0.00 PKD
ROOT
HETATM    1  C   UNL     1      -9.878   4.490  66.154  1.00  0.00    -0.243 C  
HETATM    2  C   UNL     1      -9.549   5.949  66.257  1.00  0.00    -0.119 C  
HETATM    3  O   UNL     1     -10.383   6.834  66.379  1.00  0.00    -0.083 OA 
ENDROOT
BRANCH   2   4
HETATM    4  O   UNL     1      -8.205   6.140  66.160  1.00  0.00    -0.110 OA 
BRANCH   4   5
HETATM    5  C   UNL     1      -7.701   7.329  66.792  1.00  0.00    -0.109 C  
HETATM    6  C   UNL     1      -7.849   7.271  68.326  1.00  0.00    -0.122 C  
HETATM    7  C   UNL     1      -7.408   8.633  68.908  1.00  0.00    -0.082 C  
HETATM    8  C   UNL     1      -7.073   6.057  68.895  1.00  0.00    -0.081 C  
BRANCH   7   9
HETATM    9  O   UNL     1      -7.522   8.710  70.337  1.00  0.00    -0.059 OA 
BRANCH   9  10
HETATM   10  C   UNL     1      -8.728   9.078  70.846  1.00  0.00    -0.229 C  
HETATM   11  O   UNL     1      -9.156   8.760  71.944  1.00  0.00    -0.248 OA 
HETATM   12  C   UNL     1      -9.445   9.993  69.896  1.00  0.00    -0.221 C  
ENDBRANCH   9  10
ENDBRANCH   7   9
BRANCH   8  13
HETATM   13  C   UNL     1      -7.252   5.847  70.398  1.00  0.00    -0.072 C  
BRANCH  13  14
HETATM   14  N   UNL     1      -8.479   5.162  70.738  1.00  0.00    -0.114 NA 
HETATM   15  C   UNL     1      -9.737   5.492  70.315  1.00  0.00    -0.183 A  
HETATM   16  N   UNL     1     -10.653   4.723  70.870  1.00  0.00    -0.032 NA 
HETATM   17  C   UNL     1      -9.952   3.893  71.713  1.00  0.00    -0.163 A  
HETATM   18  C   UNL     1     -10.330   2.889  72.592  1.00  0.00    -0.137 A  
HETATM   19  N   UNL     1      -9.382   2.257  73.334  1.00  0.00    -0.079 NA 
HETATM   20  C   UNL     1      -8.097   2.631  73.197  1.00  0.00    -0.059 A  
HETATM   21  N   UNL     1      -7.616   3.556  72.353  1.00  0.00    -0.057 NA 
HETATM   22  N   UNL     1      -7.181   1.974  73.994  1.00  0.00    -0.028 NA 
HETATM   23  H2  UNL     1      -7.263   0.967  73.854  1.00  0.00     0.000 HD 
HETATM   24  H1  UNL     1      -6.207   2.257  73.891  1.00  0.00     0.000 HD 
HETATM   25  C   UNL     1      -8.595   4.152  71.651  1.00  0.00    -0.107 A  
ENDBRANCH  13  14
ENDBRANCH   8  13
ENDBRANCH   4   5
ENDBRANCH   2   4
TORSDOF 6
ENDMDL
MODEL      306
REMARK 921   NORMALIZED FREE ENERGY PREDICTED BY IDOCK:   -1.68 KCAL/MOL
REMARK 922        TOTAL FREE ENERGY PREDICTED BY IDOCK:   -3.28 KCAL/MOL
REMARK 923 INTER-LIGAND FREE ENERGY PREDICTED BY IDOCK:   -2.57 KCAL/MOL
REMARK 924 INTRA-LIGAND FREE ENERGY PREDICTED BY IDOCK:   -0.71 KCAL/MOL
REMARK 927      BINDING AFFINITY PREDICTED BY RF-SCORE:    0.00 PKD
ROOT
HETATM    1  C   UNL     1      -9.519  16.518  67.935  1.00  0.00    -0.220 C  
HETATM    2  C   UNL     1      -8.120  16.199  68.368  1.00  0.00    -0.171 C  
HETATM    3  O   UNL     1      -7.512  16.813  69.233  1.00  0.00    -0.229 OA 
ENDROOT
BRANCH   2   4
HETATM    4  O   UNL     1      -7.623  15.163  67.639  1.00  0.00    -0.140 OA 
BRANCH   4   5
HETATM    5  C   UNL     1      -6.517  14.462  68.234  1.00  0.00    -0.115 C  
HETATM    6  C   UNL     1      -6.981  13.222  69.025  1.00  0.00    -0.075 C  
HETATM    7  C   UNL     1      -5.752  12.611  69.734  1.00  0.00    -0.112 C  
HETATM    8  C   UNL     1      -7.729  12.239  68.091  1.00  0.00    -0.138 C  
BRANCH   7   9
HETATM    9  O   UNL     1      -6.063  11.454  70.526  1.00  0.00    -0.258 OA 
BRANCH   9  10
HETATM   10  C   UNL     1      -5.573  11.419  71.793  1.00  0.00     0.523 C  
HETATM   11  O   UNL     1      -5.351  12.397  72.490  1.00  0.00    -0.301 OA 
HETATM   12  C   UNL     1      -5.401  10.001  72.254  1.00  0.00     0.090 C  
ENDBRANCH   9  10
ENDBRANCH   7   9
BRANCH   8  13
HETATM   13  C   UNL     1      -8.329  11.028  68.806  1.00  0.00    -0.144 C  
BRANCH  13  14
HETATM   14  N   UNL     1      -9.309  10.322  68.012  1.00  0.00    -0.138 NA 
HETATM   15  C   UNL     1     -10.373  10.876  67.354  1.00  0.00    -0.211 A  
HETATM   16  N   UNL     1     -11.128   9.955  66.790  1.00  0.00     0.090 NA 
HETATM   17  C   UNL     1     -10.542   8.759  67.137  1.00  0.00    -0.233 A  
HETATM   18  C   UNL     1     -10.864   7.433  66.885  1.00  0.00    -0.153 A  
HETATM   19  N   UNL     1     -10.089   6.447  67.408  1.00  0.00    -0.142 NA 
HETATM   20  C   UNL     1      -9.030   6.787  68.165  1.00  0.00    -0.118 A  
HETATM   21  N   UNL     1      -8.605   8.030  68.438  1.00  0.00    -0.127 NA 
HETATM   22  N   UNL     1      -8.294   5.744  68.692  1.00  0.00    -0.107 NA 
HETATM   23  H2  UNL     1      -7.995   5.121  67.942  1.00  0.00     0.000 HD 
HETATM   24  H1  UNL     1      -7.491   6.002  69.266  1.00  0.00     0.000 HD 
HETATM   25  C   UNL     1      -9.410   8.964  67.903  1.00  0.00    -0.141 A  
ENDBRANCH  13  14
ENDBRANCH   8  13
ENDBRANCH   4   5
ENDBRANCH   2   4
TORSDOF 6
ENDMDL
MODEL      307
REMARK 921   NORMALIZED FREE ENERGY PREDICTED BY IDOCK:   -1.68 KCAL/MOL
REMARK 922        TOTAL FREE ENERGY PREDICTED BY IDOCK:   -3.28 KCAL/MOL
REMARK 923 INTER-LIGAND FREE ENERGY PREDICTED BY IDOCK:   -2.95 KCAL/MOL
REMARK 924 INTRA-LIGAND FREE ENERGY PREDICTED BY IDOCK:   -0.33 KCAL/MOL
REMARK 927      BINDING AFFINITY PREDICTED BY RF-SCORE:    0.00 PKD
ROOT
HETATM    1  C   UNL     1      -9.842   8.868  71.291  1.00  0.00    -0.361 C  
HETATM    2  C   UNL     1     -10.361   9.299  69.953  1.00  0.00    -0.220 C  
HETATM    3  O   UNL     1     -11.035  10.302  69.767  1.00  0.00    -0.249 OA 
ENDROOT
BRANCH   2   4
HETATM    4  O   UNL     1     -10.006   8.400  68.995  1.00  0.00    -0.179 OA 
BRANCH   4   5
HETATM    5  C   UNL     1      -8.716   7.788  69.168  1.00  0.00    -0.139 C  
HETATM    6  C   UNL     1      -8.800   6.249  69.135  1.00  0.00    -0.128 C  
HETATM    7  C   UNL     1      -7.402   5.679  69.459  1.00  0.00    -0.067 C  
HETATM    8  C   UNL     1      -9.381   5.772  67.780  1.00  0.00    -0.105 C  
BRANCH   7   9
HETATM    9  O   UNL     1      -7.357   4.244  69.479  1.00  0.00    -0.050 OA 
BRANCH   9  10
HETATM   10  C   UNL     1      -6.210   3.651  69.055  1.00  0.00    -0.028 C  
HETATM   11  O   UNL     1      -5.656   2.714  69.606  1.00  0.00    -0.016 OA 
HETATM   12  C   UNL     1      -5.742   4.265  67.767  1.00  0.00    -0.022 C  
ENDBRANCH   9  10
ENDBRANCH   7   9
BRANCH   8  13
HETATM   13  C   UNL     1      -9.611   4.263  67.692  1.00  0.00    -0.165 C  
BRANCH  13  14
HETATM   14  N   UNL     1      -8.985   3.655  66.540  1.00  0.00    -0.137 NA 
HETATM   15  C   UNL     1      -8.582   2.353  66.426  1.00  0.00    -0.114 A  
HETATM   16  N   UNL     1      -7.969   2.133  65.280  1.00  0.00    -0.077 NA 
HETATM   17  C   UNL     1      -7.944   3.358  64.654  1.00  0.00    -0.086 A  
HETATM   18  C   UNL     1      -7.423   3.799  63.446  1.00  0.00    -0.055 A  
HETATM   19  N   UNL     1      -7.529   5.112  63.112  1.00  0.00    -0.049 NA 
HETATM   20  C   UNL     1      -8.134   5.952  63.970  1.00  0.00    -0.102 A  
HETATM   21  N   UNL     1      -8.707   5.629  65.139  1.00  0.00    -0.131 NA 
HETATM   22  N   UNL     1      -8.191   7.278  63.591  1.00  0.00    -0.349 NA 
HETATM   23  H2  UNL     1      -8.624   7.355  62.671  1.00  0.00     0.000 HD 
HETATM   24  H1  UNL     1      -8.649   7.916  64.242  1.00  0.00     0.000 HD 
HETATM   25  C   UNL     1      -8.568   4.323  65.423  1.00  0.00    -0.120 A  
ENDBRANCH  13  14
ENDBRANCH   8  13
ENDBRANCH   4   5
ENDBRANCH   2   4
TORSDOF 6
ENDMDL
MODEL      308
REMARK 921   NORMALIZED FREE ENERGY PREDICTED BY IDOCK:   -1.56 KCAL/MOL
REMARK 922        TOTAL FREE ENERGY PREDICTED BY IDOCK:   -3.11 KCAL/MOL
REMARK 923 INTER-LIGAND FREE ENERGY PREDICTED BY IDOCK:   -3.60 KCAL/MOL
REMARK 924 INTRA-LIGAND FREE ENERGY PREDICTED BY IDOCK:    0.49 KCAL/MOL
REMARK 927      BINDING AFFINITY PREDICTED BY RF-SCORE:    0.00 PKD
ROOT
HETATM    1  C   UNL     1     -10.618   9.855  71.140  1.00  0.00    -0.066 C  
HETATM    2  C   UNL     1     -10.876   8.730  70.183  1.00  0.00    -0.227 C  
HETATM    3  O   UNL     1     -10.354   7.628  70.261  1.00  0.00    -0.207 OA 
ENDROOT
BRANCH   2   4
HETATM    4  O   UNL     1     -11.739   9.127  69.207  1.00  0.00     0.424 OA 
BRANCH   4   5
HETATM    5  C   UNL     1     -11.586  10.486  68.760  1.00  0.00    -0.182 C  
HETATM    6  C   UNL     1     -10.104  10.857  68.547  1.00  0.00    -0.193 C  
HETATM    7  C   UNL     1     -10.026  12.360  68.199  1.00  0.00    -0.215 C  
HETATM    8  C   UNL     1      -9.465   9.926  67.486  1.00  0.00    -0.173 C  
BRANCH   7   9
HETATM    9  O   UNL     1      -8.685  12.833  67.997  1.00  0.00    -0.178 OA 
BRANCH   9  10
HETATM   10  C   UNL     1      -8.513  14.175  67.872  1.00  0.00    -0.167 C  
HETATM   11  O   UNL     1      -9.309  15.026  68.237  1.00  0.00    -0.183 OA 
HETATM   12  C   UNL     1      -7.168  14.483  67.278  1.00  0.00    -0.053 C  
ENDBRANCH   9  10
ENDBRANCH   7   9
BRANCH   8  13
HETATM   13  C   UNL     1      -7.965  10.141  67.286  1.00  0.00    -0.110 C  
BRANCH  13  14
HETATM   14  N   UNL     1      -7.547  10.007  65.908  1.00  0.00    -0.108 NA 
HETATM   15  C   UNL     1      -6.349   9.518  65.466  1.00  0.00    -0.067 A  
HETATM   16  N   UNL     1      -6.242   9.607  64.155  1.00  0.00    -0.098 NA 
HETATM   17  C   UNL     1      -7.406  10.216  63.748  1.00  0.00    -0.113 A  
HETATM   18  C   UNL     1      -7.890  10.614  62.510  1.00  0.00    -0.144 A  
HETATM   19  N   UNL     1      -9.094  11.240  62.432  1.00  0.00    -0.266 NA 
HETATM   20  C   UNL     1      -9.783  11.463  63.566  1.00  0.00    -0.339 A  
HETATM   21  N   UNL     1      -9.432  11.087  64.805  1.00  0.00    -0.223 NA 
HETATM   22  N   UNL     1     -10.986  12.125  63.430  1.00  0.00    -0.611 NA 
HETATM   23  H2  UNL     1     -11.577  11.632  62.760  1.00  0.00     0.000 HD 
HETATM   24  H1  UNL     1     -11.509  12.294  64.290  1.00  0.00     0.000 HD 
HETATM   25  C   UNL     1      -8.233  10.479  64.825  1.00  0.00    -0.100 A  
ENDBRANCH  13  14
ENDBRANCH   8  13
ENDBRANCH   4   5
ENDBRANCH   2   4
TORSDOF 6
ENDMDL
MODEL      309
REMARK 921   NORMALIZED FREE ENERGY PREDICTED BY IDOCK:   -1.49 KCAL/MOL
REMARK 922        TOTAL FREE ENERGY PREDICTED BY IDOCK:   -3.03 KCAL/MOL
REMARK 923 INTER-LIGAND FREE ENERGY PREDICTED BY IDOCK:   -3.13 KCAL/MOL
REMARK 924 INTRA-LIGAND FREE ENERGY PREDICTED BY IDOCK:    0.11 KCAL/MOL
REMARK 927      BINDING AFFINITY PREDICTED BY RF-SCORE:    0.00 PKD
ROOT
HETATM    1  C   UNL     1     -10.499   9.455  71.546  1.00  0.00    -0.299 C  
HETATM    2  C   UNL     1     -10.833   9.506  70.085  1.00  0.00    -0.258 C  
HETATM    3  O   UNL     1     -11.537  10.363  69.572  1.00  0.00    -0.247 OA 
ENDROOT
BRANCH   2   4
HETATM    4  O   UNL     1     -10.272   8.451  69.434  1.00  0.00    -0.198 OA 
BRANCH   4   5
HETATM    5  C   UNL     1      -9.013   7.997  69.959  1.00  0.00    -0.144 C  
HETATM    6  C   UNL     1      -9.043   6.495  70.309  1.00  0.00    -0.155 C  
HETATM    7  C   UNL     1      -7.704   6.127  70.984  1.00  0.00    -0.102 C  
HETATM    8  C   UNL     1      -9.369   5.658  69.047  1.00  0.00    -0.150 C  
BRANCH   7   9
HETATM    9  O   UNL     1      -7.620   4.749  71.378  1.00  0.00    -0.074 OA 
BRANCH   9  10
HETATM   10  C   UNL     1      -7.026   4.478  72.570  1.00  0.00    -0.061 C  
HETATM   11  O   UNL     1      -5.830   4.572  72.798  1.00  0.00    -0.011 OA 
HETATM   12  C   UNL     1      -8.052   4.107  73.601  1.00  0.00    -0.089 C  
ENDBRANCH   9  10
ENDBRANCH   7   9
BRANCH   8  13
HETATM   13  C   UNL     1      -9.535   4.161  69.313  1.00  0.00    -0.188 C  
BRANCH  13  14
HETATM   14  N   UNL     1      -9.190   3.337  68.177  1.00  0.00    -0.174 NA 
HETATM   15  C   UNL     1      -8.843   2.014  68.208  1.00  0.00    -0.109 A  
HETATM   16  N   UNL     1      -8.504   1.573  67.013  1.00  0.00    -0.082 NA 
HETATM   17  C   UNL     1      -8.602   2.672  66.191  1.00  0.00    -0.111 A  
HETATM   18  C   UNL     1      -8.356   2.877  64.841  1.00  0.00    -0.088 A  
HETATM   19  N   UNL     1      -8.515   4.119  64.314  1.00  0.00    -0.102 NA 
HETATM   20  C   UNL     1      -8.900   5.123  65.123  1.00  0.00    -0.146 A  
HETATM   21  N   UNL     1      -9.203   5.030  66.426  1.00  0.00    -0.133 NA 
HETATM   22  N   UNL     1      -9.020   6.367  64.539  1.00  0.00    -0.070 NA 
HETATM   23  H2  UNL     1      -9.646   6.313  63.736  1.00  0.00     0.000 HD 
HETATM   24  H1  UNL     1      -9.312   7.129  65.152  1.00  0.00     0.000 HD 
HETATM   25  C   UNL     1      -9.023   3.784  66.897  1.00  0.00    -0.142 A  
ENDBRANCH  13  14
ENDBRANCH   8  13
ENDBRANCH   4   5
ENDBRANCH   2   4
TORSDOF 6
ENDMDL
MODEL      310
REMARK 921   NORMALIZED FREE ENERGY PREDICTED BY IDOCK:   -1.41 KCAL/MOL
REMARK 922        TOTAL FREE ENERGY PREDICTED BY IDOCK:   -2.92 KCAL/MOL
REMARK 923 INTER-LIGAND FREE ENERGY PREDICTED BY IDOCK:   -2.64 KCAL/MOL
REMARK 924 INTRA-LIGAND FREE ENERGY PREDICTED BY IDOCK:   -0.28 KCAL/MOL
REMARK 927      BINDING AFFINITY PREDICTED BY RF-SCORE:    0.00 PKD
ROOT
HETATM    1  C   UNL     1      -9.750  10.000  68.687  1.00  0.00    -0.165 C  
HETATM    2  C   UNL     1      -9.253  10.345  67.316  1.00  0.00    -0.142 C  
HETATM    3  O   UNL     1      -9.506  11.392  66.737  1.00  0.00    -0.176 OA 
ENDROOT
BRANCH   2   4
HETATM    4  O   UNL     1      -8.519   9.319  66.805  1.00  0.00    -0.124 OA 
BRANCH   4   5
HETATM    5  C   UNL     1      -9.238   8.093  66.586  1.00  0.00    -0.180 C  
HETATM    6  C   UNL     1      -8.432   6.863  67.051  1.00  0.00    -0.121 C  
HETATM    7  C   UNL     1      -9.217   5.592  66.660  1.00  0.00    -0.134 C  
HETATM    8  C   UNL     1      -8.113   6.972  68.564  1.00  0.00    -0.124 C  
BRANCH   7   9
HETATM    9  O   UNL     1      -8.552   4.372  67.024  1.00  0.00    -0.104 OA 
BRANCH   9  10
HETATM   10  C   UNL     1      -7.963   3.663  66.025  1.00  0.00    -0.093 C  
HETATM   11  O   UNL     1      -8.557   3.035  65.163  1.00  0.00    -0.096 OA 
HETATM   12  C   UNL     1      -6.470   3.810  66.082  1.00  0.00    -0.037 C  
ENDBRANCH   9  10
ENDBRANCH   7   9
BRANCH   8  13
HETATM   13  C   UNL     1      -7.217   5.853  69.097  1.00  0.00    -0.078 C  
BRANCH  13  14
HETATM   14  N   UNL     1      -7.889   4.980  70.033  1.00  0.00    -0.070 NA 
HETATM   15  C   UNL     1      -8.455   3.768  69.751  1.00  0.00    -0.059 A  
HETATM   16  N   UNL     1      -9.064   3.259  70.804  1.00  0.00    -0.102 NA 
HETATM   17  C   UNL     1      -8.914   4.207  71.789  1.00  0.00    -0.119 A  
HETATM   18  C   UNL     1      -9.344   4.289  73.106  1.00  0.00    -0.113 A  
HETATM   19  N   UNL     1      -9.060   5.401  73.834  1.00  0.00    -0.123 NA 
HETATM   20  C   UNL     1      -8.371   6.399  73.252  1.00  0.00    -0.118 A  
HETATM   21  N   UNL     1      -7.874   6.409  72.006  1.00  0.00    -0.099 NA 
HETATM   22  N   UNL     1      -8.134   7.513  74.030  1.00  0.00    -0.145 NA 
HETATM   23  H2  UNL     1      -7.672   7.237  74.897  1.00  0.00     0.000 HD 
HETATM   24  H1  UNL     1      -7.612   8.271  73.589  1.00  0.00     0.000 HD 
HETATM   25  C   UNL     1      -8.189   5.291  71.330  1.00  0.00    -0.119 A  
ENDBRANCH  13  14
ENDBRANCH   8  13
ENDBRANCH   4   5
ENDBRANCH   2   4
TORSDOF 6
ENDMDL
MODEL      311
REMARK 921   NORMALIZED FREE ENERGY PREDICTED BY IDOCK:   -1.40 KCAL/MOL
REMARK 922        TOTAL FREE ENERGY PREDICTED BY IDOCK:   -2.90 KCAL/MOL
REMARK 923 INTER-LIGAND FREE ENERGY PREDICTED BY IDOCK:   -2.02 KCAL/MOL
REMARK 924 INTRA-LIGAND FREE ENERGY PREDICTED BY IDOCK:   -0.87 KCAL/MOL
REMARK 927      BINDING AFFINITY PREDICTED BY RF-SCORE:    0.00 PKD
ROOT
HETATM    1  C   UNL     1      -9.864   4.471  66.159  1.00  0.00    -0.243 C  
HETATM    2  C   UNL     1      -9.534   5.918  66.371  1.00  0.00    -0.155 C  
HETATM    3  O   UNL     1     -10.352   6.769  66.688  1.00  0.00    -0.211 OA 
ENDROOT
BRANCH   2   4
HETATM    4  O   UNL     1      -8.215   6.144  66.126  1.00  0.00    -0.110 OA 
BRANCH   4   5
HETATM    5  C   UNL     1      -7.607   7.179  66.919  1.00  0.00    -0.101 C  
HETATM    6  C   UNL     1      -7.320   6.707  68.358  1.00  0.00    -0.087 C  
HETATM    7  C   UNL     1      -6.795   7.913  69.168  1.00  0.00    -0.052 C  
HETATM    8  C   UNL     1      -6.364   5.488  68.343  1.00  0.00    -0.038 C  
BRANCH   7   9
HETATM    9  O   UNL     1      -6.509   7.602  70.541  1.00  0.00    -0.038 OA 
BRANCH   9  10
HETATM   10  C   UNL     1      -7.508   7.795  71.442  1.00  0.00    -0.076 C  
HETATM   11  O   UNL     1      -8.613   8.245  71.184  1.00  0.00    -0.123 OA 
HETATM   12  C   UNL     1      -7.092   7.315  72.803  1.00  0.00    -0.068 C  
ENDBRANCH   9  10
ENDBRANCH   7   9
BRANCH   8  13
HETATM   13  C   UNL     1      -6.108   4.874  69.720  1.00  0.00    -0.022 C  
BRANCH  13  14
HETATM   14  N   UNL     1      -6.896   3.689  69.972  1.00  0.00    -0.034 NA 
HETATM   15  C   UNL     1      -7.047   2.620  69.133  1.00  0.00    -0.044 A  
HETATM   16  N   UNL     1      -7.898   1.738  69.619  1.00  0.00    -0.042 NA 
HETATM   17  C   UNL     1      -8.338   2.288  70.800  1.00  0.00    -0.049 A  
HETATM   18  C   UNL     1      -9.251   1.876  71.760  1.00  0.00    -0.090 A  
HETATM   19  N   UNL     1      -9.505   2.677  72.829  1.00  0.00    -0.094 NA 
HETATM   20  C   UNL     1      -8.865   3.856  72.921  1.00  0.00    -0.098 A  
HETATM   21  N   UNL     1      -7.938   4.334  72.078  1.00  0.00    -0.088 NA 
HETATM   22  N   UNL     1      -9.181   4.640  74.013  1.00  0.00    -0.114 NA 
HETATM   23  H2  UNL     1      -9.045   4.106  74.871  1.00  0.00     0.000 HD 
HETATM   24  H1  UNL     1      -8.696   5.535  74.083  1.00  0.00     0.000 HD 
HETATM   25  C   UNL     1      -7.731   3.507  71.039  1.00  0.00    -0.047 A  
ENDBRANCH  13  14
ENDBRANCH   8  13
ENDBRANCH   4   5
ENDBRANCH   2   4
TORSDOF 6
ENDMDL
MODEL      312
REMARK 921   NORMALIZED FREE ENERGY PREDICTED BY IDOCK:   -0.73 KCAL/MOL
REMARK 922        TOTAL FREE ENERGY PREDICTED BY IDOCK:   -1.99 KCAL/MOL
REMARK 923 INTER-LIGAND FREE ENERGY PREDICTED BY IDOCK:   -3.15 KCAL/MOL
REMARK 924 INTRA-LIGAND FREE ENERGY PREDICTED BY IDOCK:    1.16 KCAL/MOL
REMARK 927      BINDING AFFINITY PREDICTED BY RF-SCORE:    0.00 PKD
ROOT
HETATM    1  C   UNL     1      -9.668   4.532  66.237  1.00  0.00    -0.216 C  
HETATM    2  C   UNL     1      -9.006   5.877  66.201  1.00  0.00    -0.151 C  
HETATM    3  O   UNL     1      -9.575   6.929  66.452  1.00  0.00    -0.166 OA 
ENDROOT
BRANCH   2   4
HETATM    4  O   UNL     1      -7.706   5.755  65.816  1.00  0.00    -0.090 OA 
BRANCH   4   5
HETATM    5  C   UNL     1      -6.991   6.992  65.650  1.00  0.00    -0.056 C  
HETATM    6  C   UNL     1      -7.322   8.001  66.767  1.00  0.00    -0.089 C  
HETATM    7  C   UNL     1      -6.618   9.336  66.439  1.00  0.00    -0.067 C  
HETATM    8  C   UNL     1      -6.951   7.411  68.151  1.00  0.00    -0.075 C  
BRANCH   7   9
HETATM    9  O   UNL     1      -6.871  10.370  67.404  1.00  0.00    -0.074 OA 
BRANCH   9  10
HETATM   10  C   UNL     1      -8.143  10.838  67.495  1.00  0.00    -0.111 C  
HETATM   11  O   UNL     1      -8.584  11.507  68.416  1.00  0.00    -0.151 OA 
HETATM   12  C   UNL     1      -8.929  10.477  66.267  1.00  0.00    -0.174 C  
ENDBRANCH   9  10
ENDBRANCH   7   9
BRANCH   8  13
HETATM   13  C   UNL     1      -7.347   8.293  69.336  1.00  0.00    -0.074 C  
BRANCH  13  14
HETATM   14  N   UNL     1      -8.654   7.980  69.870  1.00  0.00    -0.133 NA 
HETATM   15  C   UNL     1      -9.766   8.772  69.812  1.00  0.00    -0.177 A  
HETATM   16  N   UNL     1     -10.778   8.237  70.467  1.00  0.00    -0.221 NA 
HETATM   17  C   UNL     1     -10.276   7.071  70.998  1.00  0.00    -0.196 A  
HETATM   18  C   UNL     1     -10.819   6.080  71.803  1.00  0.00    -0.260 A  
HETATM   19  N   UNL     1     -10.039   5.041  72.202  1.00  0.00    -0.189 NA 
HETATM   20  C   UNL     1      -8.753   5.007  71.808  1.00  0.00    -0.129 A  
HETATM   21  N   UNL     1      -8.138   5.885  71.002  1.00  0.00    -0.119 NA 
HETATM   22  N   UNL     1      -8.002   3.943  72.264  1.00  0.00    -0.079 NA 
HETATM   23  H2  UNL     1      -8.461   3.066  72.017  1.00  0.00     0.000 HD 
HETATM   24  H1  UNL     1      -7.027   3.917  71.966  1.00  0.00     0.000 HD 
HETATM   25  C   UNL     1      -8.952   6.893  70.643  1.00  0.00    -0.151 A  
ENDBRANCH  13  14
ENDBRANCH   8  13
ENDBRANCH   4   5
ENDBRANCH   2   4
TORSDOF 6
ENDMDL
MODEL      313
REMARK 921   NORMALIZED FREE ENERGY PREDICTED BY IDOCK:   -0.01 KCAL/MOL
REMARK 922        TOTAL FREE ENERGY PREDICTED BY IDOCK:   -1.02 KCAL/MOL
REMARK 923 INTER-LIGAND FREE ENERGY PREDICTED BY IDOCK:   -1.59 KCAL/MOL
REMARK 924 INTRA-LIGAND FREE ENERGY PREDICTED BY IDOCK:    0.57 KCAL/MOL
REMARK 927      BINDING AFFINITY PREDICTED BY RF-SCORE:    0.00 PKD
ROOT
HETATM    1  C   UNL     1      -5.127  11.986  66.014  1.00  0.00     0.904 C  
HETATM    2  C   UNL     1      -6.131  11.790  67.109  1.00  0.00    -0.144 C  
HETATM    3  O   UNL     1      -5.959  11.062  68.076  1.00  0.00    -0.049 OA 
ENDROOT
BRANCH   2   4
HETATM    4  O   UNL     1      -7.260  12.504  66.850  1.00  0.00    -0.032 OA 
BRANCH   4   5
HETATM    5  C   UNL     1      -7.496  13.626  67.719  1.00  0.00    -0.168 C  
HETATM    6  C   UNL     1      -8.937  13.634  68.268  1.00  0.00    -0.187 C  
HETATM    7  C   UNL     1      -9.140  14.933  69.078  1.00  0.00    -0.175 C  
HETATM    8  C   UNL     1      -9.214  12.337  69.069  1.00  0.00     0.402 C  
BRANCH   7   9
HETATM    9  O   UNL     1     -10.461  15.067  69.626  1.00  0.00    -0.241 OA 
BRANCH   9  10
HETATM   10  C   UNL     1     -11.500  15.074  68.750  1.00  0.00    -0.319 C  
HETATM   11  O   UNL     1     -11.409  14.883  67.548  1.00  0.00    -0.321 OA 
HETATM   12  C   UNL     1     -12.799  15.284  69.473  1.00  0.00     0.250 C  
ENDBRANCH   9  10
ENDBRANCH   7   9
BRANCH   8  13
HETATM   13  C   UNL     1     -10.655  12.198  69.559  1.00  0.00     0.335 C  
BRANCH  13  14
HETATM   14  N   UNL     1     -11.043  10.829  69.814  1.00  0.00    -0.273 NA 
HETATM   15  C   UNL     1     -12.181  10.412  70.447  1.00  0.00    -0.303 A  
HETATM   16  N   UNL     1     -12.200   9.102  70.598  1.00  0.00    -0.098 NA 
HETATM   17  C   UNL     1     -11.004   8.670  70.073  1.00  0.00    -0.203 A  
HETATM   18  C   UNL     1     -10.411   7.421  69.955  1.00  0.00    -0.226 A  
HETATM   19  N   UNL     1      -9.172   7.319  69.408  1.00  0.00    -0.149 NA 
HETATM   20  C   UNL     1      -8.549   8.439  69.000  1.00  0.00    -0.131 A  
HETATM   21  N   UNL     1      -9.041   9.686  69.028  1.00  0.00    -0.142 NA 
HETATM   22  N   UNL     1      -7.282   8.277  68.475  1.00  0.00    -0.086 NA 
HETATM   23  H2  UNL     1      -7.308   7.601  67.712  1.00  0.00     0.000 HD 
HETATM   24  H1  UNL     1      -6.809   9.127  68.166  1.00  0.00     0.000 HD 
HETATM   25  C   UNL     1     -10.264   9.730  69.583  1.00  0.00    -0.233 A  
ENDBRANCH  13  14
ENDBRANCH   8  13
ENDBRANCH   4   5
ENDBRANCH   2   4
TORSDOF 6
ENDMDL
MODEL      314
REMARK 921   NORMALIZED FREE ENERGY PREDICTED BY IDOCK:    0.01 KCAL/MOL
REMARK 922        TOTAL FREE ENERGY PREDICTED BY IDOCK:   -1.00 KCAL/MOL
REMARK 923 INTER-LIGAND FREE ENERGY PREDICTED BY IDOCK:   -0.90 KCAL/MOL
REMARK 924 INTRA-LIGAND FREE ENERGY PREDICTED BY IDOCK:   -0.10 KCAL/MOL
REMARK 927      BINDING AFFINITY PREDICTED BY RF-SCORE:    0.00 PKD
ROOT
HETATM    1  C   UNL     1      -7.053  19.402  72.316  1.00  0.00     2.626 C  
HETATM    2  C   UNL     1      -6.349  19.961  71.116  1.00  0.00    -0.015 C  
HETATM    3  O   UNL     1      -5.142  20.140  71.050  1.00  0.00    -0.212 OA 
ENDROOT
BRANCH   2   4
HETATM    4  O   UNL     1      -7.247  20.269  70.141  1.00  0.00     0.049 OA 
BRANCH   4   5
HETATM    5  C   UNL     1      -6.945  19.748  68.835  1.00  0.00    -0.332 C  
HETATM    6  C   UNL     1      -7.047  18.210  68.791  1.00  0.00    -0.287 C  
HETATM    7  C   UNL     1      -6.580  17.733  67.398  1.00  0.00    -0.164 C  
HETATM    8  C   UNL     1      -8.478  17.757  69.171  1.00  0.00     0.117 C  
BRANCH   7   9
HETATM    9  O   UNL     1      -6.610  16.305  67.241  1.00  0.00    -0.163 OA 
BRANCH   9  10
HETATM   10  C   UNL     1      -5.815  15.573  68.064  1.00  0.00    -0.136 C  
HETATM   11  O   UNL     1      -5.369  15.954  69.135  1.00  0.00    -0.107 OA 
HETATM   12  C   UNL     1      -5.607  14.193  67.509  1.00  0.00     0.164 C  
ENDBRANCH   9  10
ENDBRANCH   7   9
BRANCH   8  13
HETATM   13  C   UNL     1      -8.651  16.240  69.267  1.00  0.00    -0.148 C  
BRANCH  13  14
HETATM   14  N   UNL     1      -9.869  15.763  68.652  1.00  0.00    -0.204 NA 
HETATM   15  C   UNL     1     -11.075  16.407  68.632  1.00  0.00    -0.352 A  
HETATM   16  N   UNL     1     -12.010  15.670  68.065  1.00  0.00    -0.029 NA 
HETATM   17  C   UNL     1     -11.381  14.489  67.746  1.00  0.00    -0.317 A  
HETATM   18  C   UNL     1     -11.813  13.307  67.161  1.00  0.00    -0.374 A  
HETATM   19  N   UNL     1     -10.938  12.279  67.006  1.00  0.00    -0.256 NA 
HETATM   20  C   UNL     1      -9.672  12.435  67.433  1.00  0.00    -0.193 A  
HETATM   21  N   UNL     1      -9.138  13.542  67.971  1.00  0.00    -0.194 NA 
HETATM   22  N   UNL     1      -8.835  11.349  67.273  1.00  0.00    -0.150 NA 
HETATM   23  H2  UNL     1      -8.836  11.054  66.297  1.00  0.00     0.000 HD 
HETATM   24  H1  UNL     1      -7.875  11.468  67.597  1.00  0.00     0.000 HD 
HETATM   25  C   UNL     1     -10.046  14.523  68.106  1.00  0.00    -0.227 A  
ENDBRANCH  13  14
ENDBRANCH   8  13
ENDBRANCH   4   5
ENDBRANCH   2   4
TORSDOF 6
ENDMDL
MODEL      315
REMARK 921   NORMALIZED FREE ENERGY PREDICTED BY IDOCK:    0.15 KCAL/MOL
REMARK 922        TOTAL FREE ENERGY PREDICTED BY IDOCK:   -0.80 KCAL/MOL
REMARK 923 INTER-LIGAND FREE ENERGY PREDICTED BY IDOCK:   -2.90 KCAL/MOL
REMARK 924 INTRA-LIGAND FREE ENERGY PREDICTED BY IDOCK:    2.10 KCAL/MOL
REMARK 927      BINDING AFFINITY PREDICTED BY RF-SCORE:    0.00 PKD
ROOT
HETATM    1  C   UNL     1      -7.330   4.820  65.143  1.00  0.00    -0.072 C  
HETATM    2  C   UNL     1      -6.380   5.964  65.335  1.00  0.00    -0.038 C  
HETATM    3  O   UNL     1      -5.858   6.251  66.402  1.00  0.00    -0.019 OA 
ENDROOT
BRANCH   2   4
HETATM    4  O   UNL     1      -6.219   6.647  64.168  1.00  0.00    -0.033 OA 
BRANCH   4   5
HETATM    5  C   UNL     1      -7.137   7.733  63.955  1.00  0.00    -0.069 C  
HETATM    6  C   UNL     1      -8.069   7.945  65.165  1.00  0.00    -0.144 C  
HETATM    7  C   UNL     1      -9.100   9.035  64.799  1.00  0.00    -0.028 C  
HETATM    8  C   UNL     1      -7.237   8.259  66.434  1.00  0.00    -0.075 C  
BRANCH   7   9
HETATM    9  O   UNL     1     -10.043   9.308  65.846  1.00  0.00    -0.293 OA 
BRANCH   9  10
HETATM   10  C   UNL     1     -10.242  10.610  66.180  1.00  0.00    -0.248 C  
HETATM   11  O   UNL     1     -10.663  11.005  67.256  1.00  0.00    -0.233 OA 
HETATM   12  C   UNL     1      -9.806  11.515  65.064  1.00  0.00    -0.294 C  
ENDBRANCH   9  10
ENDBRANCH   7   9
BRANCH   8  13
HETATM   13  C   UNL     1      -8.066   8.373  67.714  1.00  0.00    -0.122 C  
BRANCH  13  14
HETATM   14  N   UNL     1      -8.656   7.119  68.126  1.00  0.00    -0.128 NA 
HETATM   15  C   UNL     1      -9.536   6.360  67.405  1.00  0.00    -0.120 A  
HETATM   16  N   UNL     1      -9.955   5.317  68.094  1.00  0.00    -0.154 NA 
HETATM   17  C   UNL     1      -9.346   5.439  69.322  1.00  0.00    -0.120 A  
HETATM   18  C   UNL     1      -9.395   4.688  70.488  1.00  0.00    -0.155 A  
HETATM   19  N   UNL     1      -8.688   5.095  71.575  1.00  0.00    -0.131 NA 
HETATM   20  C   UNL     1      -7.963   6.225  71.491  1.00  0.00    -0.106 A  
HETATM   21  N   UNL     1      -7.812   7.002  70.408  1.00  0.00    -0.106 NA 
HETATM   22  N   UNL     1      -7.287   6.604  72.633  1.00  0.00    -0.088 NA 
HETATM   23  H2  UNL     1      -6.695   5.838  72.953  1.00  0.00     0.000 HD 
HETATM   24  H1  UNL     1      -6.737   7.461  72.570  1.00  0.00     0.000 HD 
HETATM   25  C   UNL     1      -8.535   6.558  69.366  1.00  0.00    -0.127 A  
ENDBRANCH  13  14
ENDBRANCH   8  13
ENDBRANCH   4   5
ENDBRANCH   2   4
TORSDOF 6
ENDMDL
MODEL      316
REMARK 921   NORMALIZED FREE ENERGY PREDICTED BY IDOCK:    0.42 KCAL/MOL
REMARK 922        TOTAL FREE ENERGY PREDICTED BY IDOCK:   -0.44 KCAL/MOL
REMARK 923 INTER-LIGAND FREE ENERGY PREDICTED BY IDOCK:   -2.57 KCAL/MOL
REMARK 924 INTRA-LIGAND FREE ENERGY PREDICTED BY IDOCK:    2.14 KCAL/MOL
REMARK 927      BINDING AFFINITY PREDICTED BY RF-SCORE:    0.00 PKD
ROOT
HETATM    1  C   UNL     1      -5.134  11.754  65.641  1.00  0.00     0.930 C  
HETATM    2  C   UNL     1      -5.833  11.185  66.839  1.00  0.00    -0.092 C  
HETATM    3  O   UNL     1      -5.260  10.680  67.793  1.00  0.00    -0.040 OA 
ENDROOT
BRANCH   2   4
HETATM    4  O   UNL     1      -7.183  11.281  66.690  1.00  0.00    -0.138 OA 
BRANCH   4   5
HETATM    5  C   UNL     1      -7.841  12.193  67.586  1.00  0.00    -0.153 C  
HETATM    6  C   UNL     1      -9.175  11.623  68.109  1.00  0.00    -0.184 C  
HETATM    7  C   UNL     1      -9.871  12.714  68.952  1.00  0.00     0.155 C  
HETATM    8  C   UNL     1      -8.930  10.295  68.868  1.00  0.00    -0.164 C  
BRANCH   7   9
HETATM    9  O   UNL     1     -11.143  12.307  69.480  1.00  0.00    -0.160 OA 
BRANCH   9  10
HETATM   10  C   UNL     1     -11.936  11.550  68.677  1.00  0.00    -0.246 C  
HETATM   11  O   UNL     1     -12.071  11.704  67.473  1.00  0.00    -0.611 OA 
HETATM   12  C   UNL     1     -12.582  10.444  69.461  1.00  0.00     0.270 C  
ENDBRANCH   9  10
ENDBRANCH   7   9
BRANCH   8  13
HETATM   13  C   UNL     1     -10.207   9.591  69.329  1.00  0.00    -0.203 C  
BRANCH  13  14
HETATM   14  N   UNL     1     -10.043   8.165  69.499  1.00  0.00    -0.189 NA 
HETATM   15  C   UNL     1     -10.027   7.225  68.506  1.00  0.00    -0.162 A  
HETATM   16  N   UNL     1      -9.946   6.003  68.996  1.00  0.00    -0.149 NA 
HETATM   17  C   UNL     1      -9.951   6.170  70.361  1.00  0.00    -0.181 A  
HETATM   18  C   UNL     1      -9.917   5.285  71.429  1.00  0.00    -0.185 A  
HETATM   19  N   UNL     1      -9.972   5.767  72.699  1.00  0.00    -0.175 NA 
HETATM   20  C   UNL     1     -10.066   7.096  72.884  1.00  0.00    -0.210 A  
HETATM   21  N   UNL     1     -10.066   8.040  71.932  1.00  0.00    -0.190 NA 
HETATM   22  N   UNL     1     -10.145   7.526  74.193  1.00  0.00    -0.317 NA 
HETATM   23  H2  UNL     1      -9.356   7.160  74.725  1.00  0.00     0.000 HD 
HETATM   24  H1  UNL     1     -10.218   8.534  74.334  1.00  0.00     0.000 HD 
HETATM   25  C   UNL     1     -10.016   7.510  70.698  1.00  0.00    -0.183 A  
ENDBRANCH  13  14
ENDBRANCH   8  13
ENDBRANCH   4   5
ENDBRANCH   2   4
TORSDOF 6
ENDMDL
MODEL      317
REMARK 921   NORMALIZED FREE ENERGY PREDICTED BY IDOCK:    1.41 KCAL/MOL
REMARK 922        TOTAL FREE ENERGY PREDICTED BY IDOCK:    0.89 KCAL/MOL
REMARK 923 INTER-LIGAND FREE ENERGY PREDICTED BY IDOCK:    0.34 KCAL/MOL
REMARK 924 INTRA-LIGAND FREE ENERGY PREDICTED BY IDOCK:    0.55 KCAL/MOL
REMARK 927      BINDING AFFINITY PREDICTED BY RF-SCORE:    0.00 PKD
ROOT
HETATM    1  C   UNL     1      -7.127  19.358  72.340  1.00  0.00     2.738 C  
HETATM    2  C   UNL     1      -6.419  19.958  71.162  1.00  0.00     0.089 C  
HETATM    3  O   UNL     1      -5.204  20.048  71.065  1.00  0.00    -0.216 OA 
ENDROOT
BRANCH   2   4
HETATM    4  O   UNL     1      -7.320  20.414  70.250  1.00  0.00     0.190 OA 
BRANCH   4   5
HETATM    5  C   UNL     1      -7.122  19.954  68.901  1.00  0.00    -0.290 C  
HETATM    6  C   UNL     1      -7.019  18.418  68.828  1.00  0.00    -0.291 C  
HETATM    7  C   UNL     1      -6.677  18.023  67.374  1.00  0.00    -0.181 C  
HETATM    8  C   UNL     1      -8.314  17.766  69.374  1.00  0.00     0.453 C  
BRANCH   7   9
HETATM    9  O   UNL     1      -6.533  16.607  67.182  1.00  0.00    -0.154 OA 
BRANCH   9  10
HETATM   10  C   UNL     1      -5.615  15.966  67.952  1.00  0.00    -0.136 C  
HETATM   11  O   UNL     1      -5.192  16.367  69.025  1.00  0.00    -0.109 OA 
HETATM   12  C   UNL     1      -5.234  14.651  67.336  1.00  0.00     0.381 C  
ENDBRANCH   9  10
ENDBRANCH   7   9
BRANCH   8  13
HETATM   13  C   UNL     1      -8.265  16.240  69.449  1.00  0.00    -0.035 C  
BRANCH  13  14
HETATM   14  N   UNL     1      -9.462  15.604  68.946  1.00  0.00    -0.212 NA 
HETATM   15  C   UNL     1      -9.777  15.389  67.633  1.00  0.00    -0.211 A  
HETATM   16  N   UNL     1     -10.979  14.863  67.502  1.00  0.00    -0.293 NA 
HETATM   17  C   UNL     1     -11.467  14.776  68.786  1.00  0.00    -0.301 A  
HETATM   18  C   UNL     1     -12.671  14.341  69.319  1.00  0.00     0.394 A  
HETATM   19  N   UNL     1     -12.873  14.413  70.661  1.00  0.00    -0.349 NA 
HETATM   20  C   UNL     1     -11.895  14.914  71.437  1.00  0.00    -0.350 A  
HETATM   21  N   UNL     1     -10.683  15.324  71.036  1.00  0.00    -0.148 NA 
HETATM   22  N   UNL     1     -12.165  14.988  72.789  1.00  0.00    -0.349 NA 
HETATM   23  H2  UNL     1     -12.443  14.070  73.136  1.00  0.00     0.000 HD 
HETATM   24  H1  UNL     1     -11.424  15.368  73.378  1.00  0.00     0.000 HD 
HETATM   25  C   UNL     1     -10.540  15.237  69.702  1.00  0.00    -0.276 A  
ENDBRANCH  13  14
ENDBRANCH   8  13
ENDBRANCH   4   5
ENDBRANCH   2   4
TORSDOF 6
ENDMDL
MODEL      318
REMARK 921   NORMALIZED FREE ENERGY PREDICTED BY IDOCK:    1.92 KCAL/MOL
REMARK 922        TOTAL FREE ENERGY PREDICTED BY IDOCK:    1.59 KCAL/MOL
REMARK 923 INTER-LIGAND FREE ENERGY PREDICTED BY IDOCK:   -1.29 KCAL/MOL
REMARK 924 INTRA-LIGAND FREE ENERGY PREDICTED BY IDOCK:    2.88 KCAL/MOL
REMARK 927      BINDING AFFINITY PREDICTED BY RF-SCORE:    0.00 PKD
ROOT
HETATM    1  C   UNL     1      -7.450  17.891  65.380  1.00  0.00     0.679 C  
HETATM    2  C   UNL     1      -8.075  19.133  65.941  1.00  0.00    -0.068 C  
HETATM    3  O   UNL     1      -9.194  19.177  66.430  1.00  0.00    -0.330 OA 
ENDROOT
BRANCH   2   4
HETATM    4  O   UNL     1      -7.235  20.194  65.794  1.00  0.00    -0.295 OA 
BRANCH   4   5
HETATM    5  C   UNL     1      -6.097  20.210  66.673  1.00  0.00    -0.176 C  
HETATM    6  C   UNL     1      -6.362  19.421  67.971  1.00  0.00    -0.241 C  
HETATM    7  C   UNL     1      -5.146  19.601  68.905  1.00  0.00    -0.190 C  
HETATM    8  C   UNL     1      -6.698  17.944  67.643  1.00  0.00    -0.192 C  
BRANCH   7   9
HETATM    9  O   UNL     1      -5.285  18.925  70.165  1.00  0.00    -0.188 OA 
BRANCH   9  10
HETATM   10  C   UNL     1      -5.884  19.609  71.175  1.00  0.00    -0.181 C  
HETATM   11  O   UNL     1      -6.503  19.105  72.098  1.00  0.00     0.954 OA 
HETATM   12  C   UNL     1      -5.625  21.083  71.042  1.00  0.00     0.270 C  
ENDBRANCH   9  10
ENDBRANCH   7   9
BRANCH   8  13
HETATM   13  C   UNL     1      -7.089  17.105  68.859  1.00  0.00    -0.242 C  
BRANCH  13  14
HETATM   14  N   UNL     1      -8.516  17.063  69.091  1.00  0.00    -0.109 NA 
HETATM   15  C   UNL     1      -9.310  18.116  69.453  1.00  0.00     0.334 A  
HETATM   16  N   UNL     1     -10.554  17.733  69.669  1.00  0.00     0.291 NA 
HETATM   17  C   UNL     1     -10.541  16.371  69.475  1.00  0.00    -0.320 A  
HETATM   18  C   UNL     1     -11.513  15.386  69.575  1.00  0.00    -0.319 A  
HETATM   19  N   UNL     1     -11.176  14.089  69.349  1.00  0.00    -0.253 NA 
HETATM   20  C   UNL     1      -9.900  13.795  69.040  1.00  0.00     0.105 A  
HETATM   21  N   UNL     1      -8.893  14.666  68.878  1.00  0.00    -0.167 NA 
HETATM   22  N   UNL     1      -9.609  12.460  68.848  1.00  0.00    -0.403 NA 
HETATM   23  H2  UNL     1     -10.233  12.070  68.141  1.00  0.00     0.000 HD 
HETATM   24  H1  UNL     1      -8.642  12.236  68.614  1.00  0.00     0.000 HD 
HETATM   25  C   UNL     1      -9.280  15.931  69.118  1.00  0.00    -0.253 A  
ENDBRANCH  13  14
ENDBRANCH   8  13
ENDBRANCH   4   5
ENDBRANCH   2   4
TORSDOF 6
ENDMDL
MODEL      319
REMARK 921   NORMALIZED FREE ENERGY PREDICTED BY IDOCK:    3.68 KCAL/MOL
REMARK 922        TOTAL FREE ENERGY PREDICTED BY IDOCK:    3.96 KCAL/MOL
REMARK 923 INTER-LIGAND FREE ENERGY PREDICTED BY IDOCK:    1.38 KCAL/MOL
REMARK 924 INTRA-LIGAND FREE ENERGY PREDICTED BY IDOCK:    2.58 KCAL/MOL
REMARK 927      BINDING AFFINITY PREDICTED BY RF-SCORE:    0.00 PKD
ROOT
HETATM    1  C   UNL     1      -7.243  19.347  72.400  1.00  0.00     3.034 C  
HETATM    2  C   UNL     1      -6.729  20.262  71.330  1.00  0.00     0.383 C  
HETATM    3  O   UNL     1      -5.544  20.479  71.123  1.00  0.00    -0.458 OA 
ENDROOT
BRANCH   2   4
HETATM    4  O   UNL     1      -7.765  20.833  70.657  1.00  0.00     1.117 OA 
BRANCH   4   5
HETATM    5  C   UNL     1      -7.962  20.367  69.311  1.00  0.00     0.730 C  
HETATM    6  C   UNL     1      -6.733  19.600  68.783  1.00  0.00    -0.344 C  
HETATM    7  C   UNL     1      -6.978  19.254  67.298  1.00  0.00    -0.199 C  
HETATM    8  C   UNL     1      -6.442  18.371  69.681  1.00  0.00    -0.155 C  
BRANCH   7   9
HETATM    9  O   UNL     1      -5.886  18.552  66.684  1.00  0.00    -0.148 OA 
BRANCH   9  10
HETATM   10  C   UNL     1      -5.700  18.736  65.351  1.00  0.00    -0.209 C  
HETATM   11  O   UNL     1      -5.211  17.918  64.588  1.00  0.00     0.090 OA 
HETATM   12  C   UNL     1      -6.241  20.069  64.920  1.00  0.00    -0.316 C  
ENDBRANCH   9  10
ENDBRANCH   7   9
BRANCH   8  13
HETATM   13  C   UNL     1      -5.171  17.608  69.306  1.00  0.00    -0.178 C  
BRANCH  13  14
HETATM   14  N   UNL     1      -5.421  16.237  68.918  1.00  0.00    -0.115 NA 
HETATM   15  C   UNL     1      -5.721  15.790  67.661  1.00  0.00    -0.124 A  
HETATM   16  N   UNL     1      -5.976  14.497  67.654  1.00  0.00    -0.332 NA 
HETATM   17  C   UNL     1      -5.873  14.111  68.971  1.00  0.00    -0.089 A  
HETATM   18  C   UNL     1      -6.050  12.900  69.624  1.00  0.00    -0.124 A  
HETATM   19  N   UNL     1      -5.908  12.842  70.975  1.00  0.00    -0.297 NA 
HETATM   20  C   UNL     1      -5.605  13.970  71.643  1.00  0.00    -0.233 A  
HETATM   21  N   UNL     1      -5.373  15.179  71.112  1.00  0.00    -0.120 NA 
HETATM   22  N   UNL     1      -5.498  13.858  73.015  1.00  0.00    -0.425 NA 
HETATM   23  H2  UNL     1      -4.826  13.127  73.250  1.00  0.00     0.000 HD 
HETATM   24  H1  UNL     1      -5.269  14.712  73.522  1.00  0.00     0.000 HD 
HETATM   25  C   UNL     1      -5.532  15.181  69.778  1.00  0.00    -0.105 A  
ENDBRANCH  13  14
ENDBRANCH   8  13
ENDBRANCH   4   5
ENDBRANCH   2   4
TORSDOF 6
ENDMDL
MODEL      320
REMARK 921   NORMALIZED FREE ENERGY PREDICTED BY IDOCK:    4.36 KCAL/MOL
REMARK 922        TOTAL FREE ENERGY PREDICTED BY IDOCK:    4.89 KCAL/MOL
REMARK 923 INTER-LIGAND FREE ENERGY PREDICTED BY IDOCK:    4.95 KCAL/MOL
REMARK 924 INTRA-LIGAND FREE ENERGY PREDICTED BY IDOCK:   -0.06 KCAL/MOL
REMARK 927      BINDING AFFINITY PREDICTED BY RF-SCORE:    0.00 PKD
ROOT
HETATM    1  C   UNL     1      -7.205  19.349  72.366  1.00  0.00     3.034 C  
HETATM    2  C   UNL     1      -6.769  20.203  71.214  1.00  0.00     0.332 C  
HETATM    3  O   UNL     1      -5.604  20.374  70.888  1.00  0.00    -0.356 OA 
ENDROOT
BRANCH   2   4
HETATM    4  O   UNL     1      -7.848  20.780  70.618  1.00  0.00     1.234 OA 
BRANCH   4   5
HETATM    5  C   UNL     1      -8.190  20.262  69.321  1.00  0.00     0.630 C  
HETATM    6  C   UNL     1      -8.245  18.721  69.315  1.00  0.00     0.095 C  
HETATM    7  C   UNL     1      -8.486  18.250  67.864  1.00  0.00    -0.254 C  
HETATM    8  C   UNL     1      -9.302  18.217  70.329  1.00  0.00     2.383 C  
BRANCH   7   9
HETATM    9  O   UNL     1      -8.536  16.821  67.724  1.00  0.00    -0.189 OA 
BRANCH   9  10
HETATM   10  C   UNL     1      -8.142  16.299  66.533  1.00  0.00    -0.302 C  
HETATM   11  O   UNL     1      -8.555  15.257  66.050  1.00  0.00    -0.069 OA 
HETATM   12  C   UNL     1      -7.169  17.216  65.849  1.00  0.00     0.035 C  
ENDBRANCH   9  10
ENDBRANCH   7   9
BRANCH   8  13
HETATM   13  C   UNL     1      -9.353  16.696  70.480  1.00  0.00     2.596 C  
BRANCH  13  14
HETATM   14  N   UNL     1     -10.674  16.146  70.280  1.00  0.00    -0.280 NA 
HETATM   15  C   UNL     1     -11.236  15.795  69.083  1.00  0.00    -0.322 A  
HETATM   16  N   UNL     1     -12.486  15.403  69.230  1.00  0.00    -0.071 NA 
HETATM   17  C   UNL     1     -12.745  15.548  70.573  1.00  0.00    -0.388 A  
HETATM   18  C   UNL     1     -13.872  15.336  71.354  1.00  0.00    -0.515 A  
HETATM   19  N   UNL     1     -13.825  15.613  72.684  1.00  0.00    -0.581 NA 
HETATM   20  C   UNL     1     -12.683  16.094  73.206  1.00  0.00    -0.504 A  
HETATM   21  N   UNL     1     -11.528  16.298  72.556  1.00  0.00    -0.159 NA 
HETATM   22  N   UNL     1     -12.701  16.381  74.556  1.00  0.00    -0.949 NA 
HETATM   23  H2  UNL     1     -12.999  15.558  75.080  1.00  0.00     0.000 HD 
HETATM   24  H1  UNL     1     -11.835  16.747  74.953  1.00  0.00     0.000 HD 
HETATM   25  C   UNL     1     -11.631  16.015  71.247  1.00  0.00    -0.449 A  
ENDBRANCH  13  14
ENDBRANCH   8  13
ENDBRANCH   4   5
ENDBRANCH   2   4
TORSDOF 6
ENDMDL
MODEL      321
REMARK 921   NORMALIZED FREE ENERGY PREDICTED BY IDOCK:    6.34 KCAL/MOL
REMARK 922        TOTAL FREE ENERGY PREDICTED BY IDOCK:    7.55 KCAL/MOL
REMARK 923 INTER-LIGAND FREE ENERGY PREDICTED BY IDOCK:    3.51 KCAL/MOL
REMARK 924 INTRA-LIGAND FREE ENERGY PREDICTED BY IDOCK:    4.04 KCAL/MOL
REMARK 927      BINDING AFFINITY PREDICTED BY RF-SCORE:    0.00 PKD
ROOT
HETATM    1  C   UNL     1     -11.157  10.807  65.189  1.00  0.00     0.212 C  
HETATM    2  C   UNL     1     -10.471  12.060  64.735  1.00  0.00    -0.294 C  
HETATM    3  O   UNL     1      -9.354  12.091  64.238  1.00  0.00     0.074 OA 
ENDROOT
BRANCH   2   4
HETATM    4  O   UNL     1     -11.251  13.146  64.989  1.00  0.00    -0.290 OA 
BRANCH   4   5
HETATM    5  C   UNL     1     -10.565  14.288  65.532  1.00  0.00    -0.340 C  
HETATM    6  C   UNL     1     -10.379  14.174  67.059  1.00  0.00    -0.267 C  
HETATM    7  C   UNL     1      -9.758  15.492  67.571  1.00  0.00    -0.215 C  
HETATM    8  C   UNL     1      -9.558  12.908  67.407  1.00  0.00    -0.203 C  
BRANCH   7   9
HETATM    9  O   UNL     1      -9.556  15.517  68.993  1.00  0.00    -0.206 OA 
BRANCH   9  10
HETATM   10  C   UNL     1     -10.649  15.336  69.780  1.00  0.00    -0.282 C  
HETATM   11  O   UNL     1     -10.825  14.393  70.535  1.00  0.00     0.117 OA 
HETATM   12  C   UNL     1     -11.594  16.495  69.647  1.00  0.00     0.139 C  
ENDBRANCH   9  10
ENDBRANCH   7   9
BRANCH   8  13
HETATM   13  C   UNL     1      -9.416  12.645  68.906  1.00  0.00     0.270 C  
BRANCH  13  14
HETATM   14  N   UNL     1      -8.184  13.158  69.463  1.00  0.00     0.998 NA 
HETATM   15  C   UNL     1      -7.608  14.367  69.183  1.00  0.00    -0.072 A  
HETATM   16  N   UNL     1      -6.445  14.502  69.789  1.00  0.00    -0.144 NA 
HETATM   17  C   UNL     1      -6.254  13.311  70.452  1.00  0.00     0.018 A  
HETATM   18  C   UNL     1      -5.225  12.815  71.240  1.00  0.00    -0.163 A  
HETATM   19  N   UNL     1      -5.314  11.554  71.738  1.00  0.00    -0.344 NA 
HETATM   20  C   UNL     1      -6.400  10.816  71.445  1.00  0.00     0.974 A  
HETATM   21  N   UNL     1      -7.466  11.207  70.732  1.00  0.00     1.659 NA 
HETATM   22  N   UNL     1      -6.424   9.534  71.956  1.00  0.00    -0.286 NA 
HETATM   23  H2  UNL     1      -6.291   9.563  72.967  1.00  0.00     0.000 HD 
HETATM   24  H1  UNL     1      -7.247   8.974  71.734  1.00  0.00     0.000 HD 
HETATM   25  C   UNL     1      -7.323  12.457  70.259  1.00  0.00     2.157 A  
ENDBRANCH  13  14
ENDBRANCH   8  13
ENDBRANCH   4   5
ENDBRANCH   2   4
TORSDOF 6
ENDMDL
MODEL      322
REMARK 921   NORMALIZED FREE ENERGY PREDICTED BY IDOCK:    6.87 KCAL/MOL
REMARK 922        TOTAL FREE ENERGY PREDICTED BY IDOCK:    8.27 KCAL/MOL
REMARK 923 INTER-LIGAND FREE ENERGY PREDICTED BY IDOCK:   -1.39 KCAL/MOL
REMARK 924 INTRA-LIGAND FREE ENERGY PREDICTED BY IDOCK:    9.67 KCAL/MOL
REMARK 927      BINDING AFFINITY PREDICTED BY RF-SCORE:    0.00 PKD
ROOT
HETATM    1  C   UNL     1     -11.131  19.022  69.625  1.00  0.00     2.621 C  
HETATM    2  C   UNL     1     -10.529  17.955  68.762  1.00  0.00    -0.210 C  
HETATM    3  O   UNL     1     -11.077  17.473  67.782  1.00  0.00    -0.235 OA 
ENDROOT
BRANCH   2   4
HETATM    4  O   UNL     1      -9.313  17.582  69.249  1.00  0.00    -0.050 OA 
BRANCH   4   5
HETATM    5  C   UNL     1      -8.787  16.351  68.723  1.00  0.00    -0.246 C  
HETATM    6  C   UNL     1      -9.891  15.294  68.519  1.00  0.00    -0.210 C  
HETATM    7  C   UNL     1      -9.222  13.973  68.081  1.00  0.00    -0.196 C  
HETATM    8  C   UNL     1     -10.962  15.821  67.532  1.00  0.00    -0.293 C  
BRANCH   7   9
HETATM    9  O   UNL     1     -10.153  12.898  67.880  1.00  0.00    -0.219 OA 
BRANCH   9  10
HETATM   10  C   UNL     1      -9.724  11.833  67.151  1.00  0.00    -0.183 C  
HETATM   11  O   UNL     1     -10.069  11.577  66.008  1.00  0.00    -0.217 OA 
HETATM   12  C   UNL     1      -8.708  11.040  67.921  1.00  0.00    -0.133 C  
ENDBRANCH   9  10
ENDBRANCH   7   9
BRANCH   8  13
HETATM   13  C   UNL     1     -12.161  14.888  67.352  1.00  0.00     0.004 C  
BRANCH  13  14
HETATM   14  N   UNL     1     -12.273  13.894  68.395  1.00  0.00    -0.275 NA 
HETATM   15  C   UNL     1     -12.280  12.536  68.226  1.00  0.00     0.144 A  
HETATM   16  N   UNL     1     -12.482  11.906  69.366  1.00  0.00     0.042 NA 
HETATM   17  C   UNL     1     -12.651  12.906  70.296  1.00  0.00    -0.013 A  
HETATM   18  C   UNL     1     -12.922  12.905  71.656  1.00  0.00    -0.313 A  
HETATM   19  N   UNL     1     -13.072  14.089  72.309  1.00  0.00    -0.403 NA 
HETATM   20  C   UNL     1     -12.960  15.233  71.610  1.00  0.00    -0.408 A  
HETATM   21  N   UNL     1     -12.661  15.351  70.308  1.00  0.00    -0.352 NA 
HETATM   22  N   UNL     1     -13.147  16.402  72.319  1.00  0.00    -0.032 NA 
HETATM   23  H2  UNL     1     -12.516  16.425  73.120  1.00  0.00     0.000 HD 
HETATM   24  H1  UNL     1     -13.062  17.270  71.789  1.00  0.00     0.000 HD 
HETATM   25  C   UNL     1     -12.530  14.154  69.712  1.00  0.00    -0.216 A  
ENDBRANCH  13  14
ENDBRANCH   8  13
ENDBRANCH   4   5
ENDBRANCH   2   4
TORSDOF 6
ENDMDL
MODEL      323
REMARK 921   NORMALIZED FREE ENERGY PREDICTED BY IDOCK:    7.73 KCAL/MOL
REMARK 922        TOTAL FREE ENERGY PREDICTED BY IDOCK:    9.44 KCAL/MOL
REMARK 923 INTER-LIGAND FREE ENERGY PREDICTED BY IDOCK:    5.58 KCAL/MOL
REMARK 924 INTRA-LIGAND FREE ENERGY PREDICTED BY IDOCK:    3.86 KCAL/MOL
REMARK 927      BINDING AFFINITY PREDICTED BY RF-SCORE:    0.00 PKD
ROOT
HETATM    1  C   UNL     1     -11.114  10.809  65.165  1.00  0.00     0.212 C  
HETATM    2  C   UNL     1     -10.104  11.692  64.497  1.00  0.00    -0.278 C  
HETATM    3  O   UNL     1      -8.986  11.326  64.163  1.00  0.00    -0.047 OA 
ENDROOT
BRANCH   2   4
HETATM    4  O   UNL     1     -10.597  12.952  64.353  1.00  0.00    -0.351 OA 
BRANCH   4   5
HETATM    5  C   UNL     1      -9.630  14.011  64.457  1.00  0.00     1.277 C  
HETATM    6  C   UNL     1      -9.604  14.629  65.870  1.00  0.00    -0.303 C  
HETATM    7  C   UNL     1      -8.640  15.836  65.854  1.00  0.00     0.199 C  
HETATM    8  C   UNL     1      -9.250  13.548  66.922  1.00  0.00    -0.254 C  
BRANCH   7   9
HETATM    9  O   UNL     1      -8.547  16.513  67.117  1.00  0.00    -0.175 OA 
BRANCH   9  10
HETATM   10  C   UNL     1      -9.277  17.649  67.269  1.00  0.00    -0.241 C  
HETATM   11  O   UNL     1     -10.496  17.702  67.313  1.00  0.00    -0.346 OA 
HETATM   12  C   UNL     1      -8.376  18.837  67.447  1.00  0.00    -0.280 C  
ENDBRANCH   9  10
ENDBRANCH   7   9
BRANCH   8  13
HETATM   13  C   UNL     1      -9.310  14.038  68.369  1.00  0.00    -0.210 C  
BRANCH  13  14
HETATM   14  N   UNL     1      -8.045  14.541  68.856  1.00  0.00    -0.145 NA 
HETATM   15  C   UNL     1      -7.362  15.623  68.375  1.00  0.00    -0.116 A  
HETATM   16  N   UNL     1      -6.199  15.770  68.978  1.00  0.00    -0.115 NA 
HETATM   17  C   UNL     1      -6.120  14.712  69.853  1.00  0.00    -0.141 A  
HETATM   18  C   UNL     1      -5.149  14.286  70.748  1.00  0.00    -0.112 A  
HETATM   19  N   UNL     1      -5.354  13.151  71.467  1.00  0.00    -0.304 NA 
HETATM   20  C   UNL     1      -6.497  12.466  71.285  1.00  0.00     2.310 A  
HETATM   21  N   UNL     1      -7.516  12.805  70.482  1.00  0.00     2.397 NA 
HETATM   22  N   UNL     1      -6.640  11.308  72.023  1.00  0.00     2.285 NA 
HETATM   23  H2  UNL     1      -6.517  11.513  73.014  1.00  0.00     0.000 HD 
HETATM   24  H1  UNL     1      -7.507  10.788  71.884  1.00  0.00     0.000 HD 
HETATM   25  C   UNL     1      -7.259  13.929  69.791  1.00  0.00     0.313 A  
ENDBRANCH  13  14
ENDBRANCH   8  13
ENDBRANCH   4   5
ENDBRANCH   2   4
TORSDOF 6
ENDMDL
MODEL      324
REMARK 921   NORMALIZED FREE ENERGY PREDICTED BY IDOCK:    8.13 KCAL/MOL
REMARK 922        TOTAL FREE ENERGY PREDICTED BY IDOCK:    9.97 KCAL/MOL
REMARK 923 INTER-LIGAND FREE ENERGY PREDICTED BY IDOCK:   -2.61 KCAL/MOL
REMARK 924 INTRA-LIGAND FREE ENERGY PREDICTED BY IDOCK:   12.58 KCAL/MOL
REMARK 927      BINDING AFFINITY PREDICTED BY RF-SCORE:    0.00 PKD
ROOT
HETATM    1  C   UNL     1      -9.390  16.727  68.345  1.00  0.00    -0.231 C  
HETATM    2  C   UNL     1      -7.965  16.662  67.884  1.00  0.00    -0.171 C  
HETATM    3  O   UNL     1      -7.624  16.371  66.747  1.00  0.00    -0.209 OA 
ENDROOT
BRANCH   2   4
HETATM    4  O   UNL     1      -7.120  16.935  68.915  1.00  0.00    -0.197 OA 
BRANCH   4   5
HETATM    5  C   UNL     1      -6.035  16.008  69.089  1.00  0.00    -0.127 C  
HETATM    6  C   UNL     1      -6.483  14.550  68.863  1.00  0.00    -0.092 C  
HETATM    7  C   UNL     1      -5.297  13.619  69.198  1.00  0.00    -0.073 C  
HETATM    8  C   UNL     1      -7.040  14.376  67.428  1.00  0.00    -0.121 C  
BRANCH   7   9
HETATM    9  O   UNL     1      -5.601  12.224  69.046  1.00  0.00    -0.061 OA 
BRANCH   9  10
HETATM   10  C   UNL     1      -6.182  11.839  67.879  1.00  0.00    -0.053 C  
HETATM   11  O   UNL     1      -5.717  12.025  66.766  1.00  0.00    -0.249 OA 
HETATM   12  C   UNL     1      -7.453  11.085  68.145  1.00  0.00    -0.092 C  
ENDBRANCH   9  10
ENDBRANCH   7   9
BRANCH   8  13
HETATM   13  C   UNL     1      -7.617  12.989  67.143  1.00  0.00    -0.012 C  
BRANCH  13  14
HETATM   14  N   UNL     1      -8.973  13.026  66.640  1.00  0.00    -0.173 NA 
HETATM   15  C   UNL     1      -9.402  13.662  65.508  1.00  0.00     0.360 A  
HETATM   16  N   UNL     1     -10.711  13.578  65.372  1.00  0.00    -0.295 NA 
HETATM   17  C   UNL     1     -11.138  12.895  66.486  1.00  0.00    -0.286 A  
HETATM   18  C   UNL     1     -12.389  12.511  66.946  1.00  0.00     0.396 A  
HETATM   19  N   UNL     1     -12.494  11.859  68.135  1.00  0.00     0.094 NA 
HETATM   20  C   UNL     1     -11.374  11.609  68.837  1.00  0.00    -0.267 A  
HETATM   21  N   UNL     1     -10.116  11.896  68.470  1.00  0.00    -0.215 NA 
HETATM   22  N   UNL     1     -11.542  10.967  70.048  1.00  0.00    -0.318 NA 
HETATM   23  H2  UNL     1     -12.063  10.101  69.909  1.00  0.00     0.000 HD 
HETATM   24  H1  UNL     1     -10.694  10.778  70.581  1.00  0.00     0.000 HD 
HETATM   25  C   UNL     1     -10.072  12.544  67.294  1.00  0.00    -0.213 A  
ENDBRANCH  13  14
ENDBRANCH   8  13
ENDBRANCH   4   5
ENDBRANCH   2   4
TORSDOF 6
ENDMDL
MODEL      325
REMARK 921   NORMALIZED FREE ENERGY PREDICTED BY IDOCK:    8.50 KCAL/MOL
REMARK 922        TOTAL FREE ENERGY PREDICTED BY IDOCK:   10.47 KCAL/MOL
REMARK 923 INTER-LIGAND FREE ENERGY PREDICTED BY IDOCK:    7.12 KCAL/MOL
REMARK 924 INTRA-LIGAND FREE ENERGY PREDICTED BY IDOCK:    3.35 KCAL/MOL
REMARK 927      BINDING AFFINITY PREDICTED BY RF-SCORE:    0.00 PKD
ROOT
HETATM    1  C   UNL     1      -6.736  19.083  72.704  1.00  0.00     3.203 C  
HETATM    2  C   UNL     1      -6.383  20.160  71.723  1.00  0.00     0.022 C  
HETATM    3  O   UNL     1      -5.259  20.341  71.277  1.00  0.00    -0.245 OA 
ENDROOT
BRANCH   2   4
HETATM    4  O   UNL     1      -7.477  20.916  71.435  1.00  0.00     1.072 OA 
BRANCH   4   5
HETATM    5  C   UNL     1      -7.964  20.813  70.086  1.00  0.00     2.529 C  
HETATM    6  C   UNL     1      -6.923  20.170  69.147  1.00  0.00    -0.187 C  
HETATM    7  C   UNL     1      -7.474  20.220  67.705  1.00  0.00    -0.309 C  
HETATM    8  C   UNL     1      -6.563  18.746  69.640  1.00  0.00    -0.171 C  
BRANCH   7   9
HETATM    9  O   UNL     1      -6.579  19.666  66.729  1.00  0.00    -0.192 OA 
BRANCH   9  10
HETATM   10  C   UNL     1      -6.685  20.127  65.455  1.00  0.00    -0.298 C  
HETATM   11  O   UNL     1      -6.580  21.296  65.118  1.00  0.00    -0.020 OA 
HETATM   12  C   UNL     1      -6.886  18.989  64.495  1.00  0.00     1.017 C  
ENDBRANCH   9  10
ENDBRANCH   7   9
BRANCH   8  13
HETATM   13  C   UNL     1      -5.452  18.067  68.838  1.00  0.00    -0.187 C  
BRANCH  13  14
HETATM   14  N   UNL     1      -5.944  17.091  67.892  1.00  0.00    -0.129 NA 
HETATM   15  C   UNL     1      -5.337  16.711  66.727  1.00  0.00     0.030 A  
HETATM   16  N   UNL     1      -6.082  15.862  66.046  1.00  0.00     2.085 NA 
HETATM   17  C   UNL     1      -7.231  15.728  66.790  1.00  0.00     0.033 A  
HETATM   18  C   UNL     1      -8.404  15.010  66.608  1.00  0.00    -0.080 A  
HETATM   19  N   UNL     1      -9.400  15.112  67.528  1.00  0.00    -0.196 NA 
HETATM   20  C   UNL     1      -9.220  15.916  68.591  1.00  0.00    -0.209 A  
HETATM   21  N   UNL     1      -8.117  16.620  68.887  1.00  0.00    -0.243 NA 
HETATM   22  N   UNL     1     -10.274  16.000  69.479  1.00  0.00    -0.262 NA 
HETATM   23  H2  UNL     1     -10.535  15.066  69.794  1.00  0.00     0.000 HD 
HETATM   24  H1  UNL     1     -10.138  16.610  70.285  1.00  0.00     0.000 HD 
HETATM   25  C   UNL     1      -7.170  16.488  67.943  1.00  0.00    -0.140 A  
ENDBRANCH  13  14
ENDBRANCH   8  13
ENDBRANCH   4   5
ENDBRANCH   2   4
TORSDOF 6
ENDMDL
MODEL      326
REMARK 921   NORMALIZED FREE ENERGY PREDICTED BY IDOCK:   11.28 KCAL/MOL
REMARK 922        TOTAL FREE ENERGY PREDICTED BY IDOCK:   14.23 KCAL/MOL
REMARK 923 INTER-LIGAND FREE ENERGY PREDICTED BY IDOCK:   14.88 KCAL/MOL
REMARK 924 INTRA-LIGAND FREE ENERGY PREDICTED BY IDOCK:   -0.65 KCAL/MOL
REMARK 927      BINDING AFFINITY PREDICTED BY RF-SCORE:    0.00 PKD
ROOT
HETATM    1  C   UNL     1     -10.400  13.759  73.771  1.00  0.00     8.667 C  
HETATM    2  C   UNL     1     -10.469  14.873  72.771  1.00  0.00     3.092 C  
HETATM    3  O   UNL     1     -10.923  15.982  73.008  1.00  0.00     0.963 OA 
ENDROOT
BRANCH   2   4
HETATM    4  O   UNL     1      -9.990  14.458  71.566  1.00  0.00     2.787 OA 
BRANCH   4   5
HETATM    5  C   UNL     1      -9.567  15.504  70.674  1.00  0.00     1.098 C  
HETATM    6  C   UNL     1      -8.901  14.941  69.402  1.00  0.00    -0.046 C  
HETATM    7  C   UNL     1      -8.363  16.126  68.571  1.00  0.00    -0.195 C  
HETATM    8  C   UNL     1      -9.892  14.027  68.638  1.00  0.00    -0.191 C  
BRANCH   7   9
HETATM    9  O   UNL     1      -7.698  15.724  67.363  1.00  0.00    -0.149 OA 
BRANCH   9  10
HETATM   10  C   UNL     1      -7.532  16.670  66.401  1.00  0.00    -0.225 C  
HETATM   11  O   UNL     1      -8.428  17.155  65.728  1.00  0.00    -0.522 OA 
HETATM   12  C   UNL     1      -6.094  17.095  66.320  1.00  0.00    -0.101 C  
ENDBRANCH   9  10
ENDBRANCH   7   9
BRANCH   8  13
HETATM   13  C   UNL     1      -9.289  13.328  67.420  1.00  0.00    -0.217 C  
BRANCH  13  14
HETATM   14  N   UNL     1     -10.229  13.158  66.334  1.00  0.00    -0.279 NA 
HETATM   15  C   UNL     1     -11.583  13.338  66.397  1.00  0.00    -0.347 A  
HETATM   16  N   UNL     1     -12.168  13.021  65.259  1.00  0.00    -0.440 NA 
HETATM   17  C   UNL     1     -11.147  12.582  64.449  1.00  0.00    -0.339 A  
HETATM   18  C   UNL     1     -11.105  12.087  63.153  1.00  0.00    -0.184 A  
HETATM   19  N   UNL     1      -9.915  11.692  62.627  1.00  0.00     0.026 NA 
HETATM   20  C   UNL     1      -8.808  11.786  63.385  1.00  0.00     0.487 A  
HETATM   21  N   UNL     1      -8.726  12.285  64.627  1.00  0.00     1.267 NA 
HETATM   22  N   UNL     1      -7.633  11.347  62.809  1.00  0.00    -0.099 NA 
HETATM   23  H2  UNL     1      -7.485  11.826  61.921  1.00  0.00     0.000 HD 
HETATM   24  H1  UNL     1      -6.793  11.418  63.383  1.00  0.00     0.000 HD 
HETATM   25  C   UNL     1      -9.929  12.654  65.100  1.00  0.00    -0.174 A  
ENDBRANCH  13  14
ENDBRANCH   8  13
ENDBRANCH   4   5
ENDBRANCH   2   4
TORSDOF 6
ENDMDL
MODEL      327
REMARK 921   NORMALIZED FREE ENERGY PREDICTED BY IDOCK:   37.05 KCAL/MOL
REMARK 922        TOTAL FREE ENERGY PREDICTED BY IDOCK:   49.04 KCAL/MOL
REMARK 923 INTER-LIGAND FREE ENERGY PREDICTED BY IDOCK:   48.37 KCAL/MOL
REMARK 924 INTRA-LIGAND FREE ENERGY PREDICTED BY IDOCK:    0.68 KCAL/MOL
REMARK 927      BINDING AFFINITY PREDICTED BY RF-SCORE:    0.00 PKD
ROOT
HETATM    1  C   UNL     1      -9.807  13.108  74.173  1.00  0.00    14.900 C  
HETATM    2  C   UNL     1     -10.493  13.208  72.844  1.00  0.00    12.677 C  
HETATM    3  O   UNL     1     -11.441  13.944  72.615  1.00  0.00     1.611 OA 
ENDROOT
BRANCH   2   4
HETATM    4  O   UNL     1      -9.934  12.341  71.956  1.00  0.00    12.334 OA 
BRANCH   4   5
HETATM    5  C   UNL     1     -10.785  11.931  70.872  1.00  0.00     3.562 C  
HETATM    6  C   UNL     1      -9.972  11.464  69.648  1.00  0.00     0.572 C  
HETATM    7  C   UNL     1     -10.956  11.171  68.494  1.00  0.00    -0.220 C  
HETATM    8  C   UNL     1      -9.067  10.266  70.030  1.00  0.00     0.100 C  
BRANCH   7   9
HETATM    9  O   UNL     1     -10.311  10.746  67.284  1.00  0.00    -0.199 OA 
BRANCH   9  10
HETATM   10  C   UNL     1     -10.803   9.635  66.675  1.00  0.00     0.071 C  
HETATM   11  O   UNL     1     -10.533   8.484  66.983  1.00  0.00    -0.300 OA 
HETATM   12  C   UNL     1     -11.786  10.009  65.603  1.00  0.00     4.352 C  
ENDBRANCH   9  10
ENDBRANCH   7   9
BRANCH   8  13
HETATM   13  C   UNL     1      -8.134   9.803  68.910  1.00  0.00    -0.101 C  
BRANCH  13  14
HETATM   14  N   UNL     1      -8.294   8.405  68.575  1.00  0.00    -0.130 NA 
HETATM   15  C   UNL     1      -8.759   7.420  69.401  1.00  0.00    -0.137 A  
HETATM   16  N   UNL     1      -8.704   6.236  68.824  1.00  0.00    -0.121 NA 
HETATM   17  C   UNL     1      -8.142   6.472  67.591  1.00  0.00    -0.118 A  
HETATM   18  C   UNL     1      -7.794   5.649  66.530  1.00  0.00    -0.101 A  
HETATM   19  N   UNL     1      -7.207   6.189  65.429  1.00  0.00    -0.068 NA 
HETATM   20  C   UNL     1      -6.973   7.513  65.403  1.00  0.00    -0.059 A  
HETATM   21  N   UNL     1      -7.303   8.404  66.350  1.00  0.00    -0.082 NA 
HETATM   22  N   UNL     1      -6.351   8.003  64.272  1.00  0.00    -0.060 NA 
HETATM   23  H2  UNL     1      -6.880   7.730  63.444  1.00  0.00     0.000 HD 
HETATM   24  H1  UNL     1      -6.173   9.007  64.253  1.00  0.00     0.000 HD 
HETATM   25  C   UNL     1      -7.873   7.817  67.416  1.00  0.00    -0.118 A  
ENDBRANCH  13  14
ENDBRANCH   8  13
ENDBRANCH   4   5
ENDBRANCH   2   4
TORSDOF 6
ENDMDL
