MODEL        1
REMARK 921   NORMALIZED FREE ENERGY PREDICTED BY IDOCK:   -6.53 KCAL/MOL
REMARK 922        TOTAL FREE ENERGY PREDICTED BY IDOCK:  -10.76 KCAL/MOL
REMARK 923 INTER-LIGAND FREE ENERGY PREDICTED BY IDOCK:   -9.58 KCAL/MOL
REMARK 924 INTRA-LIGAND FREE ENERGY PREDICTED BY IDOCK:   -1.18 KCAL/MOL
REMARK 927      BINDING AFFINITY PREDICTED BY RF-SCORE:    0.00 PKD
ROOT
HETATM    1  N   UNL     1     -13.594  16.414  73.748  1.00  0.00    -0.776 NA 
HETATM    2  C   UNL     1     -13.038  15.659  72.770  1.00  0.00    -0.495 C  
HETATM    3  H2  UNL     1     -13.242  17.315  74.070  1.00  0.00     0.000 HD 
HETATM    4  H1  UNL     1     -14.420  15.940  74.111  1.00  0.00     0.000 HD 
HETATM    5  N   UNL     1     -13.571  14.539  72.423  1.00  0.00    -0.426 NA 
HETATM    6  N   UNL     1     -11.938  16.290  72.286  1.00  0.00    -0.551 NA 
HETATM    7  H2  UNL     1     -11.586  17.191  72.608  1.00  0.00     0.000 HD 
HETATM    8  H1  UNL     1     -11.519  15.722  71.550  1.00  0.00     0.000 HD 
HETATM    9  H   UNL     1     -14.426  14.208  72.872  1.00  0.00     0.000 HD 
ENDROOT
BRANCH   5  10
HETATM   10  C   UNL     1     -12.972  13.808  71.448  1.00  0.00    -0.355 A  
HETATM   11  N   UNL     1     -12.377  14.233  70.344  1.00  0.00    -0.333 NA 
HETATM   12  C   UNL     1     -11.869  13.166  69.608  1.00  0.00    -0.324 A  
HETATM   13  S   UNL     1     -12.938  12.088  71.645  1.00  0.00    -0.225 SA 
HETATM   14  C   UNL     1     -12.111  11.924  70.162  1.00  0.00    -0.302 A  
BRANCH  12  15
HETATM   15  C   UNL     1     -11.146  13.446  68.329  1.00  0.00    -0.262 C  
BRANCH  15  16
HETATM   16  S   UNL     1     -10.280  15.052  68.418  1.00  0.00    -0.233 SA 
BRANCH  16  17
HETATM   17  C   UNL     1      -9.565  15.143  66.738  1.00  0.00    -0.245 C  
BRANCH  17  18
HETATM   18  C   UNL     1     -10.169  16.215  65.838  1.00  0.00    -0.381 C  
BRANCH  18  19
HETATM   19  C   UNL     1     -10.918  15.632  64.640  1.00  0.00    -0.325 C  
HETATM   20  H2  UNL     1     -11.673  17.517  64.104  1.00  0.00     0.000 HD 
HETATM   21  N   UNL     1     -11.639  16.522  63.880  1.00  0.00    -1.578 NA 
HETATM   22  H1  UNL     1     -12.139  16.133  63.080  1.00  0.00     0.000 HD 
BRANCH  19  23
HETATM   23  N   UNL     1     -10.785  14.359  64.461  1.00  0.00    -0.616 N  
HETATM   24  H   UNL     1      -9.850  13.957  64.386  1.00  0.00     0.000 HD 
BRANCH  23  25
HETATM   25  S   UNL     1     -12.074  13.399  64.354  1.00  0.00    -0.416 S  
HETATM   26  O   UNL     1     -11.786  12.133  64.986  1.00  0.00    -0.351 OA 
HETATM   27  O   UNL     1     -12.602  13.469  63.012  1.00  0.00    -0.716 OA 
HETATM   28  N   UNL     1     -13.225  14.127  65.328  1.00  0.00    -0.670 N  
HETATM   29  H1  UNL     1     -14.041  13.519  65.261  1.00  0.00     0.000 HD 
HETATM   30  H2  UNL     1     -13.132  14.987  65.869  1.00  0.00     0.000 HD 
ENDBRANCH  23  25
ENDBRANCH  19  23
ENDBRANCH  18  19
ENDBRANCH  17  18
ENDBRANCH  16  17
ENDBRANCH  15  16
ENDBRANCH  12  15
ENDBRANCH   5  10
TORSDOF 8
ENDMDL
MODEL        2
REMARK 921   NORMALIZED FREE ENERGY PREDICTED BY IDOCK:   -6.34 KCAL/MOL
REMARK 922        TOTAL FREE ENERGY PREDICTED BY IDOCK:  -10.48 KCAL/MOL
REMARK 923 INTER-LIGAND FREE ENERGY PREDICTED BY IDOCK:   -9.68 KCAL/MOL
REMARK 924 INTRA-LIGAND FREE ENERGY PREDICTED BY IDOCK:   -0.80 KCAL/MOL
REMARK 927      BINDING AFFINITY PREDICTED BY RF-SCORE:    0.00 PKD
ROOT
HETATM    1  N   UNL     1     -13.594   9.691  72.555  1.00  0.00    -0.680 NA 
HETATM    2  C   UNL     1     -13.248  10.756  71.792  1.00  0.00    -0.418 C  
HETATM    3  H2  UNL     1     -13.558   8.716  72.257  1.00  0.00     0.000 HD 
HETATM    4  H1  UNL     1     -13.894  10.016  73.473  1.00  0.00     0.000 HD 
HETATM    5  N   UNL     1     -13.312  11.951  72.269  1.00  0.00    -0.548 NA 
HETATM    6  N   UNL     1     -12.849  10.323  70.570  1.00  0.00    -0.534 NA 
HETATM    7  H2  UNL     1     -12.813   9.348  70.272  1.00  0.00     0.000 HD 
HETATM    8  H1  UNL     1     -12.588  11.125  69.995  1.00  0.00     0.000 HD 
HETATM    9  H   UNL     1     -13.613  12.113  73.230  1.00  0.00     0.000 HD 
ENDROOT
BRANCH   5  10
HETATM   10  C   UNL     1     -12.970  12.990  71.465  1.00  0.00    -0.305 A  
HETATM   11  N   UNL     1     -12.186  12.987  70.397  1.00  0.00    -0.347 NA 
HETATM   12  C   UNL     1     -12.101  14.258  69.836  1.00  0.00    -0.347 A  
HETATM   13  S   UNL     1     -13.645  14.542  71.832  1.00  0.00    -0.439 SA 
HETATM   14  C   UNL     1     -12.815  15.229  70.510  1.00  0.00    -0.373 A  
BRANCH  12  15
HETATM   15  C   UNL     1     -11.268  14.455  68.609  1.00  0.00    -0.259 C  
BRANCH  15  16
HETATM   16  S   UNL     1     -10.579  16.147  68.563  1.00  0.00    -0.301 SA 
BRANCH  16  17
HETATM   17  C   UNL     1     -10.861  16.578  66.810  1.00  0.00    -0.070 C  
BRANCH  17  18
HETATM   18  C   UNL     1     -10.168  15.667  65.803  1.00  0.00    -0.391 C  
BRANCH  18  19
HETATM   19  C   UNL     1     -11.038  15.358  64.584  1.00  0.00    -0.347 C  
HETATM   20  H2  UNL     1     -11.463  17.392  64.282  1.00  0.00     0.000 HD 
HETATM   21  N   UNL     1     -11.610  16.437  63.954  1.00  0.00    -1.602 NA 
HETATM   22  H1  UNL     1     -12.191  16.231  63.141  1.00  0.00     0.000 HD 
BRANCH  19  23
HETATM   23  N   UNL     1     -11.135  14.109  64.268  1.00  0.00    -0.598 N  
HETATM   24  H   UNL     1     -10.386  13.666  63.736  1.00  0.00     0.000 HD 
BRANCH  23  25
HETATM   25  S   UNL     1     -12.422  13.243  64.703  1.00  0.00    -0.317 S  
HETATM   26  O   UNL     1     -12.839  12.411  63.599  1.00  0.00    -0.743 OA 
HETATM   27  O   UNL     1     -13.355  14.102  65.393  1.00  0.00    -0.705 OA 
HETATM   28  N   UNL     1     -11.845  12.182  65.863  1.00  0.00    -0.353 N  
HETATM   29  H1  UNL     1     -12.660  11.634  66.138  1.00  0.00     0.000 HD 
HETATM   30  H2  UNL     1     -10.892  12.101  66.216  1.00  0.00     0.000 HD 
ENDBRANCH  23  25
ENDBRANCH  19  23
ENDBRANCH  18  19
ENDBRANCH  17  18
ENDBRANCH  16  17
ENDBRANCH  15  16
ENDBRANCH  12  15
ENDBRANCH   5  10
TORSDOF 8
ENDMDL
MODEL        3
REMARK 921   NORMALIZED FREE ENERGY PREDICTED BY IDOCK:   -6.25 KCAL/MOL
REMARK 922        TOTAL FREE ENERGY PREDICTED BY IDOCK:  -10.35 KCAL/MOL
REMARK 923 INTER-LIGAND FREE ENERGY PREDICTED BY IDOCK:   -8.99 KCAL/MOL
REMARK 924 INTRA-LIGAND FREE ENERGY PREDICTED BY IDOCK:   -1.37 KCAL/MOL
REMARK 927      BINDING AFFINITY PREDICTED BY RF-SCORE:    0.00 PKD
ROOT
HETATM    1  N   UNL     1     -13.609  15.082  71.044  1.00  0.00    -0.609 NA 
HETATM    2  C   UNL     1     -12.522  14.579  70.410  1.00  0.00    -0.347 C  
HETATM    3  H2  UNL     1     -13.587  15.669  71.877  1.00  0.00     0.000 HD 
HETATM    4  H1  UNL     1     -14.452  14.781  70.557  1.00  0.00     0.000 HD 
HETATM    5  N   UNL     1     -12.656  13.859  69.350  1.00  0.00    -0.332 NA 
HETATM    6  N   UNL     1     -11.399  14.979  71.058  1.00  0.00    -0.464 NA 
HETATM    7  H2  UNL     1     -11.377  15.566  71.892  1.00  0.00     0.000 HD 
HETATM    8  H1  UNL     1     -10.580  14.601  70.581  1.00  0.00     0.000 HD 
HETATM    9  H   UNL     1     -13.580  13.665  68.966  1.00  0.00     0.000 HD 
ENDROOT
BRANCH   5  10
HETATM   10  C   UNL     1     -11.540  13.365  68.755  1.00  0.00    -0.325 A  
HETATM   11  N   UNL     1     -10.473  14.020  68.324  1.00  0.00    -0.238 NA 
HETATM   12  C   UNL     1      -9.533  13.144  67.788  1.00  0.00    -0.209 A  
HETATM   13  S   UNL     1     -11.446  11.649  68.533  1.00  0.00    -0.327 SA 
HETATM   14  C   UNL     1      -9.914  11.818  67.799  1.00  0.00    -0.190 A  
BRANCH  12  15
HETATM   15  C   UNL     1      -8.247  13.697  67.258  1.00  0.00    -0.152 C  
BRANCH  15  16
HETATM   16  S   UNL     1      -8.112  15.481  67.629  1.00  0.00    -0.158 SA 
BRANCH  16  17
HETATM   17  C   UNL     1      -8.771  16.197  66.083  1.00  0.00    -0.323 C  
BRANCH  17  18
HETATM   18  C   UNL     1     -10.289  16.320  66.025  1.00  0.00    -0.363 C  
BRANCH  18  19
HETATM   19  C   UNL     1     -10.890  15.682  64.773  1.00  0.00    -0.355 C  
HETATM   20  H2  UNL     1     -11.579  17.538  64.071  1.00  0.00     0.000 HD 
HETATM   21  N   UNL     1     -11.517  16.535  63.896  1.00  0.00    -1.599 NA 
HETATM   22  H1  UNL     1     -11.919  16.109  63.060  1.00  0.00     0.000 HD 
BRANCH  19  23
HETATM   23  N   UNL     1     -10.735  14.404  64.666  1.00  0.00    -0.585 N  
HETATM   24  H   UNL     1      -9.794  14.011  64.654  1.00  0.00     0.000 HD 
BRANCH  23  25
HETATM   25  S   UNL     1     -12.008  13.423  64.552  1.00  0.00    -0.428 S  
HETATM   26  O   UNL     1     -13.160  14.056  65.148  1.00  0.00    -0.776 OA 
HETATM   27  O   UNL     1     -11.606  12.087  64.924  1.00  0.00    -0.322 OA 
HETATM   28  N   UNL     1     -12.341  13.351  62.913  1.00  0.00    -0.882 N  
HETATM   29  H1  UNL     1     -13.147  12.730  62.841  1.00  0.00     0.000 HD 
HETATM   30  H2  UNL     1     -11.849  13.824  62.154  1.00  0.00     0.000 HD 
ENDBRANCH  23  25
ENDBRANCH  19  23
ENDBRANCH  18  19
ENDBRANCH  17  18
ENDBRANCH  16  17
ENDBRANCH  15  16
ENDBRANCH  12  15
ENDBRANCH   5  10
TORSDOF 8
ENDMDL
MODEL        4
REMARK 921   NORMALIZED FREE ENERGY PREDICTED BY IDOCK:   -6.23 KCAL/MOL
REMARK 922        TOTAL FREE ENERGY PREDICTED BY IDOCK:  -10.32 KCAL/MOL
REMARK 923 INTER-LIGAND FREE ENERGY PREDICTED BY IDOCK:   -9.35 KCAL/MOL
REMARK 924 INTRA-LIGAND FREE ENERGY PREDICTED BY IDOCK:   -0.96 KCAL/MOL
REMARK 927      BINDING AFFINITY PREDICTED BY RF-SCORE:    0.00 PKD
ROOT
HETATM    1  N   UNL     1     -13.989   9.016  73.094  1.00  0.00    -1.215 NA 
HETATM    2  C   UNL     1     -13.113   9.531  72.197  1.00  0.00    -0.436 C  
HETATM    3  H2  UNL     1     -14.699   9.547  73.597  1.00  0.00     0.000 HD 
HETATM    4  H1  UNL     1     -13.827   8.014  73.186  1.00  0.00     0.000 HD 
HETATM    5  N   UNL     1     -12.263   8.768  71.600  1.00  0.00    -0.319 NA 
HETATM    6  N   UNL     1     -13.328  10.865  72.074  1.00  0.00    -0.525 NA 
HETATM    7  H2  UNL     1     -14.038  11.396  72.577  1.00  0.00     0.000 HD 
HETATM    8  H1  UNL     1     -12.669  11.252  71.399  1.00  0.00     0.000 HD 
HETATM    9  H   UNL     1     -12.243   7.766  71.785  1.00  0.00     0.000 HD 
ENDROOT
BRANCH   5  10
HETATM   10  C   UNL     1     -11.394   9.329  70.720  1.00  0.00    -0.287 A  
HETATM   11  N   UNL     1     -11.659  10.078  69.660  1.00  0.00    -0.152 NA 
HETATM   12  C   UNL     1     -10.486  10.475  69.024  1.00  0.00    -0.217 A  
HETATM   13  S   UNL     1      -9.703   9.077  70.995  1.00  0.00    -0.291 SA 
HETATM   14  C   UNL     1      -9.330   9.995  69.606  1.00  0.00    -0.220 A  
BRANCH  12  15
HETATM   15  C   UNL     1     -10.578  11.343  67.808  1.00  0.00    -0.195 C  
BRANCH  15  16
HETATM   16  S   UNL     1     -10.676  13.105  68.282  1.00  0.00    -0.251 SA 
BRANCH  16  17
HETATM   17  C   UNL     1      -9.865  13.886  66.843  1.00  0.00    -0.268 C  
BRANCH  17  18
HETATM   18  C   UNL     1     -10.569  15.122  66.298  1.00  0.00    -0.312 C  
BRANCH  18  19
HETATM   19  C   UNL     1     -10.894  15.013  64.808  1.00  0.00    -0.355 C  
HETATM   20  H2  UNL     1     -11.238  17.080  64.658  1.00  0.00     0.000 HD 
HETATM   21  N   UNL     1     -11.216  16.186  64.167  1.00  0.00    -1.197 NA 
HETATM   22  H1  UNL     1     -11.433  16.113  63.173  1.00  0.00     0.000 HD 
BRANCH  19  23
HETATM   23  N   UNL     1     -10.821  13.826  64.305  1.00  0.00    -0.583 N  
HETATM   24  H   UNL     1      -9.912  13.371  64.220  1.00  0.00     0.000 HD 
BRANCH  23  25
HETATM   25  S   UNL     1     -12.146  13.054  63.809  1.00  0.00    -0.500 S  
HETATM   26  O   UNL     1     -12.757  13.790  62.727  1.00  0.00    -0.407 OA 
HETATM   27  O   UNL     1     -12.908  12.640  64.963  1.00  0.00    -0.765 OA 
HETATM   28  N   UNL     1     -11.577  11.640  63.115  1.00  0.00    -0.861 N  
HETATM   29  H1  UNL     1     -12.415  11.152  62.801  1.00  0.00     0.000 HD 
HETATM   30  H2  UNL     1     -10.607  11.335  63.026  1.00  0.00     0.000 HD 
ENDBRANCH  23  25
ENDBRANCH  19  23
ENDBRANCH  18  19
ENDBRANCH  17  18
ENDBRANCH  16  17
ENDBRANCH  15  16
ENDBRANCH  12  15
ENDBRANCH   5  10
TORSDOF 8
ENDMDL
MODEL        5
REMARK 921   NORMALIZED FREE ENERGY PREDICTED BY IDOCK:   -6.01 KCAL/MOL
REMARK 922        TOTAL FREE ENERGY PREDICTED BY IDOCK:  -10.00 KCAL/MOL
REMARK 923 INTER-LIGAND FREE ENERGY PREDICTED BY IDOCK:   -9.16 KCAL/MOL
REMARK 924 INTRA-LIGAND FREE ENERGY PREDICTED BY IDOCK:   -0.84 KCAL/MOL
REMARK 927      BINDING AFFINITY PREDICTED BY RF-SCORE:    0.00 PKD
ROOT
HETATM    1  N   UNL     1     -14.127   8.923  73.302  1.00  0.00    -1.248 NA 
HETATM    2  C   UNL     1     -13.434   8.943  72.138  1.00  0.00    -0.448 C  
HETATM    3  H2  UNL     1     -15.122   8.719  73.393  1.00  0.00     0.000 HD 
HETATM    4  H1  UNL     1     -13.498   9.141  74.074  1.00  0.00     0.000 HD 
HETATM    5  N   UNL     1     -12.170   9.194  72.133  1.00  0.00    -0.360 NA 
HETATM    6  N   UNL     1     -14.271   8.652  71.111  1.00  0.00    -0.613 NA 
HETATM    7  H2  UNL     1     -15.266   8.449  71.201  1.00  0.00     0.000 HD 
HETATM    8  H1  UNL     1     -13.749   8.667  70.235  1.00  0.00     0.000 HD 
HETATM    9  H   UNL     1     -11.670   9.371  73.004  1.00  0.00     0.000 HD 
ENDROOT
BRANCH   5  10
HETATM   10  C   UNL     1     -11.517   9.218  70.943  1.00  0.00    -0.303 A  
HETATM   11  N   UNL     1     -11.725  10.010  69.902  1.00  0.00    -0.175 NA 
HETATM   12  C   UNL     1     -10.828   9.729  68.874  1.00  0.00    -0.192 A  
HETATM   13  S   UNL     1     -10.216   8.097  70.721  1.00  0.00    -0.196 SA 
HETATM   14  C   UNL     1      -9.954   8.696  69.145  1.00  0.00    -0.192 A  
BRANCH  12  15
HETATM   15  C   UNL     1     -10.896  10.532  67.613  1.00  0.00    -0.300 C  
BRANCH  15  16
HETATM   16  S   UNL     1      -9.442  10.195  66.558  1.00  0.00    -0.177 SA 
BRANCH  16  17
HETATM   17  C   UNL     1      -9.675  11.452  65.252  1.00  0.00    -0.241 C  
BRANCH  17  18
HETATM   18  C   UNL     1     -10.586  11.029  64.105  1.00  0.00    -0.412 C  
BRANCH  18  19
HETATM   19  C   UNL     1     -11.579  12.118  63.701  1.00  0.00    -0.486 C  
HETATM   20  H2  UNL     1     -13.044  10.699  63.205  1.00  0.00     0.000 HD 
HETATM   21  N   UNL     1     -12.808  11.689  63.260  1.00  0.00    -0.787 NA 
HETATM   22  H1  UNL     1     -13.471  12.416  62.990  1.00  0.00     0.000 HD 
BRANCH  19  23
HETATM   23  N   UNL     1     -11.159  13.334  63.828  1.00  0.00    -0.566 N  
HETATM   24  H   UNL     1     -10.335  13.637  63.309  1.00  0.00     0.000 HD 
BRANCH  23  25
HETATM   25  S   UNL     1     -11.919  14.376  64.793  1.00  0.00    -0.464 S  
HETATM   26  O   UNL     1     -11.025  14.797  65.846  1.00  0.00    -0.320 OA 
HETATM   27  O   UNL     1     -13.240  13.870  65.083  1.00  0.00    -0.768 OA 
HETATM   28  N   UNL     1     -12.157  15.735  63.844  1.00  0.00    -0.914 N  
HETATM   29  H1  UNL     1     -12.637  16.395  64.456  1.00  0.00     0.000 HD 
HETATM   30  H2  UNL     1     -11.882  15.873  62.872  1.00  0.00     0.000 HD 
ENDBRANCH  23  25
ENDBRANCH  19  23
ENDBRANCH  18  19
ENDBRANCH  17  18
ENDBRANCH  16  17
ENDBRANCH  15  16
ENDBRANCH  12  15
ENDBRANCH   5  10
TORSDOF 8
ENDMDL
MODEL        6
REMARK 921   NORMALIZED FREE ENERGY PREDICTED BY IDOCK:   -6.00 KCAL/MOL
REMARK 922        TOTAL FREE ENERGY PREDICTED BY IDOCK:   -9.98 KCAL/MOL
REMARK 923 INTER-LIGAND FREE ENERGY PREDICTED BY IDOCK:   -9.05 KCAL/MOL
REMARK 924 INTRA-LIGAND FREE ENERGY PREDICTED BY IDOCK:   -0.93 KCAL/MOL
REMARK 927      BINDING AFFINITY PREDICTED BY RF-SCORE:    0.00 PKD
ROOT
HETATM    1  N   UNL     1     -14.374   8.784  73.167  1.00  0.00    -1.126 NA 
HETATM    2  C   UNL     1     -13.689   9.312  72.124  1.00  0.00    -0.453 C  
HETATM    3  H2  UNL     1     -14.839   7.876  73.168  1.00  0.00     0.000 HD 
HETATM    4  H1  UNL     1     -14.351   9.436  73.950  1.00  0.00     0.000 HD 
HETATM    5  N   UNL     1     -13.120  10.463  72.229  1.00  0.00    -0.529 NA 
HETATM    6  N   UNL     1     -13.719   8.445  71.081  1.00  0.00    -0.567 NA 
HETATM    7  H2  UNL     1     -14.184   7.537  71.082  1.00  0.00     0.000 HD 
HETATM    8  H1  UNL     1     -13.203   8.842  70.296  1.00  0.00     0.000 HD 
HETATM    9  H   UNL     1     -13.168  10.990  73.101  1.00  0.00     0.000 HD 
ENDROOT
BRANCH   5  10
HETATM   10  C   UNL     1     -12.456  10.961  71.154  1.00  0.00    -0.405 A  
HETATM   11  N   UNL     1     -11.687  10.320  70.288  1.00  0.00    -0.287 NA 
HETATM   12  C   UNL     1     -11.202  11.188  69.314  1.00  0.00    -0.267 A  
HETATM   13  S   UNL     1     -12.631  12.651  70.819  1.00  0.00    -0.132 SA 
HETATM   14  C   UNL     1     -11.599  12.501  69.468  1.00  0.00    -0.281 A  
BRANCH  12  15
HETATM   15  C   UNL     1     -10.320  10.645  68.233  1.00  0.00    -0.177 C  
BRANCH  15  16
HETATM   16  S   UNL     1      -9.104  11.901  67.703  1.00  0.00    -0.187 SA 
BRANCH  16  17
HETATM   17  C   UNL     1      -9.032  11.565  65.909  1.00  0.00    -0.147 C  
BRANCH  17  18
HETATM   18  C   UNL     1     -10.387  11.415  65.226  1.00  0.00    -0.336 C  
BRANCH  18  19
HETATM   19  C   UNL     1     -10.669  12.526  64.215  1.00  0.00    -0.369 C  
HETATM   20  H2  UNL     1     -11.699  11.207  62.946  1.00  0.00     0.000 HD 
HETATM   21  N   UNL     1     -11.378  12.164  63.094  1.00  0.00    -0.706 NA 
HETATM   22  H1  UNL     1     -11.567  12.905  62.419  1.00  0.00     0.000 HD 
BRANCH  19  23
HETATM   23  N   UNL     1     -10.217  13.696  64.526  1.00  0.00    -0.647 N  
HETATM   24  H   UNL     1      -9.213  13.870  64.498  1.00  0.00     0.000 HD 
BRANCH  23  25
HETATM   25  S   UNL     1     -11.218  14.882  64.960  1.00  0.00    -0.415 S  
HETATM   26  O   UNL     1     -10.614  16.157  64.656  1.00  0.00    -0.597 OA 
HETATM   27  O   UNL     1     -11.750  14.592  66.270  1.00  0.00    -0.371 OA 
HETATM   28  N   UNL     1     -12.515  14.746  63.908  1.00  0.00    -1.049 N  
HETATM   29  H1  UNL     1     -13.148  15.496  64.182  1.00  0.00     0.000 HD 
HETATM   30  H2  UNL     1     -12.643  14.064  63.160  1.00  0.00     0.000 HD 
ENDBRANCH  23  25
ENDBRANCH  19  23
ENDBRANCH  18  19
ENDBRANCH  17  18
ENDBRANCH  16  17
ENDBRANCH  15  16
ENDBRANCH  12  15
ENDBRANCH   5  10
TORSDOF 8
ENDMDL
MODEL        7
REMARK 921   NORMALIZED FREE ENERGY PREDICTED BY IDOCK:   -5.98 KCAL/MOL
REMARK 922        TOTAL FREE ENERGY PREDICTED BY IDOCK:   -9.95 KCAL/MOL
REMARK 923 INTER-LIGAND FREE ENERGY PREDICTED BY IDOCK:   -8.82 KCAL/MOL
REMARK 924 INTRA-LIGAND FREE ENERGY PREDICTED BY IDOCK:   -1.14 KCAL/MOL
REMARK 927      BINDING AFFINITY PREDICTED BY RF-SCORE:    0.00 PKD
ROOT
HETATM    1  N   UNL     1     -13.502  16.270  73.933  1.00  0.00    -0.867 NA 
HETATM    2  C   UNL     1     -13.188  15.692  72.748  1.00  0.00    -0.516 C  
HETATM    3  H2  UNL     1     -14.435  16.305  74.344  1.00  0.00     0.000 HD 
HETATM    4  H1  UNL     1     -12.659  16.663  74.351  1.00  0.00     0.000 HD 
HETATM    5  N   UNL     1     -11.971  15.685  72.325  1.00  0.00    -0.418 NA 
HETATM    6  N   UNL     1     -14.310  15.169  72.192  1.00  0.00    -0.548 NA 
HETATM    7  H2  UNL     1     -15.243  15.205  72.602  1.00  0.00     0.000 HD 
HETATM    8  H1  UNL     1     -14.074  14.734  71.301  1.00  0.00     0.000 HD 
HETATM    9  H   UNL     1     -11.224  16.104  72.879  1.00  0.00     0.000 HD 
ENDROOT
BRANCH   5  10
HETATM   10  C   UNL     1     -11.704  15.108  71.126  1.00  0.00    -0.353 A  
HETATM   11  N   UNL     1     -11.980  13.877  70.721  1.00  0.00    -0.310 NA 
HETATM   12  C   UNL     1     -11.557  13.677  69.409  1.00  0.00    -0.312 A  
HETATM   13  S   UNL     1     -10.921  16.081  69.926  1.00  0.00    -0.374 SA 
HETATM   14  C   UNL     1     -10.935  14.769  68.836  1.00  0.00    -0.254 A  
BRANCH  12  15
HETATM   15  C   UNL     1     -11.793  12.347  68.766  1.00  0.00    -0.311 C  
BRANCH  15  16
HETATM   16  S   UNL     1     -10.214  11.459  68.525  1.00  0.00    -0.212 SA 
BRANCH  16  17
HETATM   17  C   UNL     1     -10.481  10.744  66.865  1.00  0.00    -0.252 C  
BRANCH  17  18
HETATM   18  C   UNL     1      -9.533  11.252  65.784  1.00  0.00    -0.252 C  
BRANCH  18  19
HETATM   19  C   UNL     1     -10.169  12.312  64.885  1.00  0.00    -0.281 C  
HETATM   20  H2  UNL     1      -9.102  11.633  63.209  1.00  0.00     0.000 HD 
HETATM   21  N   UNL     1      -9.779  12.307  63.568  1.00  0.00    -0.665 NA 
HETATM   22  H1  UNL     1     -10.203  13.014  62.967  1.00  0.00     0.000 HD 
BRANCH  19  23
HETATM   23  N   UNL     1     -11.018  13.098  65.460  1.00  0.00    -0.276 N  
HETATM   24  H   UNL     1     -10.832  13.433  66.406  1.00  0.00     0.000 HD 
BRANCH  23  25
HETATM   25  S   UNL     1     -12.365  13.556  64.705  1.00  0.00    -0.377 S  
HETATM   26  O   UNL     1     -13.344  13.977  65.679  1.00  0.00    -0.636 OA 
HETATM   27  O   UNL     1     -12.685  12.585  63.686  1.00  0.00    -0.712 OA 
HETATM   28  N   UNL     1     -11.935  14.948  63.880  1.00  0.00    -0.892 N  
HETATM   29  H1  UNL     1     -12.787  15.238  63.402  1.00  0.00     0.000 HD 
HETATM   30  H2  UNL     1     -11.022  15.405  63.860  1.00  0.00     0.000 HD 
ENDBRANCH  23  25
ENDBRANCH  19  23
ENDBRANCH  18  19
ENDBRANCH  17  18
ENDBRANCH  16  17
ENDBRANCH  15  16
ENDBRANCH  12  15
ENDBRANCH   5  10
TORSDOF 8
ENDMDL
MODEL        8
REMARK 921   NORMALIZED FREE ENERGY PREDICTED BY IDOCK:   -5.91 KCAL/MOL
REMARK 922        TOTAL FREE ENERGY PREDICTED BY IDOCK:   -9.85 KCAL/MOL
REMARK 923 INTER-LIGAND FREE ENERGY PREDICTED BY IDOCK:   -8.24 KCAL/MOL
REMARK 924 INTRA-LIGAND FREE ENERGY PREDICTED BY IDOCK:   -1.61 KCAL/MOL
REMARK 927      BINDING AFFINITY PREDICTED BY RF-SCORE:    0.00 PKD
ROOT
HETATM    1  N   UNL     1     -14.375   8.836  73.178  1.00  0.00    -1.126 NA 
HETATM    2  C   UNL     1     -13.686   9.152  72.054  1.00  0.00    -0.448 C  
HETATM    3  H2  UNL     1     -15.157   8.183  73.226  1.00  0.00     0.000 HD 
HETATM    4  H1  UNL     1     -13.989   9.353  73.967  1.00  0.00     0.000 HD 
HETATM    5  N   UNL     1     -12.699   9.978  72.102  1.00  0.00    -0.330 NA 
HETATM    6  N   UNL     1     -14.200   8.465  71.003  1.00  0.00    -0.633 NA 
HETATM    7  H2  UNL     1     -14.982   7.812  71.052  1.00  0.00     0.000 HD 
HETATM    8  H1  UNL     1     -13.681   8.702  70.158  1.00  0.00     0.000 HD 
HETATM    9  H   UNL     1     -12.414  10.399  72.986  1.00  0.00     0.000 HD 
ENDROOT
BRANCH   5  10
HETATM   10  C   UNL     1     -12.045  10.277  70.950  1.00  0.00    -0.368 A  
HETATM   11  N   UNL     1     -12.350  11.189  70.039  1.00  0.00    -0.298 NA 
HETATM   12  C   UNL     1     -11.415  11.196  69.008  1.00  0.00    -0.296 A  
HETATM   13  S   UNL     1     -10.600   9.390  70.597  1.00  0.00    -0.315 SA 
HETATM   14  C   UNL     1     -10.409  10.260  69.142  1.00  0.00    -0.223 A  
BRANCH  12  15
HETATM   15  C   UNL     1     -11.581  12.171  67.884  1.00  0.00    -0.347 C  
BRANCH  15  16
HETATM   16  S   UNL     1     -10.303  13.474  67.970  1.00  0.00    -0.246 SA 
BRANCH  16  17
HETATM   17  C   UNL     1     -11.351  14.970  68.027  1.00  0.00    -0.327 C  
BRANCH  17  18
HETATM   18  C   UNL     1     -12.507  14.910  69.019  1.00  0.00     0.057 C  
BRANCH  18  19
HETATM   19  C   UNL     1     -12.078  15.228  70.452  1.00  0.00    -0.348 C  
HETATM   20  H2  UNL     1     -11.526  17.185  69.929  1.00  0.00     0.000 HD 
HETATM   21  N   UNL     1     -11.595  16.494  70.676  1.00  0.00    -0.494 NA 
HETATM   22  H1  UNL     1     -11.308  16.707  71.632  1.00  0.00     0.000 HD 
BRANCH  19  23
HETATM   23  N   UNL     1     -12.226  14.270  71.306  1.00  0.00    -0.347 N  
HETATM   24  H   UNL     1     -11.590  13.472  71.281  1.00  0.00     0.000 HD 
BRANCH  23  25
HETATM   25  S   UNL     1     -13.399  14.317  72.409  1.00  0.00    -0.515 S  
HETATM   26  O   UNL     1     -13.865  12.977  72.676  1.00  0.00    -0.653 OA 
HETATM   27  O   UNL     1     -14.315  15.381  72.074  1.00  0.00    -0.533 OA 
HETATM   28  N   UNL     1     -12.636  14.809  73.817  1.00  0.00    -0.447 N  
HETATM   29  H1  UNL     1     -13.378  14.839  74.515  1.00  0.00     0.000 HD 
HETATM   30  H2  UNL     1     -11.648  15.029  73.947  1.00  0.00     0.000 HD 
ENDBRANCH  23  25
ENDBRANCH  19  23
ENDBRANCH  18  19
ENDBRANCH  17  18
ENDBRANCH  16  17
ENDBRANCH  15  16
ENDBRANCH  12  15
ENDBRANCH   5  10
TORSDOF 8
ENDMDL
MODEL        9
REMARK 921   NORMALIZED FREE ENERGY PREDICTED BY IDOCK:   -5.91 KCAL/MOL
REMARK 922        TOTAL FREE ENERGY PREDICTED BY IDOCK:   -9.84 KCAL/MOL
REMARK 923 INTER-LIGAND FREE ENERGY PREDICTED BY IDOCK:   -9.01 KCAL/MOL
REMARK 924 INTRA-LIGAND FREE ENERGY PREDICTED BY IDOCK:   -0.83 KCAL/MOL
REMARK 927      BINDING AFFINITY PREDICTED BY RF-SCORE:    0.00 PKD
ROOT
HETATM    1  N   UNL     1     -14.345   9.117  72.998  1.00  0.00    -1.093 NA 
HETATM    2  C   UNL     1     -13.623   9.279  71.863  1.00  0.00    -0.427 C  
HETATM    3  H2  UNL     1     -15.118   8.462  73.117  1.00  0.00     0.000 HD 
HETATM    4  H1  UNL     1     -13.995   9.752  73.715  1.00  0.00     0.000 HD 
HETATM    5  N   UNL     1     -12.651  10.123  71.821  1.00  0.00    -0.412 NA 
HETATM    6  N   UNL     1     -14.088   8.434  70.909  1.00  0.00    -0.489 NA 
HETATM    7  H2  UNL     1     -14.861   7.779  71.028  1.00  0.00     0.000 HD 
HETATM    8  H1  UNL     1     -13.544   8.555  70.055  1.00  0.00     0.000 HD 
HETATM    9  H   UNL     1     -12.404  10.675  72.642  1.00  0.00     0.000 HD 
ENDROOT
BRANCH   5  10
HETATM   10  C   UNL     1     -11.962  10.263  70.659  1.00  0.00    -0.342 A  
HETATM   11  N   UNL     1     -12.271  10.993  69.597  1.00  0.00    -0.329 NA 
HETATM   12  C   UNL     1     -11.292  10.881  68.613  1.00  0.00    -0.295 A  
HETATM   13  S   UNL     1     -10.462   9.411  70.511  1.00  0.00    -0.298 SA 
HETATM   14  C   UNL     1     -10.249  10.038  68.938  1.00  0.00    -0.193 A  
BRANCH  12  15
HETATM   15  C   UNL     1     -11.456  11.646  67.338  1.00  0.00    -0.285 C  
BRANCH  15  16
HETATM   16  S   UNL     1     -11.643  13.432  67.678  1.00  0.00    -0.361 SA 
BRANCH  16  17
HETATM   17  C   UNL     1     -12.521  13.972  66.169  1.00  0.00    -0.430 C  
BRANCH  17  18
HETATM   18  C   UNL     1     -11.656  14.065  64.918  1.00  0.00    -0.369 C  
BRANCH  18  19
HETATM   19  C   UNL     1     -11.059  15.456  64.710  1.00  0.00    -0.403 C  
HETATM   20  H2  UNL     1     -12.617  16.009  63.415  1.00  0.00     0.000 HD 
HETATM   21  N   UNL     1     -11.752  16.298  63.872  1.00  0.00    -1.518 NA 
HETATM   22  H1  UNL     1     -11.354  17.226  63.733  1.00  0.00     0.000 HD 
BRANCH  19  23
HETATM   23  N   UNL     1      -9.965  15.699  65.354  1.00  0.00    -0.318 N  
HETATM   24  H   UNL     1      -9.175  15.060  65.261  1.00  0.00     0.000 HD 
BRANCH  23  25
HETATM   25  S   UNL     1      -9.832  16.996  66.300  1.00  0.00    -0.282 S  
HETATM   26  O   UNL     1     -10.190  16.645  67.653  1.00  0.00    -0.269 OA 
HETATM   27  O   UNL     1     -10.430  18.128  65.632  1.00  0.00    -0.626 OA 
HETATM   28  N   UNL     1      -8.189  17.318  66.347  1.00  0.00    -0.271 N  
HETATM   29  H1  UNL     1      -8.105  18.139  66.946  1.00  0.00     0.000 HD 
HETATM   30  H2  UNL     1      -7.439  16.807  65.880  1.00  0.00     0.000 HD 
ENDBRANCH  23  25
ENDBRANCH  19  23
ENDBRANCH  18  19
ENDBRANCH  17  18
ENDBRANCH  16  17
ENDBRANCH  15  16
ENDBRANCH  12  15
ENDBRANCH   5  10
TORSDOF 8
ENDMDL
MODEL       10
REMARK 921   NORMALIZED FREE ENERGY PREDICTED BY IDOCK:   -5.90 KCAL/MOL
REMARK 922        TOTAL FREE ENERGY PREDICTED BY IDOCK:   -9.84 KCAL/MOL
REMARK 923 INTER-LIGAND FREE ENERGY PREDICTED BY IDOCK:   -7.84 KCAL/MOL
REMARK 924 INTRA-LIGAND FREE ENERGY PREDICTED BY IDOCK:   -2.00 KCAL/MOL
REMARK 927      BINDING AFFINITY PREDICTED BY RF-SCORE:    0.00 PKD
ROOT
HETATM    1  N   UNL     1     -11.960  10.626  68.117  1.00  0.00    -0.783 NA 
HETATM    2  C   UNL     1     -11.486  11.849  68.459  1.00  0.00    -0.295 C  
HETATM    3  H2  UNL     1     -11.398   9.855  67.757  1.00  0.00     0.000 HD 
HETATM    4  H1  UNL     1     -12.966  10.598  68.277  1.00  0.00     0.000 HD 
HETATM    5  N   UNL     1     -12.278  12.753  68.922  1.00  0.00    -0.103 NA 
HETATM    6  N   UNL     1     -10.146  11.887  68.246  1.00  0.00    -0.199 NA 
HETATM    7  H2  UNL     1      -9.584  11.116  67.887  1.00  0.00     0.000 HD 
HETATM    8  H1  UNL     1      -9.789  12.807  68.504  1.00  0.00     0.000 HD 
HETATM    9  H   UNL     1     -13.272  12.559  69.049  1.00  0.00     0.000 HD 
ENDROOT
BRANCH   5  10
HETATM   10  C   UNL     1     -11.763  13.968  69.239  1.00  0.00    -0.326 A  
HETATM   11  N   UNL     1     -10.833  14.664  68.601  1.00  0.00    -0.247 NA 
HETATM   12  C   UNL     1     -10.594  15.878  69.239  1.00  0.00    -0.252 A  
HETATM   13  S   UNL     1     -12.394  14.764  70.642  1.00  0.00    -0.364 SA 
HETATM   14  C   UNL     1     -11.341  16.081  70.382  1.00  0.00    -0.391 A  
BRANCH  12  15
HETATM   15  C   UNL     1      -9.581  16.815  68.658  1.00  0.00    -0.255 C  
BRANCH  15  16
HETATM   16  S   UNL     1     -10.289  17.734  67.247  1.00  0.00    -0.357 SA 
BRANCH  16  17
HETATM   17  C   UNL     1      -9.706  16.709  65.851  1.00  0.00    -0.237 C  
BRANCH  17  18
HETATM   18  C   UNL     1     -10.787  15.887  65.159  1.00  0.00    -0.438 C  
BRANCH  18  19
HETATM   19  C   UNL     1     -10.423  14.407  65.039  1.00  0.00    -0.430 C  
HETATM   20  H2  UNL     1      -8.928  14.582  66.503  1.00  0.00     0.000 HD 
HETATM   21  N   UNL     1      -9.411  13.960  65.854  1.00  0.00    -0.508 NA 
HETATM   22  H1  UNL     1      -9.167  12.973  65.774  1.00  0.00     0.000 HD 
BRANCH  19  23
HETATM   23  N   UNL     1     -11.117  13.728  64.187  1.00  0.00    -0.587 N  
HETATM   24  H   UNL     1     -11.859  14.189  63.661  1.00  0.00     0.000 HD 
BRANCH  23  25
HETATM   25  S   UNL     1     -10.825  12.162  63.943  1.00  0.00    -0.452 S  
HETATM   26  O   UNL     1     -10.870  11.461  65.204  1.00  0.00    -0.286 OA 
HETATM   27  O   UNL     1      -9.702  12.028  63.045  1.00  0.00    -0.383 OA 
HETATM   28  N   UNL     1     -12.154  11.613  63.084  1.00  0.00    -0.950 N  
HETATM   29  H1  UNL     1     -11.970  10.623  62.930  1.00  0.00     0.000 HD 
HETATM   30  H2  UNL     1     -12.968  12.150  62.783  1.00  0.00     0.000 HD 
ENDBRANCH  23  25
ENDBRANCH  19  23
ENDBRANCH  18  19
ENDBRANCH  17  18
ENDBRANCH  16  17
ENDBRANCH  15  16
ENDBRANCH  12  15
ENDBRANCH   5  10
TORSDOF 8
ENDMDL
MODEL       11
REMARK 921   NORMALIZED FREE ENERGY PREDICTED BY IDOCK:   -5.85 KCAL/MOL
REMARK 922        TOTAL FREE ENERGY PREDICTED BY IDOCK:   -9.76 KCAL/MOL
REMARK 923 INTER-LIGAND FREE ENERGY PREDICTED BY IDOCK:   -8.86 KCAL/MOL
REMARK 924 INTRA-LIGAND FREE ENERGY PREDICTED BY IDOCK:   -0.90 KCAL/MOL
REMARK 927      BINDING AFFINITY PREDICTED BY RF-SCORE:    0.00 PKD
ROOT
HETATM    1  N   UNL     1     -14.097   8.911  73.139  1.00  0.00    -1.225 NA 
HETATM    2  C   UNL     1     -13.280   8.995  72.061  1.00  0.00    -0.429 C  
HETATM    3  H2  UNL     1     -15.113   8.986  73.117  1.00  0.00     0.000 HD 
HETATM    4  H1  UNL     1     -13.535   8.759  73.977  1.00  0.00     0.000 HD 
HETATM    5  N   UNL     1     -12.005   8.868  72.194  1.00  0.00    -0.361 NA 
HETATM    6  N   UNL     1     -14.027   9.196  70.946  1.00  0.00    -0.517 NA 
HETATM    7  H2  UNL     1     -15.044   9.272  70.924  1.00  0.00     0.000 HD 
HETATM    8  H1  UNL     1     -13.413   9.259  70.135  1.00  0.00     0.000 HD 
HETATM    9  H   UNL     1     -11.591   8.692  73.109  1.00  0.00     0.000 HD 
ENDROOT
BRANCH   5  10
HETATM   10  C   UNL     1     -11.224   8.973  71.088  1.00  0.00    -0.305 A  
HETATM   11  N   UNL     1     -11.003  10.036  70.330  1.00  0.00    -0.295 NA 
HETATM   12  C   UNL     1     -10.120   9.736  69.295  1.00  0.00    -0.198 A  
HETATM   13  S   UNL     1     -10.362   7.558  70.580  1.00  0.00    -0.210 SA 
HETATM   14  C   UNL     1      -9.695   8.423  69.269  1.00  0.00    -0.177 A  
BRANCH  12  15
HETATM   15  C   UNL     1      -9.735  10.816  68.334  1.00  0.00    -0.174 C  
BRANCH  15  16
HETATM   16  S   UNL     1     -11.173  11.326  67.329  1.00  0.00    -0.254 SA 
BRANCH  16  17
HETATM   17  C   UNL     1     -10.348  11.763  65.758  1.00  0.00    -0.253 C  
BRANCH  17  18
HETATM   18  C   UNL     1     -11.289  12.072  64.600  1.00  0.00    -0.377 C  
BRANCH  18  19
HETATM   19  C   UNL     1     -11.293  13.551  64.215  1.00  0.00    -0.375 C  
HETATM   20  H2  UNL     1     -13.056  13.329  63.095  1.00  0.00     0.000 HD 
HETATM   21  N   UNL     1     -12.329  13.970  63.415  1.00  0.00    -1.154 NA 
HETATM   22  H1  UNL     1     -12.332  14.957  63.157  1.00  0.00     0.000 HD 
BRANCH  19  23
HETATM   23  N   UNL     1     -10.322  14.257  64.692  1.00  0.00    -0.594 N  
HETATM   24  H   UNL     1      -9.365  13.913  64.613  1.00  0.00     0.000 HD 
BRANCH  23  25
HETATM   25  S   UNL     1     -10.602  15.671  65.412  1.00  0.00    -0.431 S  
HETATM   26  O   UNL     1     -11.337  15.453  66.635  1.00  0.00    -0.243 OA 
HETATM   27  O   UNL     1     -11.052  16.620  64.421  1.00  0.00    -0.985 OA 
HETATM   28  N   UNL     1      -9.090  16.207  65.894  1.00  0.00    -0.300 N  
HETATM   29  H1  UNL     1      -9.268  17.102  66.349  1.00  0.00     0.000 HD 
HETATM   30  H2  UNL     1      -8.192  15.742  65.762  1.00  0.00     0.000 HD 
ENDBRANCH  23  25
ENDBRANCH  19  23
ENDBRANCH  18  19
ENDBRANCH  17  18
ENDBRANCH  16  17
ENDBRANCH  15  16
ENDBRANCH  12  15
ENDBRANCH   5  10
TORSDOF 8
ENDMDL
MODEL       12
REMARK 921   NORMALIZED FREE ENERGY PREDICTED BY IDOCK:   -5.84 KCAL/MOL
REMARK 922        TOTAL FREE ENERGY PREDICTED BY IDOCK:   -9.75 KCAL/MOL
REMARK 923 INTER-LIGAND FREE ENERGY PREDICTED BY IDOCK:   -8.17 KCAL/MOL
REMARK 924 INTRA-LIGAND FREE ENERGY PREDICTED BY IDOCK:   -1.58 KCAL/MOL
REMARK 927      BINDING AFFINITY PREDICTED BY RF-SCORE:    0.00 PKD
ROOT
HETATM    1  N   UNL     1     -12.652  13.941  63.090  1.00  0.00    -0.976 NA 
HETATM    2  C   UNL     1     -11.984  13.805  64.261  1.00  0.00    -0.443 C  
HETATM    3  H2  UNL     1     -13.630  13.697  62.937  1.00  0.00     0.000 HD 
HETATM    4  H1  UNL     1     -12.023  14.326  62.386  1.00  0.00     0.000 HD 
HETATM    5  N   UNL     1     -10.750  14.161  64.357  1.00  0.00    -0.604 NA 
HETATM    6  N   UNL     1     -12.821  13.292  65.199  1.00  0.00    -0.706 NA 
HETATM    7  H2  UNL     1     -13.799  13.048  65.045  1.00  0.00     0.000 HD 
HETATM    8  H1  UNL     1     -12.318  13.191  66.080  1.00  0.00     0.000 HD 
HETATM    9  H   UNL     1     -10.259  14.560  63.557  1.00  0.00     0.000 HD 
ENDROOT
BRANCH   5  10
HETATM   10  C   UNL     1     -10.116  13.995  65.546  1.00  0.00    -0.320 A  
HETATM   11  N   UNL     1      -9.910  12.875  66.224  1.00  0.00    -0.270 NA 
HETATM   12  C   UNL     1      -9.201  13.125  67.395  1.00  0.00    -0.213 A  
HETATM   13  S   UNL     1      -9.450  15.404  66.302  1.00  0.00    -0.332 SA 
HETATM   14  C   UNL     1      -8.893  14.455  67.605  1.00  0.00    -0.193 A  
BRANCH  12  15
HETATM   15  C   UNL     1      -8.857  11.979  68.294  1.00  0.00    -0.182 C  
BRANCH  15  16
HETATM   16  S   UNL     1      -9.820  10.494  67.837  1.00  0.00    -0.164 SA 
BRANCH  16  17
HETATM   17  C   UNL     1     -11.462  10.939  68.503  1.00  0.00    -0.310 C  
BRANCH  17  18
HETATM   18  C   UNL     1     -11.437  11.704  69.821  1.00  0.00    -0.339 C  
BRANCH  18  19
HETATM   19  C   UNL     1     -11.878  13.160  69.673  1.00  0.00    -0.324 C  
HETATM   20  H2  UNL     1     -12.375  12.878  67.652  1.00  0.00     0.000 HD 
HETATM   21  N   UNL     1     -12.334  13.535  68.432  1.00  0.00    -0.244 NA 
HETATM   22  H1  UNL     1     -12.628  14.507  68.332  1.00  0.00     0.000 HD 
BRANCH  19  23
HETATM   23  N   UNL     1     -11.785  13.884  70.738  1.00  0.00    -0.522 N  
HETATM   24  H   UNL     1     -11.466  13.459  71.609  1.00  0.00     0.000 HD 
BRANCH  23  25
HETATM   25  S   UNL     1     -12.165  15.450  70.711  1.00  0.00    -0.417 S  
HETATM   26  O   UNL     1     -11.678  16.043  69.488  1.00  0.00    -0.325 OA 
HETATM   27  O   UNL     1     -11.867  16.028  72.000  1.00  0.00    -0.455 OA 
HETATM   28  N   UNL     1     -13.835  15.477  70.581  1.00  0.00    -0.834 N  
HETATM   29  H1  UNL     1     -14.075  16.468  70.564  1.00  0.00     0.000 HD 
HETATM   30  H2  UNL     1     -14.470  14.681  70.531  1.00  0.00     0.000 HD 
ENDBRANCH  23  25
ENDBRANCH  19  23
ENDBRANCH  18  19
ENDBRANCH  17  18
ENDBRANCH  16  17
ENDBRANCH  15  16
ENDBRANCH  12  15
ENDBRANCH   5  10
TORSDOF 8
ENDMDL
MODEL       13
REMARK 921   NORMALIZED FREE ENERGY PREDICTED BY IDOCK:   -5.83 KCAL/MOL
REMARK 922        TOTAL FREE ENERGY PREDICTED BY IDOCK:   -9.73 KCAL/MOL
REMARK 923 INTER-LIGAND FREE ENERGY PREDICTED BY IDOCK:   -8.74 KCAL/MOL
REMARK 924 INTRA-LIGAND FREE ENERGY PREDICTED BY IDOCK:   -0.99 KCAL/MOL
REMARK 927      BINDING AFFINITY PREDICTED BY RF-SCORE:    0.00 PKD
ROOT
HETATM    1  N   UNL     1     -13.136  16.227  74.005  1.00  0.00    -0.932 NA 
HETATM    2  C   UNL     1     -12.888  15.690  72.786  1.00  0.00    -0.452 C  
HETATM    3  H2  UNL     1     -13.962  16.043  74.574  1.00  0.00     0.000 HD 
HETATM    4  H1  UNL     1     -12.367  16.844  74.264  1.00  0.00     0.000 HD 
HETATM    5  N   UNL     1     -11.803  15.973  72.153  1.00  0.00    -0.493 NA 
HETATM    6  N   UNL     1     -13.912  14.868  72.441  1.00  0.00    -0.473 NA 
HETATM    7  H2  UNL     1     -14.738  14.684  73.010  1.00  0.00     0.000 HD 
HETATM    8  H1  UNL     1     -13.725  14.463  71.524  1.00  0.00     0.000 HD 
HETATM    9  H   UNL     1     -11.109  16.598  72.563  1.00  0.00     0.000 HD 
ENDROOT
BRANCH   5  10
HETATM   10  C   UNL     1     -11.602  15.423  70.928  1.00  0.00    -0.358 A  
HETATM   11  N   UNL     1     -11.833  14.180  70.532  1.00  0.00    -0.300 NA 
HETATM   12  C   UNL     1     -11.510  14.017  69.188  1.00  0.00    -0.296 A  
HETATM   13  S   UNL     1     -10.985  16.453  69.680  1.00  0.00    -0.292 SA 
HETATM   14  C   UNL     1     -11.009  15.150  68.579  1.00  0.00    -0.262 A  
BRANCH  12  15
HETATM   15  C   UNL     1     -11.716  12.679  68.550  1.00  0.00    -0.330 C  
BRANCH  15  16
HETATM   16  S   UNL     1     -11.254  11.339  69.703  1.00  0.00    -0.223 SA 
BRANCH  16  17
HETATM   17  C   UNL     1     -12.906  10.780  70.248  1.00  0.00    -0.160 C  
BRANCH  17  18
HETATM   18  C   UNL     1     -13.031  10.499  71.741  1.00  0.00    -0.582 C  
BRANCH  18  19
HETATM   19  C   UNL     1     -13.413   9.051  72.044  1.00  0.00    -0.442 C  
HETATM   20  H2  UNL     1     -14.193   9.574  73.922  1.00  0.00     0.000 HD 
HETATM   21  N   UNL     1     -14.012   8.820  73.259  1.00  0.00    -1.116 NA 
HETATM   22  H1  UNL     1     -14.267   7.853  73.462  1.00  0.00     0.000 HD 
BRANCH  19  23
HETATM   23  N   UNL     1     -13.139   8.193  71.117  1.00  0.00    -0.518 N  
HETATM   24  H   UNL     1     -13.709   8.168  70.271  1.00  0.00     0.000 HD 
BRANCH  23  25
HETATM   25  S   UNL     1     -11.910   7.164  71.278  1.00  0.00    -0.337 S  
HETATM   26  O   UNL     1     -10.762   7.862  71.806  1.00  0.00    -0.220 OA 
HETATM   27  O   UNL     1     -11.817   6.354  70.087  1.00  0.00    -0.409 OA 
HETATM   28  N   UNL     1     -12.391   6.119  72.496  1.00  0.00    -0.542 N  
HETATM   29  H1  UNL     1     -11.613   5.468  72.597  1.00  0.00     0.000 HD 
HETATM   30  H2  UNL     1     -13.267   6.131  73.019  1.00  0.00     0.000 HD 
ENDBRANCH  23  25
ENDBRANCH  19  23
ENDBRANCH  18  19
ENDBRANCH  17  18
ENDBRANCH  16  17
ENDBRANCH  15  16
ENDBRANCH  12  15
ENDBRANCH   5  10
TORSDOF 8
ENDMDL
MODEL       14
REMARK 921   NORMALIZED FREE ENERGY PREDICTED BY IDOCK:   -5.79 KCAL/MOL
REMARK 922        TOTAL FREE ENERGY PREDICTED BY IDOCK:   -9.68 KCAL/MOL
REMARK 923 INTER-LIGAND FREE ENERGY PREDICTED BY IDOCK:   -7.94 KCAL/MOL
REMARK 924 INTRA-LIGAND FREE ENERGY PREDICTED BY IDOCK:   -1.74 KCAL/MOL
REMARK 927      BINDING AFFINITY PREDICTED BY RF-SCORE:    0.00 PKD
ROOT
HETATM    1  N   UNL     1     -12.333  13.777  63.135  1.00  0.00    -1.106 NA 
HETATM    2  C   UNL     1     -11.363  12.941  63.578  1.00  0.00    -0.351 C  
HETATM    3  H2  UNL     1     -12.319  14.793  63.218  1.00  0.00     0.000 HD 
HETATM    4  H1  UNL     1     -13.079  13.230  62.706  1.00  0.00     0.000 HD 
HETATM    5  N   UNL     1     -11.467  11.668  63.408  1.00  0.00    -0.757 NA 
HETATM    6  N   UNL     1     -10.370  13.668  64.150  1.00  0.00    -0.699 NA 
HETATM    7  H2  UNL     1     -10.356  14.684  64.233  1.00  0.00     0.000 HD 
HETATM    8  H1  UNL     1      -9.639  13.039  64.483  1.00  0.00     0.000 HD 
HETATM    9  H   UNL     1     -12.275  11.271  62.930  1.00  0.00     0.000 HD 
ENDROOT
BRANCH   5  10
HETATM   10  C   UNL     1     -10.478  10.867  63.880  1.00  0.00    -0.289 A  
HETATM   11  N   UNL     1     -10.299  10.411  65.111  1.00  0.00    -0.261 NA 
HETATM   12  C   UNL     1      -9.170   9.599  65.183  1.00  0.00    -0.246 A  
HETATM   13  S   UNL     1      -9.281  10.324  62.751  1.00  0.00    -0.312 SA 
HETATM   14  C   UNL     1      -8.484   9.467  63.993  1.00  0.00    -0.195 A  
BRANCH  12  15
HETATM   15  C   UNL     1      -8.808   8.976  66.494  1.00  0.00    -0.135 C  
BRANCH  15  16
HETATM   16  S   UNL     1     -10.191   7.963  67.129  1.00  0.00    -0.316 SA 
BRANCH  16  17
HETATM   17  C   UNL     1     -10.449   8.734  68.765  1.00  0.00    -0.191 C  
BRANCH  17  18
HETATM   18  C   UNL     1      -9.915  10.156  68.900  1.00  0.00    -0.207 C  
BRANCH  18  19
HETATM   19  C   UNL     1     -10.977  11.219  68.618  1.00  0.00    -0.218 C  
HETATM   20  H2  UNL     1     -12.536   9.877  69.041  1.00  0.00     0.000 HD 
HETATM   21  N   UNL     1     -12.286  10.826  68.761  1.00  0.00    -0.814 NA 
HETATM   22  H1  UNL     1     -12.995  11.535  68.573  1.00  0.00     0.000 HD 
BRANCH  19  23
HETATM   23  N   UNL     1     -10.528  12.383  68.282  1.00  0.00    -0.219 N  
HETATM   24  H   UNL     1      -9.592  12.664  68.573  1.00  0.00     0.000 HD 
BRANCH  23  25
HETATM   25  S   UNL     1     -11.427  13.396  67.409  1.00  0.00    -0.354 S  
HETATM   26  O   UNL     1     -12.272  12.643  66.514  1.00  0.00    -0.538 OA 
HETATM   27  O   UNL     1     -10.591  14.472  66.931  1.00  0.00    -0.274 OA 
HETATM   28  N   UNL     1     -12.470  14.097  68.517  1.00  0.00    -0.461 N  
HETATM   29  H1  UNL     1     -13.038  14.738  67.964  1.00  0.00     0.000 HD 
HETATM   30  H2  UNL     1     -12.524  13.921  69.520  1.00  0.00     0.000 HD 
ENDBRANCH  23  25
ENDBRANCH  19  23
ENDBRANCH  18  19
ENDBRANCH  17  18
ENDBRANCH  16  17
ENDBRANCH  15  16
ENDBRANCH  12  15
ENDBRANCH   5  10
TORSDOF 8
ENDMDL
MODEL       15
REMARK 921   NORMALIZED FREE ENERGY PREDICTED BY IDOCK:   -5.79 KCAL/MOL
REMARK 922        TOTAL FREE ENERGY PREDICTED BY IDOCK:   -9.67 KCAL/MOL
REMARK 923 INTER-LIGAND FREE ENERGY PREDICTED BY IDOCK:   -8.77 KCAL/MOL
REMARK 924 INTRA-LIGAND FREE ENERGY PREDICTED BY IDOCK:   -0.90 KCAL/MOL
REMARK 927      BINDING AFFINITY PREDICTED BY RF-SCORE:    0.00 PKD
ROOT
HETATM    1  N   UNL     1     -14.252   8.829  73.195  1.00  0.00    -1.172 NA 
HETATM    2  C   UNL     1     -13.775   9.514  72.128  1.00  0.00    -0.372 C  
HETATM    3  H2  UNL     1     -14.726   7.927  73.153  1.00  0.00     0.000 HD 
HETATM    4  H1  UNL     1     -14.063   9.356  74.047  1.00  0.00     0.000 HD 
HETATM    5  N   UNL     1     -13.173  10.642  72.290  1.00  0.00    -0.574 NA 
HETATM    6  N   UNL     1     -14.026   8.812  70.994  1.00  0.00    -0.587 NA 
HETATM    7  H2  UNL     1     -14.499   7.910  70.952  1.00  0.00     0.000 HD 
HETATM    8  H1  UNL     1     -13.666   9.327  70.191  1.00  0.00     0.000 HD 
HETATM    9  H   UNL     1     -13.039  11.031  73.222  1.00  0.00     0.000 HD 
ENDROOT
BRANCH   5  10
HETATM   10  C   UNL     1     -12.723  11.301  71.191  1.00  0.00    -0.390 A  
HETATM   11  N   UNL     1     -12.233  10.798  70.068  1.00  0.00    -0.331 NA 
HETATM   12  C   UNL     1     -11.898  11.810  69.173  1.00  0.00    -0.326 A  
HETATM   13  S   UNL     1     -12.804  13.031  71.208  1.00  0.00    -0.197 SA 
HETATM   14  C   UNL     1     -12.121  13.088  69.645  1.00  0.00    -0.241 A  
BRANCH  12  15
HETATM   15  C   UNL     1     -11.339  11.440  67.835  1.00  0.00    -0.303 C  
BRANCH  15  16
HETATM   16  S   UNL     1      -9.521  11.629  67.823  1.00  0.00    -0.183 SA 
BRANCH  16  17
HETATM   17  C   UNL     1      -9.321  12.876  66.503  1.00  0.00    -0.222 C  
BRANCH  17  18
HETATM   18  C   UNL     1      -9.571  14.317  66.934  1.00  0.00    -0.268 C  
BRANCH  18  19
HETATM   19  C   UNL     1     -10.161  15.178  65.817  1.00  0.00    -0.341 C  
HETATM   20  H2  UNL     1      -9.743  16.949  66.864  1.00  0.00     0.000 HD 
HETATM   21  N   UNL     1     -10.135  16.537  66.017  1.00  0.00    -0.338 NA 
HETATM   22  H1  UNL     1     -10.529  17.112  65.272  1.00  0.00     0.000 HD 
BRANCH  19  23
HETATM   23  N   UNL     1     -10.616  14.533  64.794  1.00  0.00    -0.552 N  
HETATM   24  H   UNL     1     -10.021  13.849  64.326  1.00  0.00     0.000 HD 
BRANCH  23  25
HETATM   25  S   UNL     1     -12.109  14.794  64.247  1.00  0.00    -0.266 S  
HETATM   26  O   UNL     1     -12.449  13.786  63.271  1.00  0.00    -0.819 OA 
HETATM   27  O   UNL     1     -12.266  16.201  63.964  1.00  0.00    -0.855 OA 
HETATM   28  N   UNL     1     -13.100  14.488  65.562  1.00  0.00    -0.436 N  
HETATM   29  H1  UNL     1     -14.045  14.653  65.216  1.00  0.00     0.000 HD 
HETATM   30  H2  UNL     1     -12.821  14.200  66.500  1.00  0.00     0.000 HD 
ENDBRANCH  23  25
ENDBRANCH  19  23
ENDBRANCH  18  19
ENDBRANCH  17  18
ENDBRANCH  16  17
ENDBRANCH  15  16
ENDBRANCH  12  15
ENDBRANCH   5  10
TORSDOF 8
ENDMDL
MODEL       16
REMARK 921   NORMALIZED FREE ENERGY PREDICTED BY IDOCK:   -5.76 KCAL/MOL
REMARK 922        TOTAL FREE ENERGY PREDICTED BY IDOCK:   -9.63 KCAL/MOL
REMARK 923 INTER-LIGAND FREE ENERGY PREDICTED BY IDOCK:   -7.96 KCAL/MOL
REMARK 924 INTRA-LIGAND FREE ENERGY PREDICTED BY IDOCK:   -1.67 KCAL/MOL
REMARK 927      BINDING AFFINITY PREDICTED BY RF-SCORE:    0.00 PKD
ROOT
HETATM    1  N   UNL     1     -13.318  15.338  72.844  1.00  0.00    -0.483 NA 
HETATM    2  C   UNL     1     -13.074  15.278  71.512  1.00  0.00    -0.438 C  
HETATM    3  H2  UNL     1     -14.232  15.486  73.270  1.00  0.00     0.000 HD 
HETATM    4  H1  UNL     1     -12.443  15.211  73.352  1.00  0.00     0.000 HD 
HETATM    5  N   UNL     1     -11.881  15.068  71.073  1.00  0.00    -0.300 NA 
HETATM    6  N   UNL     1     -14.238  15.447  70.834  1.00  0.00    -0.857 NA 
HETATM    7  H2  UNL     1     -15.152  15.595  71.261  1.00  0.00     0.000 HD 
HETATM    8  H1  UNL     1     -14.055  15.401  69.832  1.00  0.00     0.000 HD 
HETATM    9  H   UNL     1     -11.104  14.934  71.720  1.00  0.00     0.000 HD 
ENDROOT
BRANCH   5  10
HETATM   10  C   UNL     1     -11.681  15.030  69.730  1.00  0.00    -0.307 A  
HETATM   11  N   UNL     1     -12.151  14.160  68.849  1.00  0.00    -0.336 NA 
HETATM   12  C   UNL     1     -11.728  14.478  67.561  1.00  0.00    -0.386 A  
HETATM   13  S   UNL     1     -10.706  16.279  69.031  1.00  0.00    -0.323 SA 
HETATM   14  C   UNL     1     -10.912  15.589  67.485  1.00  0.00    -0.316 A  
BRANCH  12  15
HETATM   15  C   UNL     1     -12.169  13.616  66.419  1.00  0.00    -0.423 C  
BRANCH  15  16
HETATM   16  S   UNL     1     -10.727  13.027  65.464  1.00  0.00    -0.287 SA 
BRANCH  16  17
HETATM   17  C   UNL     1     -10.017  11.820  66.638  1.00  0.00    -0.200 C  
BRANCH  17  18
HETATM   18  C   UNL     1     -11.018  10.839  67.238  1.00  0.00    -0.359 C  
BRANCH  18  19
HETATM   19  C   UNL     1     -11.177  11.003  68.750  1.00  0.00    -0.266 C  
HETATM   20  H2  UNL     1      -9.391  12.099  68.891  1.00  0.00     0.000 HD 
HETATM   21  N   UNL     1     -10.188  11.707  69.394  1.00  0.00    -0.411 NA 
HETATM   22  H1  UNL     1     -10.294  11.817  70.403  1.00  0.00     0.000 HD 
BRANCH  19  23
HETATM   23  N   UNL     1     -12.235  10.468  69.263  1.00  0.00    -0.537 N  
HETATM   24  H   UNL     1     -12.969  10.117  68.648  1.00  0.00     0.000 HD 
BRANCH  23  25
HETATM   25  S   UNL     1     -12.410  10.347  70.860  1.00  0.00    -0.416 S  
HETATM   26  O   UNL     1     -12.796  11.628  71.401  1.00  0.00    -0.409 OA 
HETATM   27  O   UNL     1     -11.296   9.605  71.400  1.00  0.00    -0.361 OA 
HETATM   28  N   UNL     1     -13.748   9.360  71.064  1.00  0.00    -0.545 N  
HETATM   29  H1  UNL     1     -13.859   9.284  72.075  1.00  0.00     0.000 HD 
HETATM   30  H2  UNL     1     -14.324   8.931  70.340  1.00  0.00     0.000 HD 
ENDBRANCH  23  25
ENDBRANCH  19  23
ENDBRANCH  18  19
ENDBRANCH  17  18
ENDBRANCH  16  17
ENDBRANCH  15  16
ENDBRANCH  12  15
ENDBRANCH   5  10
TORSDOF 8
ENDMDL
MODEL       17
REMARK 921   NORMALIZED FREE ENERGY PREDICTED BY IDOCK:   -5.76 KCAL/MOL
REMARK 922        TOTAL FREE ENERGY PREDICTED BY IDOCK:   -9.63 KCAL/MOL
REMARK 923 INTER-LIGAND FREE ENERGY PREDICTED BY IDOCK:   -8.69 KCAL/MOL
REMARK 924 INTRA-LIGAND FREE ENERGY PREDICTED BY IDOCK:   -0.94 KCAL/MOL
REMARK 927      BINDING AFFINITY PREDICTED BY RF-SCORE:    0.00 PKD
ROOT
HETATM    1  N   UNL     1     -12.402  13.868  63.032  1.00  0.00    -1.023 NA 
HETATM    2  C   UNL     1     -12.082  12.895  63.918  1.00  0.00    -0.480 C  
HETATM    3  H2  UNL     1     -13.342  14.230  62.866  1.00  0.00     0.000 HD 
HETATM    4  H1  UNL     1     -11.557  14.184  62.557  1.00  0.00     0.000 HD 
HETATM    5  N   UNL     1     -10.858  12.520  64.065  1.00  0.00    -0.373 NA 
HETATM    6  N   UNL     1     -13.207  12.475  64.550  1.00  0.00    -0.779 NA 
HETATM    7  H2  UNL     1     -14.146  12.836  64.385  1.00  0.00     0.000 HD 
HETATM    8  H1  UNL     1     -12.966  11.742  65.218  1.00  0.00     0.000 HD 
HETATM    9  H   UNL     1     -10.111  12.957  63.526  1.00  0.00     0.000 HD 
ENDROOT
BRANCH   5  10
HETATM   10  C   UNL     1     -10.584  11.531  64.955  1.00  0.00    -0.303 A  
HETATM   11  N   UNL     1     -10.995  11.409  66.208  1.00  0.00    -0.275 NA 
HETATM   12  C   UNL     1     -10.507  10.237  66.781  1.00  0.00    -0.214 A  
HETATM   13  S   UNL     1      -9.588  10.222  64.413  1.00  0.00    -0.311 SA 
HETATM   14  C   UNL     1      -9.701   9.487  65.949  1.00  0.00    -0.282 A  
BRANCH  12  15
HETATM   15  C   UNL     1     -10.875   9.914  68.195  1.00  0.00    -0.234 C  
BRANCH  15  16
HETATM   16  S   UNL     1     -11.717  11.332  68.981  1.00  0.00    -0.362 SA 
BRANCH  16  17
HETATM   17  C   UNL     1     -11.813  10.750  70.710  1.00  0.00    -0.339 C  
BRANCH  17  18
HETATM   18  C   UNL     1     -13.181  10.236  71.143  1.00  0.00    -0.429 C  
BRANCH  18  19
HETATM   19  C   UNL     1     -13.097   9.145  72.210  1.00  0.00    -0.438 C  
HETATM   20  H2  UNL     1     -14.951   9.698  73.025  1.00  0.00     0.000 HD 
HETATM   21  N   UNL     1     -14.154   9.064  73.084  1.00  0.00    -1.223 NA 
HETATM   22  H1  UNL     1     -14.098   8.336  73.797  1.00  0.00     0.000 HD 
BRANCH  19  23
HETATM   23  N   UNL     1     -12.040   8.403  72.170  1.00  0.00    -0.349 N  
HETATM   24  H   UNL     1     -11.134   8.806  72.410  1.00  0.00     0.000 HD 
BRANCH  23  25
HETATM   25  S   UNL     1     -12.132   6.851  71.748  1.00  0.00    -0.355 S  
HETATM   26  O   UNL     1     -13.476   6.371  71.967  1.00  0.00    -0.049 OA 
HETATM   27  O   UNL     1     -10.986   6.151  72.277  1.00  0.00    -0.234 OA 
HETATM   28  N   UNL     1     -11.930   6.853  70.085  1.00  0.00    -0.637 N  
HETATM   29  H1  UNL     1     -11.988   5.871  69.818  1.00  0.00     0.000 HD 
HETATM   30  H2  UNL     1     -11.781   7.657  69.475  1.00  0.00     0.000 HD 
ENDBRANCH  23  25
ENDBRANCH  19  23
ENDBRANCH  18  19
ENDBRANCH  17  18
ENDBRANCH  16  17
ENDBRANCH  15  16
ENDBRANCH  12  15
ENDBRANCH   5  10
TORSDOF 8
ENDMDL
MODEL       18
REMARK 921   NORMALIZED FREE ENERGY PREDICTED BY IDOCK:   -5.74 KCAL/MOL
REMARK 922        TOTAL FREE ENERGY PREDICTED BY IDOCK:   -9.61 KCAL/MOL
REMARK 923 INTER-LIGAND FREE ENERGY PREDICTED BY IDOCK:   -8.67 KCAL/MOL
REMARK 924 INTRA-LIGAND FREE ENERGY PREDICTED BY IDOCK:   -0.94 KCAL/MOL
REMARK 927      BINDING AFFINITY PREDICTED BY RF-SCORE:    0.00 PKD
ROOT
HETATM    1  N   UNL     1      -9.184  11.573  62.369  1.00  0.00    -0.470 NA 
HETATM    2  C   UNL     1      -9.923  11.836  63.473  1.00  0.00    -0.408 C  
HETATM    3  H2  UNL     1      -9.172  10.688  61.863  1.00  0.00     0.000 HD 
HETATM    4  H1  UNL     1      -8.642  12.401  62.121  1.00  0.00     0.000 HD 
HETATM    5  N   UNL     1      -9.881  12.997  64.029  1.00  0.00    -0.706 NA 
HETATM    6  N   UNL     1     -10.645  10.735  63.803  1.00  0.00    -0.509 NA 
HETATM    7  H2  UNL     1     -10.633   9.849  63.298  1.00  0.00     0.000 HD 
HETATM    8  H1  UNL     1     -11.202  10.932  64.634  1.00  0.00     0.000 HD 
HETATM    9  H   UNL     1      -9.299  13.740  63.641  1.00  0.00     0.000 HD 
ENDROOT
BRANCH   5  10
HETATM   10  C   UNL     1     -10.627  13.212  65.143  1.00  0.00    -0.319 A  
HETATM   11  N   UNL     1     -10.433  12.754  66.370  1.00  0.00    -0.248 NA 
HETATM   12  C   UNL     1     -11.417  13.219  67.238  1.00  0.00    -0.338 A  
HETATM   13  S   UNL     1     -12.016  14.236  64.990  1.00  0.00    -0.429 SA 
HETATM   14  C   UNL     1     -12.372  14.018  66.644  1.00  0.00    -0.371 A  
BRANCH  12  15
HETATM   15  C   UNL     1     -11.360  12.819  68.679  1.00  0.00    -0.294 C  
BRANCH  15  16
HETATM   16  S   UNL     1     -12.032  11.135  68.906  1.00  0.00    -0.203 SA 
BRANCH  16  17
HETATM   17  C   UNL     1     -11.774  10.908  70.701  1.00  0.00    -0.316 C  
BRANCH  17  18
HETATM   18  C   UNL     1     -13.045  10.695  71.514  1.00  0.00    -0.527 C  
BRANCH  18  19
HETATM   19  C   UNL     1     -13.255   9.236  71.919  1.00  0.00    -0.423 C  
HETATM   20  H2  UNL     1     -14.151   9.793  73.734  1.00  0.00     0.000 HD 
HETATM   21  N   UNL     1     -13.858   9.021  73.134  1.00  0.00    -1.177 NA 
HETATM   22  H1  UNL     1     -13.998   8.048  73.405  1.00  0.00     0.000 HD 
BRANCH  19  23
HETATM   23  N   UNL     1     -12.848   8.354  71.066  1.00  0.00    -0.503 N  
HETATM   24  H   UNL     1     -13.201   8.381  70.109  1.00  0.00     0.000 HD 
BRANCH  23  25
HETATM   25  S   UNL     1     -11.793   7.214  71.493  1.00  0.00    -0.334 S  
HETATM   26  O   UNL     1     -10.798   7.783  72.371  1.00  0.00    -0.253 OA 
HETATM   27  O   UNL     1     -11.420   6.457  70.322  1.00  0.00    -0.370 OA 
HETATM   28  N   UNL     1     -12.674   6.159  72.449  1.00  0.00    -0.471 N  
HETATM   29  H1  UNL     1     -12.007   5.438  72.719  1.00  0.00     0.000 HD 
HETATM   30  H2  UNL     1     -13.660   6.223  72.705  1.00  0.00     0.000 HD 
ENDBRANCH  23  25
ENDBRANCH  19  23
ENDBRANCH  18  19
ENDBRANCH  17  18
ENDBRANCH  16  17
ENDBRANCH  15  16
ENDBRANCH  12  15
ENDBRANCH   5  10
TORSDOF 8
ENDMDL
MODEL       19
REMARK 921   NORMALIZED FREE ENERGY PREDICTED BY IDOCK:   -5.74 KCAL/MOL
REMARK 922        TOTAL FREE ENERGY PREDICTED BY IDOCK:   -9.60 KCAL/MOL
REMARK 923 INTER-LIGAND FREE ENERGY PREDICTED BY IDOCK:   -7.63 KCAL/MOL
REMARK 924 INTRA-LIGAND FREE ENERGY PREDICTED BY IDOCK:   -1.97 KCAL/MOL
REMARK 927      BINDING AFFINITY PREDICTED BY RF-SCORE:    0.00 PKD
ROOT
HETATM    1  N   UNL     1     -12.519  14.113  63.220  1.00  0.00    -1.098 NA 
HETATM    2  C   UNL     1     -12.048  12.992  63.819  1.00  0.00    -0.502 C  
HETATM    3  H2  UNL     1     -13.504  14.345  63.095  1.00  0.00     0.000 HD 
HETATM    4  H1  UNL     1     -11.734  14.686  62.914  1.00  0.00     0.000 HD 
HETATM    5  N   UNL     1     -10.780  12.799  63.943  1.00  0.00    -0.424 NA 
HETATM    6  N   UNL     1     -13.092  12.228  64.227  1.00  0.00    -0.778 NA 
HETATM    7  H2  UNL     1     -14.077  12.461  64.102  1.00  0.00     0.000 HD 
HETATM    8  H1  UNL     1     -12.738  11.385  64.678  1.00  0.00     0.000 HD 
HETATM    9  H   UNL     1     -10.112  13.490  63.602  1.00  0.00     0.000 HD 
ENDROOT
BRANCH   5  10
HETATM   10  C   UNL     1     -10.353  11.656  64.538  1.00  0.00    -0.300 A  
HETATM   11  N   UNL     1     -10.652  11.187  65.740  1.00  0.00    -0.251 NA 
HETATM   12  C   UNL     1     -10.020   9.968  65.971  1.00  0.00    -0.267 A  
HETATM   13  S   UNL     1      -9.292  10.631  63.630  1.00  0.00    -0.310 SA 
HETATM   14  C   UNL     1      -9.220   9.532  64.934  1.00  0.00    -0.223 A  
BRANCH  12  15
HETATM   15  C   UNL     1     -10.247   9.269  67.276  1.00  0.00    -0.252 C  
BRANCH  15  16
HETATM   16  S   UNL     1      -9.399  10.151  68.633  1.00  0.00    -0.168 SA 
BRANCH  16  17
HETATM   17  C   UNL     1     -10.783  10.374  69.805  1.00  0.00    -0.278 C  
BRANCH  17  18
HETATM   18  C   UNL     1     -12.019  11.048  69.223  1.00  0.00    -0.410 C  
BRANCH  18  19
HETATM   19  C   UNL     1     -11.891  12.570  69.153  1.00  0.00    -0.296 C  
HETATM   20  H2  UNL     1     -11.847  12.734  71.246  1.00  0.00     0.000 HD 
HETATM   21  N   UNL     1     -11.817  13.231  70.355  1.00  0.00    -0.536 NA 
HETATM   22  H1  UNL     1     -11.732  14.247  70.309  1.00  0.00     0.000 HD 
BRANCH  19  23
HETATM   23  N   UNL     1     -11.854  13.075  67.964  1.00  0.00    -0.355 N  
HETATM   24  H   UNL     1     -12.421  12.660  67.225  1.00  0.00     0.000 HD 
BRANCH  23  25
HETATM   25  S   UNL     1     -10.926  14.350  67.634  1.00  0.00    -0.296 S  
HETATM   26  O   UNL     1     -11.194  14.807  66.291  1.00  0.00    -0.338 OA 
HETATM   27  O   UNL     1      -9.581  14.081  68.085  1.00  0.00    -0.207 OA 
HETATM   28  N   UNL     1     -11.502  15.562  68.636  1.00  0.00    -0.342 N  
HETATM   29  H1  UNL     1     -10.915  16.369  68.428  1.00  0.00     0.000 HD 
HETATM   30  H2  UNL     1     -12.269  15.506  69.307  1.00  0.00     0.000 HD 
ENDBRANCH  23  25
ENDBRANCH  19  23
ENDBRANCH  18  19
ENDBRANCH  17  18
ENDBRANCH  16  17
ENDBRANCH  15  16
ENDBRANCH  12  15
ENDBRANCH   5  10
TORSDOF 8
ENDMDL
MODEL       20
REMARK 921   NORMALIZED FREE ENERGY PREDICTED BY IDOCK:   -5.72 KCAL/MOL
REMARK 922        TOTAL FREE ENERGY PREDICTED BY IDOCK:   -9.58 KCAL/MOL
REMARK 923 INTER-LIGAND FREE ENERGY PREDICTED BY IDOCK:   -8.53 KCAL/MOL
REMARK 924 INTRA-LIGAND FREE ENERGY PREDICTED BY IDOCK:   -1.04 KCAL/MOL
REMARK 927      BINDING AFFINITY PREDICTED BY RF-SCORE:    0.00 PKD
ROOT
HETATM    1  N   UNL     1     -13.766  13.699  72.630  1.00  0.00    -0.730 NA 
HETATM    2  C   UNL     1     -13.006  12.909  71.833  1.00  0.00    -0.301 C  
HETATM    3  H2  UNL     1     -13.702  14.715  72.687  1.00  0.00     0.000 HD 
HETATM    4  H1  UNL     1     -14.411  13.118  73.164  1.00  0.00     0.000 HD 
HETATM    5  N   UNL     1     -13.176  11.633  71.822  1.00  0.00    -0.421 NA 
HETATM    6  N   UNL     1     -12.147  13.683  71.122  1.00  0.00    -0.436 NA 
HETATM    7  H2  UNL     1     -12.083  14.699  71.179  1.00  0.00     0.000 HD 
HETATM    8  H1  UNL     1     -11.575  13.089  70.521  1.00  0.00     0.000 HD 
HETATM    9  H   UNL     1     -13.892  11.197  72.404  1.00  0.00     0.000 HD 
ENDROOT
BRANCH   5  10
HETATM   10  C   UNL     1     -12.384  10.878  71.018  1.00  0.00    -0.393 A  
HETATM   11  N   UNL     1     -12.030  11.101  69.761  1.00  0.00    -0.329 NA 
HETATM   12  C   UNL     1     -11.188  10.095  69.294  1.00  0.00    -0.196 A  
HETATM   13  S   UNL     1     -11.701   9.437  71.693  1.00  0.00    -0.386 SA 
HETATM   14  C   UNL     1     -10.927   9.097  70.211  1.00  0.00    -0.245 A  
BRANCH  12  15
HETATM   15  C   UNL     1     -10.668  10.177  67.893  1.00  0.00    -0.269 C  
BRANCH  15  16
HETATM   16  S   UNL     1      -9.449  11.530  67.737  1.00  0.00    -0.173 SA 
BRANCH  16  17
HETATM   17  C   UNL     1      -8.973  11.353  65.982  1.00  0.00    -0.197 C  
BRANCH  17  18
HETATM   18  C   UNL     1     -10.002  10.651  65.102  1.00  0.00    -0.366 C  
BRANCH  18  19
HETATM   19  C   UNL     1     -10.583  11.564  64.023  1.00  0.00    -0.379 C  
HETATM   20  H2  UNL     1     -10.716   9.979  62.652  1.00  0.00     0.000 HD 
HETATM   21  N   UNL     1     -10.876  10.972  62.817  1.00  0.00    -0.672 NA 
HETATM   22  H1  UNL     1     -11.264  11.582  62.096  1.00  0.00     0.000 HD 
BRANCH  19  23
HETATM   23  N   UNL     1     -10.746  12.800  64.362  1.00  0.00    -0.351 N  
HETATM   24  H   UNL     1      -9.941  13.427  64.381  1.00  0.00     0.000 HD 
BRANCH  23  25
HETATM   25  S   UNL     1     -12.202  13.365  64.757  1.00  0.00    -0.413 S  
HETATM   26  O   UNL     1     -12.180  13.849  66.117  1.00  0.00    -0.423 OA 
HETATM   27  O   UNL     1     -13.206  12.430  64.306  1.00  0.00    -0.769 OA 
HETATM   28  N   UNL     1     -12.399  14.729  63.806  1.00  0.00    -1.082 N  
HETATM   29  H1  UNL     1     -13.320  15.086  64.055  1.00  0.00     0.000 HD 
HETATM   30  H2  UNL     1     -11.742  15.117  63.127  1.00  0.00     0.000 HD 
ENDBRANCH  23  25
ENDBRANCH  19  23
ENDBRANCH  18  19
ENDBRANCH  17  18
ENDBRANCH  16  17
ENDBRANCH  15  16
ENDBRANCH  12  15
ENDBRANCH   5  10
TORSDOF 8
ENDMDL
MODEL       21
REMARK 921   NORMALIZED FREE ENERGY PREDICTED BY IDOCK:   -5.71 KCAL/MOL
REMARK 922        TOTAL FREE ENERGY PREDICTED BY IDOCK:   -9.55 KCAL/MOL
REMARK 923 INTER-LIGAND FREE ENERGY PREDICTED BY IDOCK:   -8.86 KCAL/MOL
REMARK 924 INTRA-LIGAND FREE ENERGY PREDICTED BY IDOCK:   -0.69 KCAL/MOL
REMARK 927      BINDING AFFINITY PREDICTED BY RF-SCORE:    0.00 PKD
ROOT
HETATM    1  N   UNL     1     -13.597   8.926  72.622  1.00  0.00    -0.754 NA 
HETATM    2  C   UNL     1     -13.153  10.034  71.981  1.00  0.00    -0.441 C  
HETATM    3  H2  UNL     1     -13.270   7.975  72.451  1.00  0.00     0.000 HD 
HETATM    4  H1  UNL     1     -14.308   9.191  73.301  1.00  0.00     0.000 HD 
HETATM    5  N   UNL     1     -13.619  11.196  72.283  1.00  0.00    -0.453 NA 
HETATM    6  N   UNL     1     -12.205   9.681  71.076  1.00  0.00    -0.315 NA 
HETATM    7  H2  UNL     1     -11.878   8.730  70.905  1.00  0.00     0.000 HD 
HETATM    8  H1  UNL     1     -11.871  10.515  70.594  1.00  0.00     0.000 HD 
HETATM    9  H   UNL     1     -14.321  11.302  73.016  1.00  0.00     0.000 HD 
ENDROOT
BRANCH   5  10
HETATM   10  C   UNL     1     -13.156  12.278  71.606  1.00  0.00    -0.306 A  
HETATM   11  N   UNL     1     -12.284  12.319  70.610  1.00  0.00    -0.357 NA 
HETATM   12  C   UNL     1     -12.086  13.627  70.175  1.00  0.00    -0.361 A  
HETATM   13  S   UNL     1     -13.780  13.830  72.056  1.00  0.00    -0.494 SA 
HETATM   14  C   UNL     1     -12.804  14.577  70.872  1.00  0.00    -0.360 A  
BRANCH  12  15
HETATM   15  C   UNL     1     -11.141  13.878  69.041  1.00  0.00    -0.268 C  
BRANCH  15  16
HETATM   16  S   UNL     1     -11.382  15.558  68.363  1.00  0.00    -0.362 SA 
BRANCH  16  17
HETATM   17  C   UNL     1     -10.716  15.339  66.676  1.00  0.00    -0.309 C  
BRANCH  17  18
HETATM   18  C   UNL     1      -9.567  14.345  66.561  1.00  0.00    -0.310 C  
BRANCH  18  19
HETATM   19  C   UNL     1      -9.915  13.130  65.701  1.00  0.00    -0.227 C  
HETATM   20  H2  UNL     1      -9.326  11.799  67.215  1.00  0.00     0.000 HD 
HETATM   21  N   UNL     1      -9.699  11.898  66.271  1.00  0.00    -0.223 NA 
HETATM   22  H1  UNL     1      -9.931  11.087  65.697  1.00  0.00     0.000 HD 
BRANCH  19  23
HETATM   23  N   UNL     1     -10.388  13.392  64.528  1.00  0.00    -0.545 N  
HETATM   24  H   UNL     1      -9.845  13.966  63.884  1.00  0.00     0.000 HD 
BRANCH  23  25
HETATM   25  S   UNL     1     -11.824  12.823  64.068  1.00  0.00    -0.476 S  
HETATM   26  O   UNL     1     -12.424  13.734  63.123  1.00  0.00    -0.786 OA 
HETATM   27  O   UNL     1     -12.542  12.364  65.233  1.00  0.00    -0.636 OA 
HETATM   28  N   UNL     1     -11.469  11.443  63.187  1.00  0.00    -0.873 N  
HETATM   29  H1  UNL     1     -12.378  11.083  62.896  1.00  0.00     0.000 HD 
HETATM   30  H2  UNL     1     -10.549  11.050  62.986  1.00  0.00     0.000 HD 
ENDBRANCH  23  25
ENDBRANCH  19  23
ENDBRANCH  18  19
ENDBRANCH  17  18
ENDBRANCH  16  17
ENDBRANCH  15  16
ENDBRANCH  12  15
ENDBRANCH   5  10
TORSDOF 8
ENDMDL
MODEL       22
REMARK 921   NORMALIZED FREE ENERGY PREDICTED BY IDOCK:   -5.69 KCAL/MOL
REMARK 922        TOTAL FREE ENERGY PREDICTED BY IDOCK:   -9.53 KCAL/MOL
REMARK 923 INTER-LIGAND FREE ENERGY PREDICTED BY IDOCK:   -8.27 KCAL/MOL
REMARK 924 INTRA-LIGAND FREE ENERGY PREDICTED BY IDOCK:   -1.27 KCAL/MOL
REMARK 927      BINDING AFFINITY PREDICTED BY RF-SCORE:    0.00 PKD
ROOT
HETATM    1  N   UNL     1     -12.177  11.571  63.234  1.00  0.00    -0.878 NA 
HETATM    2  C   UNL     1     -11.949  12.644  64.029  1.00  0.00    -0.451 C  
HETATM    3  H2  UNL     1     -13.039  11.027  63.209  1.00  0.00     0.000 HD 
HETATM    4  H1  UNL     1     -11.351  11.392  62.663  1.00  0.00     0.000 HD 
HETATM    5  N   UNL     1     -10.827  13.275  63.971  1.00  0.00    -0.540 NA 
HETATM    6  N   UNL     1     -13.047  12.882  64.789  1.00  0.00    -0.796 NA 
HETATM    7  H2  UNL     1     -13.910  12.338  64.765  1.00  0.00     0.000 HD 
HETATM    8  H1  UNL     1     -12.876  13.690  65.387  1.00  0.00     0.000 HD 
HETATM    9  H   UNL     1     -10.098  12.984  63.320  1.00  0.00     0.000 HD 
ENDROOT
BRANCH   5  10
HETATM   10  C   UNL     1     -10.636  14.337  64.796  1.00  0.00    -0.412 A  
HETATM   11  N   UNL     1      -9.905  14.406  65.899  1.00  0.00    -0.316 NA 
HETATM   12  C   UNL     1      -9.954  15.683  66.450  1.00  0.00    -0.281 A  
HETATM   13  S   UNL     1     -11.413  15.826  64.376  1.00  0.00    -0.120 SA 
HETATM   14  C   UNL     1     -10.752  16.574  65.760  1.00  0.00    -0.225 A  
BRANCH  12  15
HETATM   15  C   UNL     1      -9.177  15.965  67.698  1.00  0.00    -0.208 C  
BRANCH  15  16
HETATM   16  S   UNL     1     -10.103  17.103  68.788  1.00  0.00    -0.342 SA 
BRANCH  16  17
HETATM   17  C   UNL     1     -10.665  15.944  70.084  1.00  0.00    -0.332 C  
BRANCH  17  18
HETATM   18  C   UNL     1     -12.008  15.276  69.812  1.00  0.00    -0.374 C  
BRANCH  18  19
HETATM   19  C   UNL     1     -11.873  13.953  69.059  1.00  0.00    -0.358 C  
HETATM   20  H2  UNL     1     -12.985  14.682  67.434  1.00  0.00     0.000 HD 
HETATM   21  N   UNL     1     -12.475  13.889  67.825  1.00  0.00    -0.377 NA 
HETATM   22  H1  UNL     1     -12.386  13.006  67.323  1.00  0.00     0.000 HD 
BRANCH  19  23
HETATM   23  N   UNL     1     -11.194  13.033  69.661  1.00  0.00    -0.477 N  
HETATM   24  H   UNL     1     -10.299  13.268  70.089  1.00  0.00     0.000 HD 
BRANCH  23  25
HETATM   25  S   UNL     1     -11.742  11.520  69.744  1.00  0.00    -0.366 S  
HETATM   26  O   UNL     1     -12.223  11.109  68.446  1.00  0.00    -0.610 OA 
HETATM   27  O   UNL     1     -12.557  11.380  70.928  1.00  0.00    -0.367 OA 
HETATM   28  N   UNL     1     -10.378  10.591  70.025  1.00  0.00    -0.439 N  
HETATM   29  H1  UNL     1     -10.725   9.634  70.078  1.00  0.00     0.000 HD 
HETATM   30  H2  UNL     1      -9.414  10.911  70.122  1.00  0.00     0.000 HD 
ENDBRANCH  23  25
ENDBRANCH  19  23
ENDBRANCH  18  19
ENDBRANCH  17  18
ENDBRANCH  16  17
ENDBRANCH  15  16
ENDBRANCH  12  15
ENDBRANCH   5  10
TORSDOF 8
ENDMDL
MODEL       23
REMARK 921   NORMALIZED FREE ENERGY PREDICTED BY IDOCK:   -5.68 KCAL/MOL
REMARK 922        TOTAL FREE ENERGY PREDICTED BY IDOCK:   -9.52 KCAL/MOL
REMARK 923 INTER-LIGAND FREE ENERGY PREDICTED BY IDOCK:   -8.47 KCAL/MOL
REMARK 924 INTRA-LIGAND FREE ENERGY PREDICTED BY IDOCK:   -1.05 KCAL/MOL
REMARK 927      BINDING AFFINITY PREDICTED BY RF-SCORE:    0.00 PKD
ROOT
HETATM    1  N   UNL     1     -14.347   8.919  73.267  1.00  0.00    -1.177 NA 
HETATM    2  C   UNL     1     -13.492   8.740  72.231  1.00  0.00    -0.420 C  
HETATM    3  H2  UNL     1     -15.183   9.503  73.248  1.00  0.00     0.000 HD 
HETATM    4  H1  UNL     1     -14.022   8.379  74.068  1.00  0.00     0.000 HD 
HETATM    5  N   UNL     1     -12.470   7.966  72.351  1.00  0.00    -0.538 NA 
HETATM    6  N   UNL     1     -13.923   9.459  71.164  1.00  0.00    -0.408 NA 
HETATM    7  H2  UNL     1     -14.759  10.043  71.145  1.00  0.00     0.000 HD 
HETATM    8  H1  UNL     1     -13.280   9.324  70.383  1.00  0.00     0.000 HD 
HETATM    9  H   UNL     1     -12.293   7.468  73.223  1.00  0.00     0.000 HD 
ENDROOT
BRANCH   5  10
HETATM   10  C   UNL     1     -11.632   7.826  71.291  1.00  0.00    -0.277 A  
HETATM   11  N   UNL     1     -11.094   8.769  70.533  1.00  0.00    -0.245 NA 
HETATM   12  C   UNL     1     -10.272   8.215  69.555  1.00  0.00    -0.213 A  
HETATM   13  S   UNL     1     -11.158   6.219  70.853  1.00  0.00    -0.312 SA 
HETATM   14  C   UNL     1     -10.215   6.836  69.571  1.00  0.00    -0.184 A  
BRANCH  12  15
HETATM   15  C   UNL     1      -9.561   9.125  68.604  1.00  0.00    -0.152 C  
BRANCH  15  16
HETATM   16  S   UNL     1     -10.737   9.859  67.414  1.00  0.00    -0.218 SA 
BRANCH  16  17
HETATM   17  C   UNL     1     -10.293  11.627  67.548  1.00  0.00    -0.197 C  
BRANCH  17  18
HETATM   18  C   UNL     1     -11.468  12.571  67.778  1.00  0.00    -0.378 C  
BRANCH  18  19
HETATM   19  C   UNL     1     -11.857  13.352  66.523  1.00  0.00    -0.396 C  
HETATM   20  H2  UNL     1     -11.211  15.165  67.365  1.00  0.00     0.000 HD 
HETATM   21  N   UNL     1     -11.622  14.706  66.552  1.00  0.00    -0.362 NA 
HETATM   22  H1  UNL     1     -11.882  15.228  65.715  1.00  0.00     0.000 HD 
BRANCH  19  23
HETATM   23  N   UNL     1     -12.359  12.652  65.561  1.00  0.00    -0.456 N  
HETATM   24  H   UNL     1     -13.096  11.977  65.762  1.00  0.00     0.000 HD 
BRANCH  23  25
HETATM   25  S   UNL     1     -11.837  12.831  64.047  1.00  0.00    -0.476 S  
HETATM   26  O   UNL     1     -12.560  11.934  63.178  1.00  0.00    -0.530 OA 
HETATM   27  O   UNL     1     -10.394  12.877  64.051  1.00  0.00    -0.422 OA 
HETATM   28  N   UNL     1     -12.333  14.369  63.607  1.00  0.00    -1.106 N  
HETATM   29  H1  UNL     1     -12.003  14.482  62.650  1.00  0.00     0.000 HD 
HETATM   30  H2  UNL     1     -12.851  15.043  64.172  1.00  0.00     0.000 HD 
ENDBRANCH  23  25
ENDBRANCH  19  23
ENDBRANCH  18  19
ENDBRANCH  17  18
ENDBRANCH  16  17
ENDBRANCH  15  16
ENDBRANCH  12  15
ENDBRANCH   5  10
TORSDOF 8
ENDMDL
MODEL       24
REMARK 921   NORMALIZED FREE ENERGY PREDICTED BY IDOCK:   -5.67 KCAL/MOL
REMARK 922        TOTAL FREE ENERGY PREDICTED BY IDOCK:   -9.50 KCAL/MOL
REMARK 923 INTER-LIGAND FREE ENERGY PREDICTED BY IDOCK:   -7.51 KCAL/MOL
REMARK 924 INTRA-LIGAND FREE ENERGY PREDICTED BY IDOCK:   -1.98 KCAL/MOL
REMARK 927      BINDING AFFINITY PREDICTED BY RF-SCORE:    0.00 PKD
ROOT
HETATM    1  N   UNL     1     -12.827  14.749  69.753  1.00  0.00    -0.572 NA 
HETATM    2  C   UNL     1     -11.789  13.963  69.375  1.00  0.00    -0.334 C  
HETATM    3  H2  UNL     1     -13.438  14.575  70.551  1.00  0.00     0.000 HD 
HETATM    4  H1  UNL     1     -12.901  15.540  69.115  1.00  0.00     0.000 HD 
HETATM    5  N   UNL     1     -11.065  14.281  68.358  1.00  0.00    -0.246 NA 
HETATM    6  N   UNL     1     -11.691  12.909  70.224  1.00  0.00    -0.544 NA 
HETATM    7  H2  UNL     1     -12.301  12.736  71.021  1.00  0.00     0.000 HD 
HETATM    8  H1  UNL     1     -10.909  12.318  69.939  1.00  0.00     0.000 HD 
HETATM    9  H   UNL     1     -11.253  15.132  67.829  1.00  0.00     0.000 HD 
ENDROOT
BRANCH   5  10
HETATM   10  C   UNL     1     -10.043  13.458  68.006  1.00  0.00    -0.241 A  
HETATM   11  N   UNL     1     -10.089  12.173  67.687  1.00  0.00    -0.196 NA 
HETATM   12  C   UNL     1      -8.822  11.693  67.368  1.00  0.00    -0.160 A  
HETATM   13  S   UNL     1      -8.455  14.143  67.926  1.00  0.00    -0.182 SA 
HETATM   14  C   UNL     1      -7.813  12.629  67.472  1.00  0.00    -0.175 A  
BRANCH  12  15
HETATM   15  C   UNL     1      -8.669  10.259  66.966  1.00  0.00    -0.129 C  
BRANCH  15  16
HETATM   16  S   UNL     1      -8.016  10.134  65.264  1.00  0.00    -0.148 SA 
BRANCH  16  17
HETATM   17  C   UNL     1      -9.571  10.147  64.305  1.00  0.00    -0.290 C  
BRANCH  17  18
HETATM   18  C   UNL     1      -9.676  11.253  63.262  1.00  0.00    -0.405 C  
BRANCH  18  19
HETATM   19  C   UNL     1     -10.881  12.167  63.484  1.00  0.00    -0.458 C  
HETATM   20  H2  UNL     1     -12.200  10.740  62.687  1.00  0.00     0.000 HD 
HETATM   21  N   UNL     1     -12.103  11.669  63.098  1.00  0.00    -0.950 NA 
HETATM   22  H1  UNL     1     -12.908  12.279  63.246  1.00  0.00     0.000 HD 
BRANCH  19  23
HETATM   23  N   UNL     1     -10.624  13.313  64.022  1.00  0.00    -0.525 N  
HETATM   24  H   UNL     1      -9.662  13.653  64.045  1.00  0.00     0.000 HD 
BRANCH  23  25
HETATM   25  S   UNL     1     -11.800  14.212  64.657  1.00  0.00    -0.450 S  
HETATM   26  O   UNL     1     -12.762  14.542  63.632  1.00  0.00    -0.754 OA 
HETATM   27  O   UNL     1     -11.212  15.231  65.494  1.00  0.00    -0.329 OA 
HETATM   28  N   UNL     1     -12.604  13.180  65.703  1.00  0.00    -0.428 N  
HETATM   29  H1  UNL     1     -13.348  13.750  66.104  1.00  0.00     0.000 HD 
HETATM   30  H2  UNL     1     -12.396  12.200  65.895  1.00  0.00     0.000 HD 
ENDBRANCH  23  25
ENDBRANCH  19  23
ENDBRANCH  18  19
ENDBRANCH  17  18
ENDBRANCH  16  17
ENDBRANCH  15  16
ENDBRANCH  12  15
ENDBRANCH   5  10
TORSDOF 8
ENDMDL
MODEL       25
REMARK 921   NORMALIZED FREE ENERGY PREDICTED BY IDOCK:   -5.66 KCAL/MOL
REMARK 922        TOTAL FREE ENERGY PREDICTED BY IDOCK:   -9.48 KCAL/MOL
REMARK 923 INTER-LIGAND FREE ENERGY PREDICTED BY IDOCK:   -7.42 KCAL/MOL
REMARK 924 INTRA-LIGAND FREE ENERGY PREDICTED BY IDOCK:   -2.06 KCAL/MOL
REMARK 927      BINDING AFFINITY PREDICTED BY RF-SCORE:    0.00 PKD
ROOT
HETATM    1  N   UNL     1     -12.487  14.314  63.358  1.00  0.00    -1.101 NA 
HETATM    2  C   UNL     1     -11.961  13.169  63.857  1.00  0.00    -0.488 C  
HETATM    3  H2  UNL     1     -13.390  14.710  63.617  1.00  0.00     0.000 HD 
HETATM    4  H1  UNL     1     -11.838  14.717  62.683  1.00  0.00     0.000 HD 
HETATM    5  N   UNL     1     -10.799  12.762  63.477  1.00  0.00    -0.531 NA 
HETATM    6  N   UNL     1     -12.824  12.632  64.756  1.00  0.00    -0.830 NA 
HETATM    7  H2  UNL     1     -13.728  13.028  65.015  1.00  0.00     0.000 HD 
HETATM    8  H1  UNL     1     -12.428  11.771  65.132  1.00  0.00     0.000 HD 
HETATM    9  H   UNL     1     -10.254  13.298  62.802  1.00  0.00     0.000 HD 
ENDROOT
BRANCH   5  10
HETATM   10  C   UNL     1     -10.317  11.602  63.993  1.00  0.00    -0.357 A  
HETATM   11  N   UNL     1     -10.498  11.097  65.204  1.00  0.00    -0.283 NA 
HETATM   12  C   UNL     1      -9.848   9.873  65.336  1.00  0.00    -0.313 A  
HETATM   13  S   UNL     1      -9.351  10.606  62.956  1.00  0.00    -0.358 SA 
HETATM   14  C   UNL     1      -9.153   9.470  64.213  1.00  0.00    -0.170 A  
BRANCH  12  15
HETATM   15  C   UNL     1      -9.947   9.136  66.635  1.00  0.00    -0.273 C  
BRANCH  15  16
HETATM   16  S   UNL     1      -8.343   9.157  67.510  1.00  0.00    -0.115 SA 
BRANCH  16  17
HETATM   17  C   UNL     1      -7.855  10.902  67.274  1.00  0.00    -0.116 C  
BRANCH  17  18
HETATM   18  C   UNL     1      -8.360  11.863  68.344  1.00  0.00    -0.157 C  
BRANCH  18  19
HETATM   19  C   UNL     1      -9.183  13.015  67.768  1.00  0.00    -0.200 C  
HETATM   20  H2  UNL     1      -8.306  12.790  65.874  1.00  0.00     0.000 HD 
HETATM   21  N   UNL     1      -8.974  13.311  66.442  1.00  0.00    -0.458 NA 
HETATM   22  H1  UNL     1      -9.523  14.080  66.058  1.00  0.00     0.000 HD 
BRANCH  19  23
HETATM   23  N   UNL     1     -10.000  13.585  68.591  1.00  0.00    -0.366 N  
HETATM   24  H   UNL     1      -9.640  13.999  69.451  1.00  0.00     0.000 HD 
BRANCH  23  25
HETATM   25  S   UNL     1     -11.579  13.653  68.277  1.00  0.00    -0.360 S  
HETATM   26  O   UNL     1     -11.810  14.533  67.156  1.00  0.00    -0.392 OA 
HETATM   27  O   UNL     1     -12.298  13.808  69.518  1.00  0.00    -0.316 OA 
HETATM   28  N   UNL     1     -11.965  12.121  67.722  1.00  0.00    -0.240 N  
HETATM   29  H1  UNL     1     -12.964  12.163  67.523  1.00  0.00     0.000 HD 
HETATM   30  H2  UNL     1     -11.340  11.322  67.608  1.00  0.00     0.000 HD 
ENDBRANCH  23  25
ENDBRANCH  19  23
ENDBRANCH  18  19
ENDBRANCH  17  18
ENDBRANCH  16  17
ENDBRANCH  15  16
ENDBRANCH  12  15
ENDBRANCH   5  10
TORSDOF 8
ENDMDL
MODEL       26
REMARK 921   NORMALIZED FREE ENERGY PREDICTED BY IDOCK:   -5.65 KCAL/MOL
REMARK 922        TOTAL FREE ENERGY PREDICTED BY IDOCK:   -9.47 KCAL/MOL
REMARK 923 INTER-LIGAND FREE ENERGY PREDICTED BY IDOCK:   -8.35 KCAL/MOL
REMARK 924 INTRA-LIGAND FREE ENERGY PREDICTED BY IDOCK:   -1.12 KCAL/MOL
REMARK 927      BINDING AFFINITY PREDICTED BY RF-SCORE:    0.00 PKD
ROOT
HETATM    1  N   UNL     1     -11.704  16.368  63.793  1.00  0.00    -1.498 NA 
HETATM    2  C   UNL     1     -11.472  15.433  64.747  1.00  0.00    -0.336 C  
HETATM    3  H2  UNL     1     -11.188  17.240  63.685  1.00  0.00     0.000 HD 
HETATM    4  H1  UNL     1     -12.475  16.061  63.201  1.00  0.00     0.000 HD 
HETATM    5  N   UNL     1     -12.171  14.352  64.788  1.00  0.00    -0.441 NA 
HETATM    6  N   UNL     1     -10.446  15.841  65.536  1.00  0.00    -0.379 NA 
HETATM    7  H2  UNL     1      -9.930  16.714  65.427  1.00  0.00     0.000 HD 
HETATM    8  H1  UNL     1     -10.271  15.138  66.254  1.00  0.00     0.000 HD 
HETATM    9  H   UNL     1     -12.902  14.177  64.099  1.00  0.00     0.000 HD 
ENDROOT
BRANCH   5  10
HETATM   10  C   UNL     1     -11.914  13.449  65.770  1.00  0.00    -0.407 A  
HETATM   11  N   UNL     1     -12.097  13.573  67.075  1.00  0.00    -0.378 NA 
HETATM   12  C   UNL     1     -11.724  12.409  67.743  1.00  0.00    -0.350 A  
HETATM   13  S   UNL     1     -11.284  11.908  65.293  1.00  0.00    -0.261 SA 
HETATM   14  C   UNL     1     -11.235  11.411  66.925  1.00  0.00    -0.264 A  
BRANCH  12  15
HETATM   15  C   UNL     1     -11.872  12.349  69.232  1.00  0.00    -0.304 C  
BRANCH  15  16
HETATM   16  S   UNL     1     -11.663  10.634  69.830  1.00  0.00    -0.317 SA 
BRANCH  16  17
HETATM   17  C   UNL     1     -12.506  10.737  71.447  1.00  0.00    -0.373 C  
BRANCH  17  18
HETATM   18  C   UNL     1     -13.494   9.612  71.732  1.00  0.00    -0.477 C  
BRANCH  18  19
HETATM   19  C   UNL     1     -12.813   8.256  71.917  1.00  0.00    -0.344 C  
HETATM   20  H2  UNL     1     -13.859   7.429  70.295  1.00  0.00     0.000 HD 
HETATM   21  N   UNL     1     -13.174   7.267  71.034  1.00  0.00    -0.594 NA 
HETATM   22  H1  UNL     1     -12.721   6.361  71.158  1.00  0.00     0.000 HD 
BRANCH  19  23
HETATM   23  N   UNL     1     -11.959   8.185  72.884  1.00  0.00    -0.552 N  
HETATM   24  H   UNL     1     -12.062   8.801  73.691  1.00  0.00     0.000 HD 
BRANCH  23  25
HETATM   25  S   UNL     1     -10.735   7.140  72.833  1.00  0.00    -0.332 S  
HETATM   26  O   UNL     1     -11.251   5.792  72.844  1.00  0.00    -0.275 OA 
HETATM   27  O   UNL     1      -9.715   7.564  73.762  1.00  0.00    -0.284 OA 
HETATM   28  N   UNL     1     -10.068   7.344  71.310  1.00  0.00    -0.189 N  
HETATM   29  H1  UNL     1      -9.293   6.683  71.278  1.00  0.00     0.000 HD 
HETATM   30  H2  UNL     1     -10.369   7.988  70.578  1.00  0.00     0.000 HD 
ENDBRANCH  23  25
ENDBRANCH  19  23
ENDBRANCH  18  19
ENDBRANCH  17  18
ENDBRANCH  16  17
ENDBRANCH  15  16
ENDBRANCH  12  15
ENDBRANCH   5  10
TORSDOF 8
ENDMDL
MODEL       27
REMARK 921   NORMALIZED FREE ENERGY PREDICTED BY IDOCK:   -5.63 KCAL/MOL
REMARK 922        TOTAL FREE ENERGY PREDICTED BY IDOCK:   -9.44 KCAL/MOL
REMARK 923 INTER-LIGAND FREE ENERGY PREDICTED BY IDOCK:   -7.85 KCAL/MOL
REMARK 924 INTRA-LIGAND FREE ENERGY PREDICTED BY IDOCK:   -1.60 KCAL/MOL
REMARK 927      BINDING AFFINITY PREDICTED BY RF-SCORE:    0.00 PKD
ROOT
HETATM    1  N   UNL     1     -12.362  13.805  63.165  1.00  0.00    -1.106 NA 
HETATM    2  C   UNL     1     -11.851  13.835  64.419  1.00  0.00    -0.427 C  
HETATM    3  H2  UNL     1     -13.351  13.892  62.929  1.00  0.00     0.000 HD 
HETATM    4  H1  UNL     1     -11.604  13.682  62.494  1.00  0.00     0.000 HD 
HETATM    5  N   UNL     1     -10.581  13.733  64.611  1.00  0.00    -0.436 NA 
HETATM    6  N   UNL     1     -12.859  13.999  65.312  1.00  0.00    -0.744 NA 
HETATM    7  H2  UNL     1     -13.848  14.086  65.076  1.00  0.00     0.000 HD 
HETATM    8  H1  UNL     1     -12.475  14.022  66.256  1.00  0.00     0.000 HD 
HETATM    9  H   UNL     1      -9.941  13.639  63.823  1.00  0.00     0.000 HD 
ENDROOT
BRANCH   5  10
HETATM   10  C   UNL     1     -10.113  13.754  65.886  1.00  0.00    -0.313 A  
HETATM   11  N   UNL     1     -10.048  14.776  66.726  1.00  0.00    -0.252 NA 
HETATM   12  C   UNL     1      -9.518  14.381  67.952  1.00  0.00    -0.214 A  
HETATM   13  S   UNL     1      -9.538  12.262  66.551  1.00  0.00    -0.240 SA 
HETATM   14  C   UNL     1      -9.163  13.049  68.018  1.00  0.00    -0.212 A  
BRANCH  12  15
HETATM   15  C   UNL     1      -9.377  15.396  69.042  1.00  0.00    -0.232 C  
BRANCH  15  16
HETATM   16  S   UNL     1     -10.839  16.491  69.095  1.00  0.00    -0.318 SA 
BRANCH  16  17
HETATM   17  C   UNL     1     -10.058  18.111  68.775  1.00  0.00    -0.376 C  
BRANCH  17  18
HETATM   18  C   UNL     1     -10.576  18.844  67.543  1.00  0.00    -0.524 C  
BRANCH  18  19
HETATM   19  C   UNL     1      -9.814  18.477  66.269  1.00  0.00    -0.337 C  
HETATM   20  H2  UNL     1     -11.293  17.100  65.696  1.00  0.00     0.000 HD 
HETATM   21  N   UNL     1     -10.400  17.533  65.460  1.00  0.00    -0.636 NA 
HETATM   22  H1  UNL     1      -9.891  17.287  64.610  1.00  0.00     0.000 HD 
BRANCH  19  23
HETATM   23  N   UNL     1      -8.700  19.104  66.082  1.00  0.00    -0.286 N  
HETATM   24  H   UNL     1      -8.703  20.122  66.007  1.00  0.00     0.000 HD 
BRANCH  23  25
HETATM   25  S   UNL     1      -7.308  18.302  65.967  1.00  0.00    -0.211 S  
HETATM   26  O   UNL     1      -6.531  18.839  64.876  1.00  0.00    -0.492 OA 
HETATM   27  O   UNL     1      -7.570  16.887  66.081  1.00  0.00    -0.297 OA 
HETATM   28  N   UNL     1      -6.466  18.716  67.355  1.00  0.00    -0.191 N  
HETATM   29  H1  UNL     1      -5.585  18.208  67.282  1.00  0.00     0.000 HD 
HETATM   30  H2  UNL     1      -6.768  19.337  68.106  1.00  0.00     0.000 HD 
ENDBRANCH  23  25
ENDBRANCH  19  23
ENDBRANCH  18  19
ENDBRANCH  17  18
ENDBRANCH  16  17
ENDBRANCH  15  16
ENDBRANCH  12  15
ENDBRANCH   5  10
TORSDOF 8
ENDMDL
MODEL       28
REMARK 921   NORMALIZED FREE ENERGY PREDICTED BY IDOCK:   -5.62 KCAL/MOL
REMARK 922        TOTAL FREE ENERGY PREDICTED BY IDOCK:   -9.43 KCAL/MOL
REMARK 923 INTER-LIGAND FREE ENERGY PREDICTED BY IDOCK:   -7.65 KCAL/MOL
REMARK 924 INTRA-LIGAND FREE ENERGY PREDICTED BY IDOCK:   -1.78 KCAL/MOL
REMARK 927      BINDING AFFINITY PREDICTED BY RF-SCORE:    0.00 PKD
ROOT
HETATM    1  N   UNL     1     -12.501  14.252  63.455  1.00  0.00    -1.101 NA 
HETATM    2  C   UNL     1     -11.911  13.108  63.879  1.00  0.00    -0.488 C  
HETATM    3  H2  UNL     1     -13.494  14.470  63.539  1.00  0.00     0.000 HD 
HETATM    4  H1  UNL     1     -11.797  14.861  63.039  1.00  0.00     0.000 HD 
HETATM    5  N   UNL     1     -10.642  12.937  63.742  1.00  0.00    -0.498 NA 
HETATM    6  N   UNL     1     -12.848  12.298  64.432  1.00  0.00    -0.707 NA 
HETATM    7  H2  UNL     1     -13.841  12.516  64.516  1.00  0.00     0.000 HD 
HETATM    8  H1  UNL     1     -12.404  11.437  64.752  1.00  0.00     0.000 HD 
HETATM    9  H   UNL     1     -10.060  13.661  63.322  1.00  0.00     0.000 HD 
ENDROOT
BRANCH   5  10
HETATM   10  C   UNL     1     -10.095  11.769  64.169  1.00  0.00    -0.310 A  
HETATM   11  N   UNL     1      -9.923  11.342  65.411  1.00  0.00    -0.237 NA 
HETATM   12  C   UNL     1      -9.339  10.078  65.427  1.00  0.00    -0.229 A  
HETATM   13  S   UNL     1      -9.558  10.649  62.962  1.00  0.00    -0.337 SA 
HETATM   14  C   UNL     1      -9.051   9.565  64.178  1.00  0.00    -0.153 A  
BRANCH  12  15
HETATM   15  C   UNL     1      -9.077   9.417  66.744  1.00  0.00    -0.140 C  
BRANCH  15  16
HETATM   16  S   UNL     1     -10.629   9.229  67.690  1.00  0.00    -0.217 SA 
BRANCH  16  17
HETATM   17  C   UNL     1     -10.276  10.296  69.130  1.00  0.00    -0.218 C  
BRANCH  17  18
HETATM   18  C   UNL     1     -11.371  11.301  69.471  1.00  0.00    -0.362 C  
BRANCH  18  19
HETATM   19  C   UNL     1     -11.276  12.586  68.649  1.00  0.00    -0.278 C  
HETATM   20  H2  UNL     1     -12.423  11.762  67.095  1.00  0.00     0.000 HD 
HETATM   21  N   UNL     1     -11.914  12.579  67.431  1.00  0.00    -0.488 NA 
HETATM   22  H1  UNL     1     -11.851  13.436  66.882  1.00  0.00     0.000 HD 
BRANCH  19  23
HETATM   23  N   UNL     1     -10.610  13.551  69.192  1.00  0.00    -0.432 N  
HETATM   24  H   UNL     1      -9.705  13.358  69.620  1.00  0.00     0.000 HD 
BRANCH  23  25
HETATM   25  S   UNL     1     -11.191  15.054  69.202  1.00  0.00    -0.301 S  
HETATM   26  O   UNL     1     -11.238  15.562  67.852  1.00  0.00    -0.319 OA 
HETATM   27  O   UNL     1     -10.554  15.796  70.265  1.00  0.00    -0.314 OA 
HETATM   28  N   UNL     1     -12.791  14.886  69.668  1.00  0.00    -0.526 N  
HETATM   29  H1  UNL     1     -13.158  15.837  69.674  1.00  0.00     0.000 HD 
HETATM   30  H2  UNL     1     -13.288  14.024  69.894  1.00  0.00     0.000 HD 
ENDBRANCH  23  25
ENDBRANCH  19  23
ENDBRANCH  18  19
ENDBRANCH  17  18
ENDBRANCH  16  17
ENDBRANCH  15  16
ENDBRANCH  12  15
ENDBRANCH   5  10
TORSDOF 8
ENDMDL
MODEL       29
REMARK 921   NORMALIZED FREE ENERGY PREDICTED BY IDOCK:   -5.61 KCAL/MOL
REMARK 922        TOTAL FREE ENERGY PREDICTED BY IDOCK:   -9.42 KCAL/MOL
REMARK 923 INTER-LIGAND FREE ENERGY PREDICTED BY IDOCK:   -8.45 KCAL/MOL
REMARK 924 INTRA-LIGAND FREE ENERGY PREDICTED BY IDOCK:   -0.97 KCAL/MOL
REMARK 927      BINDING AFFINITY PREDICTED BY RF-SCORE:    0.00 PKD
ROOT
HETATM    1  N   UNL     1     -14.386   8.826  72.814  1.00  0.00    -1.038 NA 
HETATM    2  C   UNL     1     -13.327   8.497  72.034  1.00  0.00    -0.369 C  
HETATM    3  H2  UNL     1     -15.319   8.421  72.744  1.00  0.00     0.000 HD 
HETATM    4  H1  UNL     1     -14.103   9.543  73.481  1.00  0.00     0.000 HD 
HETATM    5  N   UNL     1     -12.181   9.057  72.215  1.00  0.00    -0.347 NA 
HETATM    6  N   UNL     1     -13.703   7.543  71.146  1.00  0.00    -0.627 NA 
HETATM    7  H2  UNL     1     -14.636   7.137  71.076  1.00  0.00     0.000 HD 
HETATM    8  H1  UNL     1     -12.907   7.294  70.559  1.00  0.00     0.000 HD 
HETATM    9  H   UNL     1     -12.050   9.748  72.953  1.00  0.00     0.000 HD 
ENDROOT
BRANCH   5  10
HETATM   10  C   UNL     1     -11.152   8.706  71.402  1.00  0.00    -0.274 A  
HETATM   11  N   UNL     1     -11.043   8.863  70.092  1.00  0.00    -0.231 NA 
HETATM   12  C   UNL     1      -9.818   8.387  69.633  1.00  0.00    -0.184 A  
HETATM   13  S   UNL     1      -9.764   7.976  72.138  1.00  0.00    -0.246 SA 
HETATM   14  C   UNL     1      -9.010   7.846  70.613  1.00  0.00    -0.148 A  
BRANCH  12  15
HETATM   15  C   UNL     1      -9.500   8.489  68.173  1.00  0.00    -0.141 C  
BRANCH  15  16
HETATM   16  S   UNL     1     -10.422   9.870  67.410  1.00  0.00    -0.272 SA 
BRANCH  16  17
HETATM   17  C   UNL     1      -9.831   9.757  65.685  1.00  0.00    -0.301 C  
BRANCH  17  18
HETATM   18  C   UNL     1      -9.169  11.020  65.146  1.00  0.00    -0.227 C  
BRANCH  18  19
HETATM   19  C   UNL     1     -10.050  11.775  64.151  1.00  0.00    -0.310 C  
HETATM   20  H2  UNL     1     -10.524  10.008  63.120  1.00  0.00     0.000 HD 
HETATM   21  N   UNL     1     -10.656  11.018  63.177  1.00  0.00    -0.778 NA 
HETATM   22  H1  UNL     1     -11.243  11.522  62.512  1.00  0.00     0.000 HD 
BRANCH  19  23
HETATM   23  N   UNL     1     -10.141  13.050  64.339  1.00  0.00    -0.610 N  
HETATM   24  H   UNL     1      -9.297  13.622  64.320  1.00  0.00     0.000 HD 
BRANCH  23  25
HETATM   25  S   UNL     1     -11.569  13.748  64.603  1.00  0.00    -0.396 S  
HETATM   26  O   UNL     1     -11.372  15.144  64.913  1.00  0.00    -0.385 OA 
HETATM   27  O   UNL     1     -12.361  12.891  65.453  1.00  0.00    -0.457 OA 
HETATM   28  N   UNL     1     -12.331  13.730  63.112  1.00  0.00    -1.106 N  
HETATM   29  H1  UNL     1     -13.234  14.172  63.279  1.00  0.00     0.000 HD 
HETATM   30  H2  UNL     1     -11.971  13.359  62.232  1.00  0.00     0.000 HD 
ENDBRANCH  23  25
ENDBRANCH  19  23
ENDBRANCH  18  19
ENDBRANCH  17  18
ENDBRANCH  16  17
ENDBRANCH  15  16
ENDBRANCH  12  15
ENDBRANCH   5  10
TORSDOF 8
ENDMDL
MODEL       30
REMARK 921   NORMALIZED FREE ENERGY PREDICTED BY IDOCK:   -5.60 KCAL/MOL
REMARK 922        TOTAL FREE ENERGY PREDICTED BY IDOCK:   -9.40 KCAL/MOL
REMARK 923 INTER-LIGAND FREE ENERGY PREDICTED BY IDOCK:   -8.40 KCAL/MOL
REMARK 924 INTRA-LIGAND FREE ENERGY PREDICTED BY IDOCK:   -1.00 KCAL/MOL
REMARK 927      BINDING AFFINITY PREDICTED BY RF-SCORE:    0.00 PKD
ROOT
HETATM    1  N   UNL     1     -11.822   6.409  72.511  1.00  0.00    -0.496 NA 
HETATM    2  C   UNL     1     -11.880   7.501  71.712  1.00  0.00    -0.294 C  
HETATM    3  H2  UNL     1     -12.152   5.477  72.262  1.00  0.00     0.000 HD 
HETATM    4  H1  UNL     1     -11.395   6.665  73.401  1.00  0.00     0.000 HD 
HETATM    5  N   UNL     1     -11.417   8.634  72.115  1.00  0.00    -0.367 NA 
HETATM    6  N   UNL     1     -12.448   7.161  70.527  1.00  0.00    -0.614 NA 
HETATM    7  H2  UNL     1     -12.778   6.230  70.277  1.00  0.00     0.000 HD 
HETATM    8  H1  UNL     1     -12.491   7.983  69.925  1.00  0.00     0.000 HD 
HETATM    9  H   UNL     1     -10.991   8.724  73.037  1.00  0.00     0.000 HD 
ENDROOT
BRANCH   5  10
HETATM   10  C   UNL     1     -11.509   9.706  71.286  1.00  0.00    -0.392 A  
HETATM   11  N   UNL     1     -10.743  10.019  70.252  1.00  0.00    -0.294 NA 
HETATM   12  C   UNL     1     -11.179  11.195  69.647  1.00  0.00    -0.264 A  
HETATM   13  S   UNL     1     -12.801  10.825  71.567  1.00  0.00    -0.456 SA 
HETATM   14  C   UNL     1     -12.274  11.778  70.253  1.00  0.00    -0.299 A  
BRANCH  12  15
HETATM   15  C   UNL     1     -10.446  11.708  68.447  1.00  0.00    -0.213 C  
BRANCH  15  16
HETATM   16  S   UNL     1      -9.317  10.431  67.789  1.00  0.00    -0.145 SA 
BRANCH  16  17
HETATM   17  C   UNL     1      -9.059  11.054  66.090  1.00  0.00    -0.192 C  
BRANCH  17  18
HETATM   18  C   UNL     1     -10.022  10.500  65.047  1.00  0.00    -0.388 C  
BRANCH  18  19
HETATM   19  C   UNL     1     -10.578  11.579  64.118  1.00  0.00    -0.363 C  
HETATM   20  H2  UNL     1     -11.570  10.154  62.938  1.00  0.00     0.000 HD 
HETATM   21  N   UNL     1     -11.366  11.143  63.080  1.00  0.00    -0.764 NA 
HETATM   22  H1  UNL     1     -11.737  11.863  62.460  1.00  0.00     0.000 HD 
BRANCH  19  23
HETATM   23  N   UNL     1     -10.253  12.794  64.414  1.00  0.00    -0.519 N  
HETATM   24  H   UNL     1      -9.270  13.065  64.417  1.00  0.00     0.000 HD 
BRANCH  23  25
HETATM   25  S   UNL     1     -11.380  13.886  64.780  1.00  0.00    -0.380 S  
HETATM   26  O   UNL     1     -10.777  15.196  64.852  1.00  0.00    -0.409 OA 
HETATM   27  O   UNL     1     -12.200  13.374  65.851  1.00  0.00    -0.416 OA 
HETATM   28  N   UNL     1     -12.376  13.933  63.434  1.00  0.00    -1.139 N  
HETATM   29  H1  UNL     1     -13.089  14.624  63.665  1.00  0.00     0.000 HD 
HETATM   30  H2  UNL     1     -12.289  13.390  62.574  1.00  0.00     0.000 HD 
ENDBRANCH  23  25
ENDBRANCH  19  23
ENDBRANCH  18  19
ENDBRANCH  17  18
ENDBRANCH  16  17
ENDBRANCH  15  16
ENDBRANCH  12  15
ENDBRANCH   5  10
TORSDOF 8
ENDMDL
MODEL       31
REMARK 921   NORMALIZED FREE ENERGY PREDICTED BY IDOCK:   -5.60 KCAL/MOL
REMARK 922        TOTAL FREE ENERGY PREDICTED BY IDOCK:   -9.40 KCAL/MOL
REMARK 923 INTER-LIGAND FREE ENERGY PREDICTED BY IDOCK:   -7.73 KCAL/MOL
REMARK 924 INTRA-LIGAND FREE ENERGY PREDICTED BY IDOCK:   -1.67 KCAL/MOL
REMARK 927      BINDING AFFINITY PREDICTED BY RF-SCORE:    0.00 PKD
ROOT
HETATM    1  N   UNL     1     -12.108  15.797  72.056  1.00  0.00    -0.424 NA 
HETATM    2  C   UNL     1     -12.241  15.151  70.872  1.00  0.00    -0.342 C  
HETATM    3  H2  UNL     1     -12.617  16.637  72.330  1.00  0.00     0.000 HD 
HETATM    4  H1  UNL     1     -11.420  15.311  72.630  1.00  0.00     0.000 HD 
HETATM    5  N   UNL     1     -11.563  14.083  70.629  1.00  0.00    -0.516 NA 
HETATM    6  N   UNL     1     -13.157  15.798  70.108  1.00  0.00    -0.666 NA 
HETATM    7  H2  UNL     1     -13.666  16.638  70.382  1.00  0.00     0.000 HD 
HETATM    8  H1  UNL     1     -13.257  15.312  69.217  1.00  0.00     0.000 HD 
HETATM    9  H   UNL     1     -10.923  13.702  71.326  1.00  0.00     0.000 HD 
ENDROOT
BRANCH   5  10
HETATM   10  C   UNL     1     -11.717  13.476  69.424  1.00  0.00    -0.325 A  
HETATM   11  N   UNL     1     -11.921  14.031  68.238  1.00  0.00    -0.365 NA 
HETATM   12  C   UNL     1     -12.008  13.062  67.243  1.00  0.00    -0.321 A  
HETATM   13  S   UNL     1     -11.616  11.748  69.380  1.00  0.00    -0.342 SA 
HETATM   14  C   UNL     1     -11.890  11.764  67.696  1.00  0.00    -0.171 A  
BRANCH  12  15
HETATM   15  C   UNL     1     -12.224  13.495  65.826  1.00  0.00    -0.461 C  
BRANCH  15  16
HETATM   16  S   UNL     1     -10.628  13.862  65.015  1.00  0.00    -0.424 SA 
BRANCH  16  17
HETATM   17  C   UNL     1     -10.540  15.671  65.249  1.00  0.00    -0.426 C  
BRANCH  17  18
HETATM   18  C   UNL     1      -9.377  16.155  66.107  1.00  0.00    -0.372 C  
BRANCH  18  19
HETATM   19  C   UNL     1      -9.808  17.138  67.194  1.00  0.00    -0.271 C  
HETATM   20  H2  UNL     1     -11.510  15.997  67.652  1.00  0.00     0.000 HD 
HETATM   21  N   UNL     1     -10.967  16.834  67.867  1.00  0.00    -0.308 NA 
HETATM   22  H1  UNL     1     -11.256  17.490  68.593  1.00  0.00     0.000 HD 
BRANCH  19  23
HETATM   23  N   UNL     1      -9.028  18.152  67.374  1.00  0.00    -0.255 N  
HETATM   24  H   UNL     1      -8.028  17.999  67.511  1.00  0.00     0.000 HD 
BRANCH  23  25
HETATM   25  S   UNL     1      -9.610  19.654  67.385  1.00  0.00    -0.364 S  
HETATM   26  O   UNL     1     -10.771  19.727  66.530  1.00  0.00    -0.469 OA 
HETATM   27  O   UNL     1      -8.514  20.584  67.248  1.00  0.00    -0.343 OA 
HETATM   28  N   UNL     1     -10.192  19.871  68.940  1.00  0.00    -0.563 N  
HETATM   29  H1  UNL     1     -10.561  20.821  68.947  1.00  0.00     0.000 HD 
HETATM   30  H2  UNL     1     -10.180  19.201  69.710  1.00  0.00     0.000 HD 
ENDBRANCH  23  25
ENDBRANCH  19  23
ENDBRANCH  18  19
ENDBRANCH  17  18
ENDBRANCH  16  17
ENDBRANCH  15  16
ENDBRANCH  12  15
ENDBRANCH   5  10
TORSDOF 8
ENDMDL
MODEL       32
REMARK 921   NORMALIZED FREE ENERGY PREDICTED BY IDOCK:   -5.60 KCAL/MOL
REMARK 922        TOTAL FREE ENERGY PREDICTED BY IDOCK:   -9.39 KCAL/MOL
REMARK 923 INTER-LIGAND FREE ENERGY PREDICTED BY IDOCK:   -8.47 KCAL/MOL
REMARK 924 INTRA-LIGAND FREE ENERGY PREDICTED BY IDOCK:   -0.92 KCAL/MOL
REMARK 927      BINDING AFFINITY PREDICTED BY RF-SCORE:    0.00 PKD
ROOT
HETATM    1  N   UNL     1     -12.346  13.843  63.179  1.00  0.00    -1.106 NA 
HETATM    2  C   UNL     1     -12.352  13.425  64.468  1.00  0.00    -0.360 C  
HETATM    3  H2  UNL     1     -12.915  13.451  62.429  1.00  0.00     0.000 HD 
HETATM    4  H1  UNL     1     -11.684  14.612  63.077  1.00  0.00     0.000 HD 
HETATM    5  N   UNL     1     -11.606  14.001  65.347  1.00  0.00    -0.319 NA 
HETATM    6  N   UNL     1     -13.234  12.403  64.605  1.00  0.00    -0.731 NA 
HETATM    7  H2  UNL     1     -13.803  12.011  63.855  1.00  0.00     0.000 HD 
HETATM    8  H1  UNL     1     -13.239  12.089  65.575  1.00  0.00     0.000 HD 
HETATM    9  H   UNL     1     -11.007  14.785  65.089  1.00  0.00     0.000 HD 
ENDROOT
BRANCH   5  10
HETATM   10  C   UNL     1     -11.633  13.540  66.624  1.00  0.00    -0.363 A  
HETATM   11  N   UNL     1     -11.869  12.310  67.054  1.00  0.00    -0.574 NA 
HETATM   12  C   UNL     1     -11.788  12.244  68.443  1.00  0.00    -0.304 A  
HETATM   13  S   UNL     1     -11.296  14.673  67.890  1.00  0.00    -0.329 SA 
HETATM   14  C   UNL     1     -11.509  13.448  69.058  1.00  0.00    -0.301 A  
BRANCH  12  15
HETATM   15  C   UNL     1     -12.011  10.928  69.120  1.00  0.00    -0.288 C  
BRANCH  15  16
HETATM   16  S   UNL     1     -12.291  11.166  70.911  1.00  0.00    -0.384 SA 
BRANCH  16  17
HETATM   17  C   UNL     1     -13.316   9.701  71.288  1.00  0.00    -0.330 C  
BRANCH  17  18
HETATM   18  C   UNL     1     -12.705   8.727  72.288  1.00  0.00    -0.466 C  
BRANCH  18  19
HETATM   19  C   UNL     1     -12.322   7.388  71.657  1.00  0.00    -0.341 C  
HETATM   20  H2  UNL     1     -12.253   6.443  73.530  1.00  0.00     0.000 HD 
HETATM   21  N   UNL     1     -12.139   6.336  72.522  1.00  0.00    -0.537 NA 
HETATM   22  H1  UNL     1     -11.883   5.443  72.101  1.00  0.00     0.000 HD 
BRANCH  19  23
HETATM   23  N   UNL     1     -12.219   7.386  70.369  1.00  0.00    -0.537 N  
HETATM   24  H   UNL     1     -13.032   7.620  69.800  1.00  0.00     0.000 HD 
BRANCH  23  25
HETATM   25  S   UNL     1     -10.825   7.018  69.650  1.00  0.00    -0.237 S  
HETATM   26  O   UNL     1     -10.495   5.638  69.916  1.00  0.00    -0.254 OA 
HETATM   27  O   UNL     1      -9.877   8.079  69.893  1.00  0.00    -0.182 OA 
HETATM   28  N   UNL     1     -11.164   7.084  68.011  1.00  0.00    -0.527 N  
HETATM   29  H1  UNL     1     -10.282   6.851  67.557  1.00  0.00     0.000 HD 
HETATM   30  H2  UNL     1     -12.055   7.307  67.567  1.00  0.00     0.000 HD 
ENDBRANCH  23  25
ENDBRANCH  19  23
ENDBRANCH  18  19
ENDBRANCH  17  18
ENDBRANCH  16  17
ENDBRANCH  15  16
ENDBRANCH  12  15
ENDBRANCH   5  10
TORSDOF 8
ENDMDL
MODEL       33
REMARK 921   NORMALIZED FREE ENERGY PREDICTED BY IDOCK:   -5.59 KCAL/MOL
REMARK 922        TOTAL FREE ENERGY PREDICTED BY IDOCK:   -9.38 KCAL/MOL
REMARK 923 INTER-LIGAND FREE ENERGY PREDICTED BY IDOCK:   -8.74 KCAL/MOL
REMARK 924 INTRA-LIGAND FREE ENERGY PREDICTED BY IDOCK:   -0.63 KCAL/MOL
REMARK 927      BINDING AFFINITY PREDICTED BY RF-SCORE:    0.00 PKD
ROOT
HETATM    1  N   UNL     1     -14.147  15.718  72.857  1.00  0.00    -0.578 NA 
HETATM    2  C   UNL     1     -13.697  14.822  71.945  1.00  0.00    -0.419 C  
HETATM    3  H2  UNL     1     -14.495  16.653  72.644  1.00  0.00     0.000 HD 
HETATM    4  H1  UNL     1     -14.084  15.311  73.789  1.00  0.00     0.000 HD 
HETATM    5  N   UNL     1     -13.294  13.656  72.317  1.00  0.00    -0.488 NA 
HETATM    6  N   UNL     1     -13.782  15.363  70.704  1.00  0.00    -0.841 NA 
HETATM    7  H2  UNL     1     -14.130  16.298  70.491  1.00  0.00     0.000 HD 
HETATM    8  H1  UNL     1     -13.444  14.689  70.017  1.00  0.00     0.000 HD 
HETATM    9  H   UNL     1     -13.316  13.386  73.300  1.00  0.00     0.000 HD 
ENDROOT
BRANCH   5  10
HETATM   10  C   UNL     1     -12.838  12.795  71.371  1.00  0.00    -0.275 A  
HETATM   11  N   UNL     1     -12.154  13.063  70.269  1.00  0.00    -0.350 NA 
HETATM   12  C   UNL     1     -11.859  11.896  69.569  1.00  0.00    -0.331 A  
HETATM   13  S   UNL     1     -13.149  11.108  71.609  1.00  0.00    -0.336 SA 
HETATM   14  C   UNL     1     -12.350  10.743  70.147  1.00  0.00    -0.325 A  
BRANCH  12  15
HETATM   15  C   UNL     1     -11.075  11.992  68.298  1.00  0.00    -0.243 C  
BRANCH  15  16
HETATM   16  S   UNL     1     -11.853  13.184  67.151  1.00  0.00    -0.348 SA 
BRANCH  16  17
HETATM   17  C   UNL     1     -10.503  13.418  65.942  1.00  0.00    -0.287 C  
BRANCH  17  18
HETATM   18  C   UNL     1     -10.899  14.153  64.667  1.00  0.00    -0.401 C  
BRANCH  18  19
HETATM   19  C   UNL     1     -10.663  15.661  64.752  1.00  0.00    -0.276 C  
HETATM   20  H2  UNL     1     -12.192  16.051  63.366  1.00  0.00     0.000 HD 
HETATM   21  N   UNL     1     -11.473  16.449  63.970  1.00  0.00    -1.573 NA 
HETATM   22  H1  UNL     1     -11.315  17.456  64.026  1.00  0.00     0.000 HD 
BRANCH  19  23
HETATM   23  N   UNL     1      -9.728  16.037  65.561  1.00  0.00    -0.224 N  
HETATM   24  H   UNL     1      -8.924  15.428  65.717  1.00  0.00     0.000 HD 
BRANCH  23  25
HETATM   25  S   UNL     1      -9.815  17.452  66.326  1.00  0.00    -0.254 S  
HETATM   26  O   UNL     1     -10.615  18.371  65.551  1.00  0.00    -0.627 OA 
HETATM   27  O   UNL     1      -8.499  17.812  66.798  1.00  0.00    -0.231 OA 
HETATM   28  N   UNL     1     -10.715  17.134  67.702  1.00  0.00    -0.336 N  
HETATM   29  H1  UNL     1     -10.770  18.029  68.186  1.00  0.00     0.000 HD 
HETATM   30  H2  UNL     1     -11.118  16.243  67.992  1.00  0.00     0.000 HD 
ENDBRANCH  23  25
ENDBRANCH  19  23
ENDBRANCH  18  19
ENDBRANCH  17  18
ENDBRANCH  16  17
ENDBRANCH  15  16
ENDBRANCH  12  15
ENDBRANCH   5  10
TORSDOF 8
ENDMDL
MODEL       34
REMARK 921   NORMALIZED FREE ENERGY PREDICTED BY IDOCK:   -5.55 KCAL/MOL
REMARK 922        TOTAL FREE ENERGY PREDICTED BY IDOCK:   -9.32 KCAL/MOL
REMARK 923 INTER-LIGAND FREE ENERGY PREDICTED BY IDOCK:   -7.78 KCAL/MOL
REMARK 924 INTRA-LIGAND FREE ENERGY PREDICTED BY IDOCK:   -1.54 KCAL/MOL
REMARK 927      BINDING AFFINITY PREDICTED BY RF-SCORE:    0.00 PKD
ROOT
HETATM    1  N   UNL     1      -9.589  20.822  66.802  1.00  0.00    -0.663 NA 
HETATM    2  C   UNL     1      -9.741  19.477  66.733  1.00  0.00    -0.366 C  
HETATM    3  H2  UNL     1     -10.248  21.469  67.235  1.00  0.00     0.000 HD 
HETATM    4  H1  UNL     1      -8.713  21.086  66.353  1.00  0.00     0.000 HD 
HETATM    5  N   UNL     1      -8.839  18.744  66.178  1.00  0.00    -0.474 NA 
HETATM    6  N   UNL     1     -10.907  19.125  67.330  1.00  0.00    -0.481 NA 
HETATM    7  H2  UNL     1     -11.566  19.772  67.764  1.00  0.00     0.000 HD 
HETATM    8  H1  UNL     1     -11.022  18.113  67.279  1.00  0.00     0.000 HD 
HETATM    9  H   UNL     1      -7.993  19.162  65.791  1.00  0.00     0.000 HD 
ENDROOT
BRANCH   5  10
HETATM   10  C   UNL     1      -9.039  17.402  66.119  1.00  0.00    -0.145 A  
HETATM   11  N   UNL     1      -9.951  16.731  65.431  1.00  0.00    -0.558 NA 
HETATM   12  C   UNL     1      -9.812  15.359  65.625  1.00  0.00    -0.352 A  
HETATM   13  S   UNL     1      -7.964  16.393  67.028  1.00  0.00    -0.231 SA 
HETATM   14  C   UNL     1      -8.794  15.004  66.487  1.00  0.00    -0.251 A  
BRANCH  12  15
HETATM   15  C   UNL     1     -10.747  14.429  64.918  1.00  0.00    -0.426 C  
BRANCH  15  16
HETATM   16  S   UNL     1     -10.237  12.692  65.168  1.00  0.00    -0.255 SA 
BRANCH  16  17
HETATM   17  C   UNL     1     -11.466  12.155  66.408  1.00  0.00    -0.370 C  
BRANCH  17  18
HETATM   18  C   UNL     1     -12.149  13.285  67.170  1.00  0.00    -0.352 C  
BRANCH  18  19
HETATM   19  C   UNL     1     -11.669  13.402  68.616  1.00  0.00    -0.349 C  
HETATM   20  H2  UNL     1     -10.371  11.766  68.393  1.00  0.00     0.000 HD 
HETATM   21  N   UNL     1     -10.729  12.486  69.022  1.00  0.00    -0.405 NA 
HETATM   22  H1  UNL     1     -10.408  12.563  69.988  1.00  0.00     0.000 HD 
BRANCH  19  23
HETATM   23  N   UNL     1     -12.193  14.362  69.304  1.00  0.00    -0.504 N  
HETATM   24  H   UNL     1     -13.167  14.295  69.598  1.00  0.00     0.000 HD 
BRANCH  23  25
HETATM   25  S   UNL     1     -11.329  15.661  69.705  1.00  0.00    -0.361 S  
HETATM   26  O   UNL     1     -11.736  16.129  71.008  1.00  0.00    -0.410 OA 
HETATM   27  O   UNL     1     -11.267  16.552  68.570  1.00  0.00    -0.360 OA 
HETATM   28  N   UNL     1      -9.769  15.086  69.910  1.00  0.00    -0.466 N  
HETATM   29  H1  UNL     1      -9.223  15.908  70.163  1.00  0.00     0.000 HD 
HETATM   30  H2  UNL     1      -9.439  14.126  69.804  1.00  0.00     0.000 HD 
ENDBRANCH  23  25
ENDBRANCH  19  23
ENDBRANCH  18  19
ENDBRANCH  17  18
ENDBRANCH  16  17
ENDBRANCH  15  16
ENDBRANCH  12  15
ENDBRANCH   5  10
TORSDOF 8
ENDMDL
MODEL       35
REMARK 921   NORMALIZED FREE ENERGY PREDICTED BY IDOCK:   -5.55 KCAL/MOL
REMARK 922        TOTAL FREE ENERGY PREDICTED BY IDOCK:   -9.32 KCAL/MOL
REMARK 923 INTER-LIGAND FREE ENERGY PREDICTED BY IDOCK:   -7.36 KCAL/MOL
REMARK 924 INTRA-LIGAND FREE ENERGY PREDICTED BY IDOCK:   -1.95 KCAL/MOL
REMARK 927      BINDING AFFINITY PREDICTED BY RF-SCORE:    0.00 PKD
ROOT
HETATM    1  N   UNL     1     -12.976  15.379  70.701  1.00  0.00    -0.615 NA 
HETATM    2  C   UNL     1     -12.285  14.810  69.684  1.00  0.00    -0.270 C  
HETATM    3  H2  UNL     1     -12.923  15.097  71.680  1.00  0.00     0.000 HD 
HETATM    4  H1  UNL     1     -13.557  16.132  70.335  1.00  0.00     0.000 HD 
HETATM    5  N   UNL     1     -12.410  15.253  68.480  1.00  0.00    -0.508 NA 
HETATM    6  N   UNL     1     -11.512  13.807  70.170  1.00  0.00    -0.497 NA 
HETATM    7  H2  UNL     1     -11.459  13.526  71.149  1.00  0.00     0.000 HD 
HETATM    8  H1  UNL     1     -10.992  13.379  69.405  1.00  0.00     0.000 HD 
HETATM    9  H   UNL     1     -13.021  16.043  68.276  1.00  0.00     0.000 HD 
ENDROOT
BRANCH   5  10
HETATM   10  C   UNL     1     -11.709  14.644  67.489  1.00  0.00    -0.379 A  
HETATM   11  N   UNL     1     -11.807  13.397  67.053  1.00  0.00    -0.384 NA 
HETATM   12  C   UNL     1     -10.921  13.165  66.003  1.00  0.00    -0.279 A  
HETATM   13  S   UNL     1     -10.539  15.595  66.637  1.00  0.00    -0.297 SA 
HETATM   14  C   UNL     1     -10.137  14.250  65.667  1.00  0.00    -0.341 A  
BRANCH  12  15
HETATM   15  C   UNL     1     -10.892  11.812  65.365  1.00  0.00    -0.295 C  
BRANCH  15  16
HETATM   16  S   UNL     1      -9.213  11.097  65.451  1.00  0.00    -0.179 SA 
BRANCH  16  17
HETATM   17  C   UNL     1      -9.346  10.108  66.982  1.00  0.00    -0.154 C  
BRANCH  17  18
HETATM   18  C   UNL     1     -10.770   9.852  67.462  1.00  0.00    -0.333 C  
BRANCH  18  19
HETATM   19  C   UNL     1     -11.070  10.506  68.810  1.00  0.00    -0.265 C  
HETATM   20  H2  UNL     1      -9.305  11.642  68.733  1.00  0.00     0.000 HD 
HETATM   21  N   UNL     1     -10.146  11.415  69.266  1.00  0.00    -0.426 NA 
HETATM   22  H1  UNL     1     -10.346  11.852  70.166  1.00  0.00     0.000 HD 
BRANCH  19  23
HETATM   23  N   UNL     1     -12.172  10.140  69.377  1.00  0.00    -0.420 N  
HETATM   24  H   UNL     1     -12.956   9.835  68.801  1.00  0.00     0.000 HD 
BRANCH  23  25
HETATM   25  S   UNL     1     -12.323  10.158  70.981  1.00  0.00    -0.405 S  
HETATM   26  O   UNL     1     -12.773  11.461  71.408  1.00  0.00    -0.401 OA 
HETATM   27  O   UNL     1     -11.164   9.531  71.569  1.00  0.00    -0.372 OA 
HETATM   28  N   UNL     1     -13.602   9.123  71.296  1.00  0.00    -0.543 N  
HETATM   29  H1  UNL     1     -13.698   9.135  72.311  1.00  0.00     0.000 HD 
HETATM   30  H2  UNL     1     -14.161   8.598  70.623  1.00  0.00     0.000 HD 
ENDBRANCH  23  25
ENDBRANCH  19  23
ENDBRANCH  18  19
ENDBRANCH  17  18
ENDBRANCH  16  17
ENDBRANCH  15  16
ENDBRANCH  12  15
ENDBRANCH   5  10
TORSDOF 8
ENDMDL
MODEL       36
REMARK 921   NORMALIZED FREE ENERGY PREDICTED BY IDOCK:   -5.54 KCAL/MOL
REMARK 922        TOTAL FREE ENERGY PREDICTED BY IDOCK:   -9.31 KCAL/MOL
REMARK 923 INTER-LIGAND FREE ENERGY PREDICTED BY IDOCK:   -8.09 KCAL/MOL
REMARK 924 INTRA-LIGAND FREE ENERGY PREDICTED BY IDOCK:   -1.22 KCAL/MOL
REMARK 927      BINDING AFFINITY PREDICTED BY RF-SCORE:    0.00 PKD
ROOT
HETATM    1  N   UNL     1     -12.592  14.140  63.091  1.00  0.00    -0.911 NA 
HETATM    2  C   UNL     1     -12.014  13.349  64.028  1.00  0.00    -0.464 C  
HETATM    3  H2  UNL     1     -13.592  14.323  63.009  1.00  0.00     0.000 HD 
HETATM    4  H1  UNL     1     -11.870  14.524  62.483  1.00  0.00     0.000 HD 
HETATM    5  N   UNL     1     -10.736  13.196  64.058  1.00  0.00    -0.516 NA 
HETATM    6  N   UNL     1     -12.975  12.837  64.838  1.00  0.00    -0.853 NA 
HETATM    7  H2  UNL     1     -13.975  13.020  64.756  1.00  0.00     0.000 HD 
HETATM    8  H1  UNL     1     -12.540  12.242  65.544  1.00  0.00     0.000 HD 
HETATM    9  H   UNL     1     -10.138  13.675  63.385  1.00  0.00     0.000 HD 
ENDROOT
BRANCH   5  10
HETATM   10  C   UNL     1     -10.200  12.383  65.005  1.00  0.00    -0.283 A  
HETATM   11  N   UNL     1      -9.928  12.657  66.271  1.00  0.00    -0.254 NA 
HETATM   12  C   UNL     1      -9.400  11.544  66.920  1.00  0.00    -0.181 A  
HETATM   13  S   UNL     1      -9.833  10.754  64.545  1.00  0.00    -0.337 SA 
HETATM   14  C   UNL     1      -9.257  10.429  66.118  1.00  0.00    -0.168 A  
BRANCH  12  15
HETATM   15  C   UNL     1      -9.040  11.651  68.369  1.00  0.00    -0.180 C  
BRANCH  15  16
HETATM   16  S   UNL     1      -9.673  10.211  69.298  1.00  0.00    -0.233 SA 
BRANCH  16  17
HETATM   17  C   UNL     1     -11.460  10.592  69.332  1.00  0.00    -0.262 C  
BRANCH  17  18
HETATM   18  C   UNL     1     -11.967  11.188  70.640  1.00  0.00    -0.459 C  
BRANCH  18  19
HETATM   19  C   UNL     1     -12.389  12.651  70.503  1.00  0.00    -0.268 C  
HETATM   20  H2  UNL     1     -11.537  12.792  68.589  1.00  0.00     0.000 HD 
HETATM   21  N   UNL     1     -12.045  13.277  69.329  1.00  0.00    -0.281 NA 
HETATM   22  H1  UNL     1     -12.326  14.253  69.238  1.00  0.00     0.000 HD 
BRANCH  19  23
HETATM   23  N   UNL     1     -13.036  13.143  71.507  1.00  0.00    -0.359 N  
HETATM   24  H   UNL     1     -13.653  12.541  72.052  1.00  0.00     0.000 HD 
BRANCH  23  25
HETATM   25  S   UNL     1     -12.880  14.695  71.912  1.00  0.00    -0.348 S  
HETATM   26  O   UNL     1     -11.559  15.156  71.557  1.00  0.00    -0.347 OA 
HETATM   27  O   UNL     1     -13.415  14.891  73.238  1.00  0.00    -0.536 OA 
HETATM   28  N   UNL     1     -13.923  15.507  70.883  1.00  0.00    -0.853 N  
HETATM   29  H1  UNL     1     -13.824  16.489  71.139  1.00  0.00     0.000 HD 
HETATM   30  H2  UNL     1     -14.523  15.108  70.160  1.00  0.00     0.000 HD 
ENDBRANCH  23  25
ENDBRANCH  19  23
ENDBRANCH  18  19
ENDBRANCH  17  18
ENDBRANCH  16  17
ENDBRANCH  15  16
ENDBRANCH  12  15
ENDBRANCH   5  10
TORSDOF 8
ENDMDL
MODEL       37
REMARK 921   NORMALIZED FREE ENERGY PREDICTED BY IDOCK:   -5.52 KCAL/MOL
REMARK 922        TOTAL FREE ENERGY PREDICTED BY IDOCK:   -9.28 KCAL/MOL
REMARK 923 INTER-LIGAND FREE ENERGY PREDICTED BY IDOCK:   -9.26 KCAL/MOL
REMARK 924 INTRA-LIGAND FREE ENERGY PREDICTED BY IDOCK:   -0.02 KCAL/MOL
REMARK 927      BINDING AFFINITY PREDICTED BY RF-SCORE:    0.00 PKD
ROOT
HETATM    1  N   UNL     1     -13.055  11.757  62.881  1.00  0.00    -0.703 NA 
HETATM    2  C   UNL     1     -12.117  12.459  63.561  1.00  0.00    -0.558 C  
HETATM    3  H2  UNL     1     -12.870  11.124  62.103  1.00  0.00     0.000 HD 
HETATM    4  H1  UNL     1     -13.976  11.961  63.268  1.00  0.00     0.000 HD 
HETATM    5  N   UNL     1     -12.453  13.221  64.543  1.00  0.00    -0.601 NA 
HETATM    6  N   UNL     1     -10.891  12.188  63.045  1.00  0.00    -0.610 NA 
HETATM    7  H2  UNL     1     -10.706  11.555  62.267  1.00  0.00     0.000 HD 
HETATM    8  H1  UNL     1     -10.185  12.716  63.557  1.00  0.00     0.000 HD 
HETATM    9  H   UNL     1     -13.428  13.301  64.831  1.00  0.00     0.000 HD 
ENDROOT
BRANCH   5  10
HETATM   10  C   UNL     1     -11.482  13.917  65.188  1.00  0.00    -0.321 A  
HETATM   11  N   UNL     1     -11.255  15.222  65.180  1.00  0.00    -0.376 NA 
HETATM   12  C   UNL     1     -10.168  15.545  65.988  1.00  0.00    -0.330 A  
HETATM   13  S   UNL     1     -10.384  13.022  66.185  1.00  0.00    -0.283 SA 
HETATM   14  C   UNL     1      -9.561  14.461  66.590  1.00  0.00    -0.281 A  
BRANCH  12  15
HETATM   15  C   UNL     1      -9.763  16.979  66.120  1.00  0.00    -0.261 C  
BRANCH  15  16
HETATM   16  S   UNL     1     -10.532  17.732  67.596  1.00  0.00    -0.378 SA 
BRANCH  16  17
HETATM   17  C   UNL     1     -11.151  16.240  68.451  1.00  0.00    -0.362 C  
BRANCH  17  18
HETATM   18  C   UNL     1     -10.896  16.205  69.953  1.00  0.00    -0.355 C  
BRANCH  18  19
HETATM   19  C   UNL     1     -12.057  15.596  70.740  1.00  0.00    -0.412 C  
HETATM   20  H2  UNL     1     -13.375  15.842  69.123  1.00  0.00     0.000 HD 
HETATM   21  N   UNL     1     -13.261  15.515  70.083  1.00  0.00    -0.653 NA 
HETATM   22  H1  UNL     1     -14.036  15.109  70.608  1.00  0.00     0.000 HD 
BRANCH  19  23
HETATM   23  N   UNL     1     -11.779  15.212  71.941  1.00  0.00    -0.396 N  
HETATM   24  H   UNL     1     -10.806  15.052  72.205  1.00  0.00     0.000 HD 
BRANCH  23  25
HETATM   25  S   UNL     1     -12.945  14.983  73.028  1.00  0.00    -0.521 S  
HETATM   26  O   UNL     1     -13.399  13.614  72.968  1.00  0.00    -0.546 OA 
HETATM   27  O   UNL     1     -13.872  16.088  72.962  1.00  0.00    -0.592 OA 
HETATM   28  N   UNL     1     -12.178  15.130  74.510  1.00  0.00    -0.723 N  
HETATM   29  H1  UNL     1     -12.916  14.985  75.198  1.00  0.00     0.000 HD 
HETATM   30  H2  UNL     1     -11.191  15.322  74.685  1.00  0.00     0.000 HD 
ENDBRANCH  23  25
ENDBRANCH  19  23
ENDBRANCH  18  19
ENDBRANCH  17  18
ENDBRANCH  16  17
ENDBRANCH  15  16
ENDBRANCH  12  15
ENDBRANCH   5  10
TORSDOF 8
ENDMDL
MODEL       38
REMARK 921   NORMALIZED FREE ENERGY PREDICTED BY IDOCK:   -5.50 KCAL/MOL
REMARK 922        TOTAL FREE ENERGY PREDICTED BY IDOCK:   -9.25 KCAL/MOL
REMARK 923 INTER-LIGAND FREE ENERGY PREDICTED BY IDOCK:   -8.24 KCAL/MOL
REMARK 924 INTRA-LIGAND FREE ENERGY PREDICTED BY IDOCK:   -1.01 KCAL/MOL
REMARK 927      BINDING AFFINITY PREDICTED BY RF-SCORE:    0.00 PKD
ROOT
HETATM    1  N   UNL     1     -10.336   9.116  68.451  1.00  0.00    -0.201 NA 
HETATM    2  C   UNL     1     -10.723  10.228  69.121  1.00  0.00    -0.228 C  
HETATM    3  H2  UNL     1      -9.409   8.958  68.056  1.00  0.00     0.000 HD 
HETATM    4  H1  UNL     1     -11.116   8.462  68.403  1.00  0.00     0.000 HD 
HETATM    5  N   UNL     1     -11.917  10.323  69.597  1.00  0.00    -0.481 NA 
HETATM    6  N   UNL     1      -9.685  11.099  69.185  1.00  0.00    -0.407 NA 
HETATM    7  H2  UNL     1      -8.758  10.941  68.790  1.00  0.00     0.000 HD 
HETATM    8  H1  UNL     1      -9.977  11.936  69.689  1.00  0.00     0.000 HD 
HETATM    9  H   UNL     1     -12.584   9.560  69.487  1.00  0.00     0.000 HD 
ENDROOT
BRANCH   5  10
HETATM   10  C   UNL     1     -12.267  11.461  70.250  1.00  0.00    -0.349 A  
HETATM   11  N   UNL     1     -12.070  12.719  69.883  1.00  0.00    -0.292 NA 
HETATM   12  C   UNL     1     -12.596  13.600  70.824  1.00  0.00    -0.325 A  
HETATM   13  S   UNL     1     -13.107  11.293  71.755  1.00  0.00    -0.309 SA 
HETATM   14  C   UNL     1     -13.173  12.991  71.919  1.00  0.00    -0.430 A  
BRANCH  12  15
HETATM   15  C   UNL     1     -12.484  15.073  70.579  1.00  0.00    -0.371 C  
BRANCH  15  16
HETATM   16  S   UNL     1     -10.891  15.472  69.777  1.00  0.00    -0.323 SA 
BRANCH  16  17
HETATM   17  C   UNL     1     -11.379  15.426  68.017  1.00  0.00    -0.341 C  
BRANCH  17  18
HETATM   18  C   UNL     1     -10.221  15.403  67.027  1.00  0.00    -0.262 C  
BRANCH  18  19
HETATM   19  C   UNL     1     -10.672  15.147  65.589  1.00  0.00    -0.363 C  
HETATM   20  H2  UNL     1     -10.624  17.197  65.134  1.00  0.00     0.000 HD 
HETATM   21  N   UNL     1     -10.811  16.255  64.788  1.00  0.00    -0.783 NA 
HETATM   22  H1  UNL     1     -11.113  16.085  63.828  1.00  0.00     0.000 HD 
BRANCH  19  23
HETATM   23  N   UNL     1     -10.867  13.910  65.275  1.00  0.00    -0.316 N  
HETATM   24  H   UNL     1     -10.084  13.256  65.299  1.00  0.00     0.000 HD 
BRANCH  23  25
HETATM   25  S   UNL     1     -12.329  13.384  64.847  1.00  0.00    -0.406 S  
HETATM   26  O   UNL     1     -13.339  14.165  65.520  1.00  0.00    -0.656 OA 
HETATM   27  O   UNL     1     -12.340  11.941  64.890  1.00  0.00    -0.302 OA 
HETATM   28  N   UNL     1     -12.465  13.786  63.227  1.00  0.00    -1.092 N  
HETATM   29  H1  UNL     1     -13.390  13.453  62.956  1.00  0.00     0.000 HD 
HETATM   30  H2  UNL     1     -11.776  14.259  62.641  1.00  0.00     0.000 HD 
ENDBRANCH  23  25
ENDBRANCH  19  23
ENDBRANCH  18  19
ENDBRANCH  17  18
ENDBRANCH  16  17
ENDBRANCH  15  16
ENDBRANCH  12  15
ENDBRANCH   5  10
TORSDOF 8
ENDMDL
MODEL       39
REMARK 921   NORMALIZED FREE ENERGY PREDICTED BY IDOCK:   -5.49 KCAL/MOL
REMARK 922        TOTAL FREE ENERGY PREDICTED BY IDOCK:   -9.23 KCAL/MOL
REMARK 923 INTER-LIGAND FREE ENERGY PREDICTED BY IDOCK:   -8.53 KCAL/MOL
REMARK 924 INTRA-LIGAND FREE ENERGY PREDICTED BY IDOCK:   -0.70 KCAL/MOL
REMARK 927      BINDING AFFINITY PREDICTED BY RF-SCORE:    0.00 PKD
ROOT
HETATM    1  N   UNL     1     -14.222  13.632  72.458  1.00  0.00    -0.726 NA 
HETATM    2  C   UNL     1     -13.392  12.710  71.915  1.00  0.00    -0.387 C  
HETATM    3  H2  UNL     1     -14.140  14.642  72.339  1.00  0.00     0.000 HD 
HETATM    4  H1  UNL     1     -14.941  13.159  73.004  1.00  0.00     0.000 HD 
HETATM    5  N   UNL     1     -13.591  11.452  72.111  1.00  0.00    -0.432 NA 
HETATM    6  N   UNL     1     -12.434  13.339  71.188  1.00  0.00    -0.350 NA 
HETATM    7  H2  UNL     1     -12.353  14.349  71.069  1.00  0.00     0.000 HD 
HETATM    8  H1  UNL     1     -11.809  12.645  70.778  1.00  0.00     0.000 HD 
HETATM    9  H   UNL     1     -14.382  11.131  72.669  1.00  0.00     0.000 HD 
ENDROOT
BRANCH   5  10
HETATM   10  C   UNL     1     -12.726  10.563  71.559  1.00  0.00    -0.452 A  
HETATM   11  N   UNL     1     -11.729  10.793  70.717  1.00  0.00    -0.328 NA 
HETATM   12  C   UNL     1     -11.064   9.612  70.398  1.00  0.00    -0.290 A  
HETATM   13  S   UNL     1     -12.897   8.898  72.005  1.00  0.00    -0.427 SA 
HETATM   14  C   UNL     1     -11.588   8.482  70.993  1.00  0.00    -0.279 A  
BRANCH  12  15
HETATM   15  C   UNL     1      -9.894   9.668  69.467  1.00  0.00    -0.206 C  
BRANCH  15  16
HETATM   16  S   UNL     1     -10.455   9.648  67.727  1.00  0.00    -0.268 SA 
BRANCH  16  17
HETATM   17  C   UNL     1     -10.422  11.434  67.344  1.00  0.00    -0.205 C  
BRANCH  17  18
HETATM   18  C   UNL     1     -11.750  12.158  67.529  1.00  0.00    -0.385 C  
BRANCH  18  19
HETATM   19  C   UNL     1     -12.056  13.139  66.398  1.00  0.00    -0.382 C  
HETATM   20  H2  UNL     1     -11.425  14.777  67.550  1.00  0.00     0.000 HD 
HETATM   21  N   UNL     1     -11.799  14.465  66.654  1.00  0.00    -0.402 NA 
HETATM   22  H1  UNL     1     -12.004  15.120  65.899  1.00  0.00     0.000 HD 
BRANCH  19  23
HETATM   23  N   UNL     1     -12.518  12.614  65.311  1.00  0.00    -0.482 N  
HETATM   24  H   UNL     1     -13.336  12.008  65.354  1.00  0.00     0.000 HD 
BRANCH  23  25
HETATM   25  S   UNL     1     -11.818  12.905  63.889  1.00  0.00    -0.511 S  
HETATM   26  O   UNL     1     -10.434  13.259  64.096  1.00  0.00    -0.414 OA 
HETATM   27  O   UNL     1     -12.696  13.730  63.094  1.00  0.00    -0.743 OA 
HETATM   28  N   UNL     1     -11.783  11.416  63.123  1.00  0.00    -0.865 N  
HETATM   29  H1  UNL     1     -11.340  11.600  62.224  1.00  0.00     0.000 HD 
HETATM   30  H2  UNL     1     -12.128  10.524  63.478  1.00  0.00     0.000 HD 
ENDBRANCH  23  25
ENDBRANCH  19  23
ENDBRANCH  18  19
ENDBRANCH  17  18
ENDBRANCH  16  17
ENDBRANCH  15  16
ENDBRANCH  12  15
ENDBRANCH   5  10
TORSDOF 8
ENDMDL
MODEL       40
REMARK 921   NORMALIZED FREE ENERGY PREDICTED BY IDOCK:   -5.49 KCAL/MOL
REMARK 922        TOTAL FREE ENERGY PREDICTED BY IDOCK:   -9.23 KCAL/MOL
REMARK 923 INTER-LIGAND FREE ENERGY PREDICTED BY IDOCK:   -7.90 KCAL/MOL
REMARK 924 INTRA-LIGAND FREE ENERGY PREDICTED BY IDOCK:   -1.33 KCAL/MOL
REMARK 927      BINDING AFFINITY PREDICTED BY RF-SCORE:    0.00 PKD
ROOT
HETATM    1  N   UNL     1     -12.712  11.744  63.038  1.00  0.00    -0.866 NA 
HETATM    2  C   UNL     1     -12.197  12.575  63.976  1.00  0.00    -0.480 C  
HETATM    3  H2  UNL     1     -13.042  12.029  62.115  1.00  0.00     0.000 HD 
HETATM    4  H1  UNL     1     -12.718  10.791  63.398  1.00  0.00     0.000 HD 
HETATM    5  N   UNL     1     -11.790  12.113  65.108  1.00  0.00    -0.337 NA 
HETATM    6  N   UNL     1     -12.189  13.844  63.497  1.00  0.00    -1.050 NA 
HETATM    7  H2  UNL     1     -12.518  14.129  62.575  1.00  0.00     0.000 HD 
HETATM    8  H1  UNL     1     -11.800  14.470  64.203  1.00  0.00     0.000 HD 
HETATM    9  H   UNL     1     -11.841  11.114  65.311  1.00  0.00     0.000 HD 
ENDROOT
BRANCH   5  10
HETATM   10  C   UNL     1     -11.294  12.983  66.024  1.00  0.00    -0.310 A  
HETATM   11  N   UNL     1     -11.929  13.936  66.689  1.00  0.00    -0.421 NA 
HETATM   12  C   UNL     1     -11.065  14.601  67.555  1.00  0.00    -0.313 A  
HETATM   13  S   UNL     1      -9.615  12.848  66.427  1.00  0.00    -0.227 SA 
HETATM   14  C   UNL     1      -9.761  14.151  67.519  1.00  0.00    -0.234 A  
BRANCH  12  15
HETATM   15  C   UNL     1     -11.603  15.708  68.407  1.00  0.00    -0.350 C  
BRANCH  15  16
HETATM   16  S   UNL     1     -11.570  15.235  70.172  1.00  0.00    -0.329 SA 
BRANCH  16  17
HETATM   17  C   UNL     1     -12.776  13.863  70.176  1.00  0.00    -0.123 C  
BRANCH  17  18
HETATM   18  C   UNL     1     -12.546  12.805  71.248  1.00  0.00    -0.347 C  
BRANCH  18  19
HETATM   19  C   UNL     1     -12.357  11.403  70.670  1.00  0.00    -0.373 C  
HETATM   20  H2  UNL     1     -12.107  12.160  68.727  1.00  0.00     0.000 HD 
HETATM   21  N   UNL     1     -12.140  11.327  69.315  1.00  0.00    -0.332 NA 
HETATM   22  H1  UNL     1     -12.015  10.391  68.928  1.00  0.00     0.000 HD 
BRANCH  19  23
HETATM   23  N   UNL     1     -12.412  10.434  71.522  1.00  0.00    -0.398 N  
HETATM   24  H   UNL     1     -13.160  10.417  72.216  1.00  0.00     0.000 HD 
BRANCH  23  25
HETATM   25  S   UNL     1     -11.317   9.252  71.504  1.00  0.00    -0.399 S  
HETATM   26  O   UNL     1     -11.441   8.461  72.705  1.00  0.00    -0.380 OA 
HETATM   27  O   UNL     1     -10.046   9.796  71.088  1.00  0.00    -0.171 OA 
HETATM   28  N   UNL     1     -11.804   8.244  70.258  1.00  0.00    -0.456 N  
HETATM   29  H1  UNL     1     -11.111   7.496  70.246  1.00  0.00     0.000 HD 
HETATM   30  H2  UNL     1     -12.614   8.353  69.647  1.00  0.00     0.000 HD 
ENDBRANCH  23  25
ENDBRANCH  19  23
ENDBRANCH  18  19
ENDBRANCH  17  18
ENDBRANCH  16  17
ENDBRANCH  15  16
ENDBRANCH  12  15
ENDBRANCH   5  10
TORSDOF 8
ENDMDL
MODEL       41
REMARK 921   NORMALIZED FREE ENERGY PREDICTED BY IDOCK:   -5.47 KCAL/MOL
REMARK 922        TOTAL FREE ENERGY PREDICTED BY IDOCK:   -9.21 KCAL/MOL
REMARK 923 INTER-LIGAND FREE ENERGY PREDICTED BY IDOCK:   -7.31 KCAL/MOL
REMARK 924 INTRA-LIGAND FREE ENERGY PREDICTED BY IDOCK:   -1.91 KCAL/MOL
REMARK 927      BINDING AFFINITY PREDICTED BY RF-SCORE:    0.00 PKD
ROOT
HETATM    1  N   UNL     1     -10.706  18.935  65.641  1.00  0.00    -0.504 NA 
HETATM    2  C   UNL     1      -9.980  18.026  66.336  1.00  0.00    -0.362 C  
HETATM    3  H2  UNL     1     -11.542  19.409  65.983  1.00  0.00     0.000 HD 
HETATM    4  H1  UNL     1     -10.285  19.072  64.723  1.00  0.00     0.000 HD 
HETATM    5  N   UNL     1      -8.926  17.496  65.819  1.00  0.00    -0.454 NA 
HETATM    6  N   UNL     1     -10.540  17.843  67.558  1.00  0.00    -0.392 NA 
HETATM    7  H2  UNL     1     -11.376  18.317  67.901  1.00  0.00     0.000 HD 
HETATM    8  H1  UNL     1      -9.994  17.159  68.082  1.00  0.00     0.000 HD 
HETATM    9  H   UNL     1      -8.615  17.760  64.884  1.00  0.00     0.000 HD 
ENDROOT
BRANCH   5  10
HETATM   10  C   UNL     1      -8.237  16.579  66.546  1.00  0.00    -0.300 A  
HETATM   11  N   UNL     1      -8.680  15.460  67.100  1.00  0.00    -0.204 NA 
HETATM   12  C   UNL     1      -7.651  14.783  67.748  1.00  0.00    -0.160 A  
HETATM   13  S   UNL     1      -6.544  16.855  66.784  1.00  0.00    -0.221 SA 
HETATM   14  C   UNL     1      -6.426  15.418  67.696  1.00  0.00    -0.165 A  
BRANCH  12  15
HETATM   15  C   UNL     1      -7.953  13.484  68.427  1.00  0.00    -0.142 C  
BRANCH  15  16
HETATM   16  S   UNL     1      -9.051  12.456  67.389  1.00  0.00    -0.191 SA 
BRANCH  16  17
HETATM   17  C   UNL     1     -10.597  12.529  68.361  1.00  0.00    -0.242 C  
BRANCH  17  18
HETATM   18  C   UNL     1     -11.879  12.473  67.538  1.00  0.00    -0.389 C  
BRANCH  18  19
HETATM   19  C   UNL     1     -12.078  13.711  66.663  1.00  0.00    -0.411 C  
HETATM   20  H2  UNL     1     -11.128  14.947  68.070  1.00  0.00     0.000 HD 
HETATM   21  N   UNL     1     -11.594  14.896  67.164  1.00  0.00    -0.348 NA 
HETATM   22  H1  UNL     1     -11.728  15.722  66.581  1.00  0.00     0.000 HD 
BRANCH  19  23
HETATM   23  N   UNL     1     -12.674  13.509  65.535  1.00  0.00    -0.552 N  
HETATM   24  H   UNL     1     -13.559  13.001  65.517  1.00  0.00     0.000 HD 
BRANCH  23  25
HETATM   25  S   UNL     1     -12.040  14.049  64.155  1.00  0.00    -0.347 S  
HETATM   26  O   UNL     1     -12.480  15.403  63.919  1.00  0.00    -0.695 OA 
HETATM   27  O   UNL     1     -12.174  13.026  63.145  1.00  0.00    -0.607 OA 
HETATM   28  N   UNL     1     -10.398  14.165  64.461  1.00  0.00    -0.620 N  
HETATM   29  H1  UNL     1      -9.997  14.506  63.588  1.00  0.00     0.000 HD 
HETATM   30  H2  UNL     1      -9.907  13.943  65.328  1.00  0.00     0.000 HD 
ENDBRANCH  23  25
ENDBRANCH  19  23
ENDBRANCH  18  19
ENDBRANCH  17  18
ENDBRANCH  16  17
ENDBRANCH  15  16
ENDBRANCH  12  15
ENDBRANCH   5  10
TORSDOF 8
ENDMDL
MODEL       42
REMARK 921   NORMALIZED FREE ENERGY PREDICTED BY IDOCK:   -5.47 KCAL/MOL
REMARK 922        TOTAL FREE ENERGY PREDICTED BY IDOCK:   -9.20 KCAL/MOL
REMARK 923 INTER-LIGAND FREE ENERGY PREDICTED BY IDOCK:   -7.97 KCAL/MOL
REMARK 924 INTRA-LIGAND FREE ENERGY PREDICTED BY IDOCK:   -1.23 KCAL/MOL
REMARK 927      BINDING AFFINITY PREDICTED BY RF-SCORE:    0.00 PKD
ROOT
HETATM    1  N   UNL     1     -14.404   8.780  73.167  1.00  0.00    -1.126 NA 
HETATM    2  C   UNL     1     -13.242   9.089  72.542  1.00  0.00    -0.406 C  
HETATM    3  H2  UNL     1     -15.157   9.437  73.369  1.00  0.00     0.000 HD 
HETATM    4  H1  UNL     1     -14.407   7.788  73.402  1.00  0.00     0.000 HD 
HETATM    5  N   UNL     1     -12.358   8.179  72.316  1.00  0.00    -0.441 NA 
HETATM    6  N   UNL     1     -13.238  10.409  72.228  1.00  0.00    -0.569 NA 
HETATM    7  H2  UNL     1     -13.991  11.066  72.431  1.00  0.00     0.000 HD 
HETATM    8  H1  UNL     1     -12.363  10.641  71.757  1.00  0.00     0.000 HD 
HETATM    9  H   UNL     1     -12.522   7.212  72.595  1.00  0.00     0.000 HD 
ENDROOT
BRANCH   5  10
HETATM   10  C   UNL     1     -11.202   8.536  71.699  1.00  0.00    -0.292 A  
HETATM   11  N   UNL     1     -11.040   9.132  70.527  1.00  0.00    -0.251 NA 
HETATM   12  C   UNL     1      -9.690   9.342  70.258  1.00  0.00    -0.246 A  
HETATM   13  S   UNL     1      -9.718   8.209  72.531  1.00  0.00    -0.303 SA 
HETATM   14  C   UNL     1      -8.832   8.876  71.233  1.00  0.00    -0.231 A  
BRANCH  12  15
HETATM   15  C   UNL     1      -9.303  10.019  68.980  1.00  0.00    -0.181 C  
BRANCH  15  16
HETATM   16  S   UNL     1     -10.788  10.574  68.070  1.00  0.00    -0.283 SA 
BRANCH  16  17
HETATM   17  C   UNL     1     -10.703  12.376  68.354  1.00  0.00    -0.235 C  
BRANCH  17  18
HETATM   18  C   UNL     1     -12.012  13.023  68.792  1.00  0.00    -0.302 C  
BRANCH  18  19
HETATM   19  C   UNL     1     -11.806  14.174  69.777  1.00  0.00    -0.322 C  
HETATM   20  H2  UNL     1      -9.718  14.046  69.602  1.00  0.00     0.000 HD 
HETATM   21  N   UNL     1     -10.504  14.526  70.040  1.00  0.00    -0.427 NA 
HETATM   22  H1  UNL     1     -10.367  15.294  70.697  1.00  0.00     0.000 HD 
BRANCH  19  23
HETATM   23  N   UNL     1     -12.885  14.702  70.253  1.00  0.00    -0.550 N  
HETATM   24  H   UNL     1     -13.621  15.003  69.615  1.00  0.00     0.000 HD 
BRANCH  23  25
HETATM   25  S   UNL     1     -13.082  14.893  71.841  1.00  0.00    -0.370 S  
HETATM   26  O   UNL     1     -14.185  15.792  72.085  1.00  0.00    -0.463 OA 
HETATM   27  O   UNL     1     -11.791  15.098  72.453  1.00  0.00    -0.382 OA 
HETATM   28  N   UNL     1     -13.604  13.397  72.384  1.00  0.00    -0.593 N  
HETATM   29  H1  UNL     1     -13.729  13.517  73.389  1.00  0.00     0.000 HD 
HETATM   30  H2  UNL     1     -13.762  12.553  71.833  1.00  0.00     0.000 HD 
ENDBRANCH  23  25
ENDBRANCH  19  23
ENDBRANCH  18  19
ENDBRANCH  17  18
ENDBRANCH  16  17
ENDBRANCH  15  16
ENDBRANCH  12  15
ENDBRANCH   5  10
TORSDOF 8
ENDMDL
MODEL       43
REMARK 921   NORMALIZED FREE ENERGY PREDICTED BY IDOCK:   -5.47 KCAL/MOL
REMARK 922        TOTAL FREE ENERGY PREDICTED BY IDOCK:   -9.20 KCAL/MOL
REMARK 923 INTER-LIGAND FREE ENERGY PREDICTED BY IDOCK:   -8.20 KCAL/MOL
REMARK 924 INTRA-LIGAND FREE ENERGY PREDICTED BY IDOCK:   -1.00 KCAL/MOL
REMARK 927      BINDING AFFINITY PREDICTED BY RF-SCORE:    0.00 PKD
ROOT
HETATM    1  N   UNL     1      -9.249   9.285  62.674  1.00  0.00    -0.548 NA 
HETATM    2  C   UNL     1      -9.726  10.351  63.361  1.00  0.00    -0.263 C  
HETATM    3  H2  UNL     1      -8.629   8.569  63.052  1.00  0.00     0.000 HD 
HETATM    4  H1  UNL     1      -9.606   9.312  61.720  1.00  0.00     0.000 HD 
HETATM    5  N   UNL     1     -10.521  11.193  62.795  1.00  0.00    -0.759 NA 
HETATM    6  N   UNL     1      -9.251  10.316  64.632  1.00  0.00    -0.221 NA 
HETATM    7  H2  UNL     1      -8.631   9.600  65.010  1.00  0.00     0.000 HD 
HETATM    8  H1  UNL     1      -9.611  11.118  65.149  1.00  0.00     0.000 HD 
HETATM    9  H   UNL     1     -10.810  11.065  61.826  1.00  0.00     0.000 HD 
ENDROOT
BRANCH   5  10
HETATM   10  C   UNL     1     -10.964  12.254  63.518  1.00  0.00    -0.459 A  
HETATM   11  N   UNL     1     -10.276  13.289  63.975  1.00  0.00    -0.281 NA 
HETATM   12  C   UNL     1     -11.104  14.176  64.657  1.00  0.00    -0.371 A  
HETATM   13  S   UNL     1     -12.654  12.316  63.892  1.00  0.00    -0.378 SA 
HETATM   14  C   UNL     1     -12.426  13.785  64.729  1.00  0.00    -0.349 A  
BRANCH  12  15
HETATM   15  C   UNL     1     -10.510  15.421  65.239  1.00  0.00    -0.415 C  
BRANCH  15  16
HETATM   16  S   UNL     1      -9.220  15.005  66.465  1.00  0.00    -0.292 SA 
BRANCH  16  17
HETATM   17  C   UNL     1      -9.998  15.628  67.996  1.00  0.00    -0.222 C  
BRANCH  17  18
HETATM   18  C   UNL     1     -10.098  14.612  69.128  1.00  0.00    -0.178 C  
BRANCH  18  19
HETATM   19  C   UNL     1     -11.534  14.161  69.397  1.00  0.00    -0.288 C  
HETATM   20  H2  UNL     1     -12.146  14.712  67.466  1.00  0.00     0.000 HD 
HETATM   21  N   UNL     1     -12.426  14.317  68.364  1.00  0.00    -0.504 NA 
HETATM   22  H1  UNL     1     -13.384  14.017  68.544  1.00  0.00     0.000 HD 
BRANCH  19  23
HETATM   23  N   UNL     1     -11.755  13.668  70.571  1.00  0.00    -0.527 N  
HETATM   24  H   UNL     1     -11.407  12.737  70.800  1.00  0.00     0.000 HD 
BRANCH  23  25
HETATM   25  S   UNL     1     -12.573  14.505  71.679  1.00  0.00    -0.364 S  
HETATM   26  O   UNL     1     -11.705  15.490  72.278  1.00  0.00    -0.413 OA 
HETATM   27  O   UNL     1     -13.342  13.588  72.486  1.00  0.00    -0.522 OA 
HETATM   28  N   UNL     1     -13.698  15.382  70.801  1.00  0.00    -0.845 N  
HETATM   29  H1  UNL     1     -14.215  15.911  71.502  1.00  0.00     0.000 HD 
HETATM   30  H2  UNL     1     -13.835  15.386  69.790  1.00  0.00     0.000 HD 
ENDBRANCH  23  25
ENDBRANCH  19  23
ENDBRANCH  18  19
ENDBRANCH  17  18
ENDBRANCH  16  17
ENDBRANCH  15  16
ENDBRANCH  12  15
ENDBRANCH   5  10
TORSDOF 8
ENDMDL
MODEL       44
REMARK 921   NORMALIZED FREE ENERGY PREDICTED BY IDOCK:   -5.45 KCAL/MOL
REMARK 922        TOTAL FREE ENERGY PREDICTED BY IDOCK:   -9.18 KCAL/MOL
REMARK 923 INTER-LIGAND FREE ENERGY PREDICTED BY IDOCK:   -7.79 KCAL/MOL
REMARK 924 INTRA-LIGAND FREE ENERGY PREDICTED BY IDOCK:   -1.39 KCAL/MOL
REMARK 927      BINDING AFFINITY PREDICTED BY RF-SCORE:    0.00 PKD
ROOT
HETATM    1  N   UNL     1     -12.357  13.507  62.856  1.00  0.00    -0.900 NA 
HETATM    2  C   UNL     1     -11.894  13.391  64.124  1.00  0.00    -0.442 C  
HETATM    3  H2  UNL     1     -12.231  14.321  62.255  1.00  0.00     0.000 HD 
HETATM    4  H1  UNL     1     -12.851  12.654  62.598  1.00  0.00     0.000 HD 
HETATM    5  N   UNL     1     -12.091  12.310  64.797  1.00  0.00    -0.388 NA 
HETATM    6  N   UNL     1     -11.236  14.527  64.469  1.00  0.00    -0.587 NA 
HETATM    7  H2  UNL     1     -11.110  15.341  63.867  1.00  0.00     0.000 HD 
HETATM    8  H1  UNL     1     -10.887  14.440  65.423  1.00  0.00     0.000 HD 
HETATM    9  H   UNL     1     -12.589  11.523  64.384  1.00  0.00     0.000 HD 
ENDROOT
BRANCH   5  10
HETATM   10  C   UNL     1     -11.621  12.242  66.070  1.00  0.00    -0.393 A  
HETATM   11  N   UNL     1     -12.153  12.741  67.175  1.00  0.00    -0.433 NA 
HETATM   12  C   UNL     1     -11.370  12.438  68.286  1.00  0.00    -0.284 A  
HETATM   13  S   UNL     1     -10.144  11.377  66.331  1.00  0.00    -0.226 SA 
HETATM   14  C   UNL     1     -10.225  11.723  68.000  1.00  0.00    -0.193 A  
BRANCH  12  15
HETATM   15  C   UNL     1     -11.815  12.906  69.636  1.00  0.00    -0.320 C  
BRANCH  15  16
HETATM   16  S   UNL     1     -12.131  14.706  69.622  1.00  0.00    -0.293 SA 
BRANCH  16  17
HETATM   17  C   UNL     1     -10.444  15.345  69.916  1.00  0.00    -0.297 C  
BRANCH  17  18
HETATM   18  C   UNL     1      -9.712  15.828  68.670  1.00  0.00    -0.205 C  
BRANCH  18  19
HETATM   19  C   UNL     1     -10.099  17.251  68.267  1.00  0.00    -0.321 C  
HETATM   20  H2  UNL     1      -9.019  18.076  69.868  1.00  0.00     0.000 HD 
HETATM   21  N   UNL     1      -9.609  18.263  69.057  1.00  0.00    -0.220 NA 
HETATM   22  H1  UNL     1      -9.867  19.213  68.788  1.00  0.00     0.000 HD 
BRANCH  19  23
HETATM   23  N   UNL     1     -10.842  17.352  67.214  1.00  0.00    -0.203 N  
HETATM   24  H   UNL     1     -11.805  17.018  67.245  1.00  0.00     0.000 HD 
BRANCH  23  25
HETATM   25  S   UNL     1     -10.268  17.999  65.855  1.00  0.00    -0.123 S  
HETATM   26  O   UNL     1     -11.021  17.501  64.729  1.00  0.00    -0.950 OA 
HETATM   27  O   UNL     1      -8.826  17.944  65.881  1.00  0.00    -0.506 OA 
HETATM   28  N   UNL     1     -10.658  19.624  65.963  1.00  0.00    -0.503 N  
HETATM   29  H1  UNL     1     -10.295  20.033  65.103  1.00  0.00     0.000 HD 
HETATM   30  H2  UNL     1     -11.149  20.099  66.721  1.00  0.00     0.000 HD 
ENDBRANCH  23  25
ENDBRANCH  19  23
ENDBRANCH  18  19
ENDBRANCH  17  18
ENDBRANCH  16  17
ENDBRANCH  15  16
ENDBRANCH  12  15
ENDBRANCH   5  10
TORSDOF 8
ENDMDL
MODEL       45
REMARK 921   NORMALIZED FREE ENERGY PREDICTED BY IDOCK:   -5.41 KCAL/MOL
REMARK 922        TOTAL FREE ENERGY PREDICTED BY IDOCK:   -9.12 KCAL/MOL
REMARK 923 INTER-LIGAND FREE ENERGY PREDICTED BY IDOCK:   -8.13 KCAL/MOL
REMARK 924 INTRA-LIGAND FREE ENERGY PREDICTED BY IDOCK:   -1.00 KCAL/MOL
REMARK 927      BINDING AFFINITY PREDICTED BY RF-SCORE:    0.00 PKD
ROOT
HETATM    1  N   UNL     1     -11.639  16.364  63.809  1.00  0.00    -1.515 NA 
HETATM    2  C   UNL     1     -11.680  15.210  64.519  1.00  0.00    -0.328 C  
HETATM    3  H2  UNL     1     -12.050  16.503  62.886  1.00  0.00     0.000 HD 
HETATM    4  H1  UNL     1     -11.134  17.070  64.342  1.00  0.00     0.000 HD 
HETATM    5  N   UNL     1     -11.144  15.142  65.688  1.00  0.00    -0.341 NA 
HETATM    6  N   UNL     1     -12.353  14.269  63.810  1.00  0.00    -1.063 NA 
HETATM    7  H2  UNL     1     -12.763  14.408  62.887  1.00  0.00     0.000 HD 
HETATM    8  H1  UNL     1     -12.384  13.401  64.344  1.00  0.00     0.000 HD 
HETATM    9  H   UNL     1     -10.690  15.956  66.102  1.00  0.00     0.000 HD 
ENDROOT
BRANCH   5  10
HETATM   10  C   UNL     1     -11.196  13.963  66.359  1.00  0.00    -0.315 A  
HETATM   11  N   UNL     1     -10.667  12.796  66.023  1.00  0.00    -0.269 NA 
HETATM   12  C   UNL     1     -10.931  11.831  66.991  1.00  0.00    -0.285 A  
HETATM   13  S   UNL     1     -12.036  13.941  67.874  1.00  0.00    -0.305 SA 
HETATM   14  C   UNL     1     -11.688  12.280  68.055  1.00  0.00    -0.356 A  
BRANCH  12  15
HETATM   15  C   UNL     1     -10.402  10.445  66.797  1.00  0.00    -0.235 C  
BRANCH  15  16
HETATM   16  S   UNL     1      -8.769  10.262  67.597  1.00  0.00    -0.121 SA 
BRANCH  16  17
HETATM   17  C   UNL     1      -9.069   8.791  68.639  1.00  0.00    -0.141 C  
BRANCH  17  18
HETATM   18  C   UNL     1      -9.356   9.088  70.106  1.00  0.00    -0.213 C  
BRANCH  18  19
HETATM   19  C   UNL     1     -10.850   9.203  70.408  1.00  0.00    -0.242 C  
HETATM   20  H2  UNL     1     -10.638  11.186  71.065  1.00  0.00     0.000 HD 
HETATM   21  N   UNL     1     -11.280  10.410  70.906  1.00  0.00    -0.357 NA 
HETATM   22  H1  UNL     1     -12.277  10.487  71.108  1.00  0.00     0.000 HD 
BRANCH  19  23
HETATM   23  N   UNL     1     -11.555   8.151  70.153  1.00  0.00    -0.468 N  
HETATM   24  H   UNL     1     -11.747   7.897  69.184  1.00  0.00     0.000 HD 
BRANCH  23  25
HETATM   25  S   UNL     1     -12.137   7.235  71.345  1.00  0.00    -0.353 S  
HETATM   26  O   UNL     1     -11.384   6.006  71.420  1.00  0.00    -0.285 OA 
HETATM   27  O   UNL     1     -13.579   7.233  71.274  1.00  0.00    -0.365 OA 
HETATM   28  N   UNL     1     -11.757   8.072  72.745  1.00  0.00    -0.569 N  
HETATM   29  H1  UNL     1     -12.125   7.493  73.499  1.00  0.00     0.000 HD 
HETATM   30  H2  UNL     1     -11.267   8.964  72.826  1.00  0.00     0.000 HD 
ENDBRANCH  23  25
ENDBRANCH  19  23
ENDBRANCH  18  19
ENDBRANCH  17  18
ENDBRANCH  16  17
ENDBRANCH  15  16
ENDBRANCH  12  15
ENDBRANCH   5  10
TORSDOF 8
ENDMDL
MODEL       46
REMARK 921   NORMALIZED FREE ENERGY PREDICTED BY IDOCK:   -5.39 KCAL/MOL
REMARK 922        TOTAL FREE ENERGY PREDICTED BY IDOCK:   -9.09 KCAL/MOL
REMARK 923 INTER-LIGAND FREE ENERGY PREDICTED BY IDOCK:   -7.65 KCAL/MOL
REMARK 924 INTRA-LIGAND FREE ENERGY PREDICTED BY IDOCK:   -1.44 KCAL/MOL
REMARK 927      BINDING AFFINITY PREDICTED BY RF-SCORE:    0.00 PKD
ROOT
HETATM    1  N   UNL     1     -12.608  14.044  63.256  1.00  0.00    -1.005 NA 
HETATM    2  C   UNL     1     -11.839  14.178  64.364  1.00  0.00    -0.428 C  
HETATM    3  H2  UNL     1     -12.675  14.724  62.499  1.00  0.00     0.000 HD 
HETATM    4  H1  UNL     1     -13.108  13.157  63.298  1.00  0.00     0.000 HD 
HETATM    5  N   UNL     1     -11.810  13.250  65.258  1.00  0.00    -0.339 NA 
HETATM    6  N   UNL     1     -11.173  15.359  64.309  1.00  0.00    -0.711 NA 
HETATM    7  H2  UNL     1     -11.240  16.039  63.551  1.00  0.00     0.000 HD 
HETATM    8  H1  UNL     1     -10.594  15.460  65.142  1.00  0.00     0.000 HD 
HETATM    9  H   UNL     1     -12.357  12.397  65.141  1.00  0.00     0.000 HD 
ENDROOT
BRANCH   5  10
HETATM   10  C   UNL     1     -11.036  13.433  66.358  1.00  0.00    -0.299 A  
HETATM   11  N   UNL     1      -9.715  13.449  66.447  1.00  0.00    -0.277 NA 
HETATM   12  C   UNL     1      -9.306  13.684  67.757  1.00  0.00    -0.218 A  
HETATM   13  S   UNL     1     -11.843  13.708  67.866  1.00  0.00    -0.355 SA 
HETATM   14  C   UNL     1     -10.338  13.823  68.662  1.00  0.00    -0.224 A  
BRANCH  12  15
HETATM   15  C   UNL     1      -7.841  13.753  68.058  1.00  0.00    -0.152 C  
BRANCH  15  16
HETATM   16  S   UNL     1      -7.487  15.120  69.218  1.00  0.00    -0.204 SA 
BRANCH  16  17
HETATM   17  C   UNL     1      -6.589  16.270  68.119  1.00  0.00    -0.126 C  
BRANCH  17  18
HETATM   18  C   UNL     1      -7.185  16.428  66.725  1.00  0.00    -0.245 C  
BRANCH  18  19
HETATM   19  C   UNL     1      -7.689  17.845  66.450  1.00  0.00    -0.276 C  
HETATM   20  H2  UNL     1      -6.342  18.092  64.859  1.00  0.00     0.000 HD 
HETATM   21  N   UNL     1      -7.085  18.516  65.414  1.00  0.00    -0.535 NA 
HETATM   22  H1  UNL     1      -7.421  19.462  65.231  1.00  0.00     0.000 HD 
BRANCH  19  23
HETATM   23  N   UNL     1      -8.640  18.260  67.219  1.00  0.00    -0.251 N  
HETATM   24  H   UNL     1      -8.514  18.239  68.232  1.00  0.00     0.000 HD 
BRANCH  23  25
HETATM   25  S   UNL     1     -10.024  18.809  66.603  1.00  0.00    -0.389 S  
HETATM   26  O   UNL     1     -10.992  18.973  67.660  1.00  0.00    -0.407 OA 
HETATM   27  O   UNL     1     -10.333  18.063  65.406  1.00  0.00    -0.558 OA 
HETATM   28  N   UNL     1      -9.668  20.362  66.084  1.00  0.00    -0.659 N  
HETATM   29  H1  UNL     1     -10.544  20.709  65.694  1.00  0.00     0.000 HD 
HETATM   30  H2  UNL     1      -8.775  20.851  66.145  1.00  0.00     0.000 HD 
ENDBRANCH  23  25
ENDBRANCH  19  23
ENDBRANCH  18  19
ENDBRANCH  17  18
ENDBRANCH  16  17
ENDBRANCH  15  16
ENDBRANCH  12  15
ENDBRANCH   5  10
TORSDOF 8
ENDMDL
MODEL       47
REMARK 921   NORMALIZED FREE ENERGY PREDICTED BY IDOCK:   -5.39 KCAL/MOL
REMARK 922        TOTAL FREE ENERGY PREDICTED BY IDOCK:   -9.09 KCAL/MOL
REMARK 923 INTER-LIGAND FREE ENERGY PREDICTED BY IDOCK:   -7.62 KCAL/MOL
REMARK 924 INTRA-LIGAND FREE ENERGY PREDICTED BY IDOCK:   -1.47 KCAL/MOL
REMARK 927      BINDING AFFINITY PREDICTED BY RF-SCORE:    0.00 PKD
ROOT
HETATM    1  N   UNL     1     -12.774  11.413  62.896  1.00  0.00    -0.796 NA 
HETATM    2  C   UNL     1     -11.967  12.352  63.447  1.00  0.00    -0.504 C  
HETATM    3  H2  UNL     1     -12.460  10.627  62.327  1.00  0.00     0.000 HD 
HETATM    4  H1  UNL     1     -13.743  11.616  63.138  1.00  0.00     0.000 HD 
HETATM    5  N   UNL     1     -12.462  13.300  64.166  1.00  0.00    -0.644 NA 
HETATM    6  N   UNL     1     -10.677  12.083  63.124  1.00  0.00    -0.666 NA 
HETATM    7  H2  UNL     1     -10.364  11.296  62.556  1.00  0.00     0.000 HD 
HETATM    8  H1  UNL     1     -10.070  12.789  63.539  1.00  0.00     0.000 HD 
HETATM    9  H   UNL     1     -13.466  13.352  64.340  1.00  0.00     0.000 HD 
ENDROOT
BRANCH   5  10
HETATM   10  C   UNL     1     -11.619  14.228  64.688  1.00  0.00    -0.408 A  
HETATM   11  N   UNL     1     -10.486  14.037  65.348  1.00  0.00    -0.331 NA 
HETATM   12  C   UNL     1      -9.905  15.252  65.701  1.00  0.00    -0.348 A  
HETATM   13  S   UNL     1     -12.026  15.896  64.461  1.00  0.00     0.208 SA 
HETATM   14  C   UNL     1     -10.627  16.365  65.318  1.00  0.00    -0.299 A  
BRANCH  12  15
HETATM   15  C   UNL     1      -8.606  15.245  66.445  1.00  0.00    -0.162 C  
BRANCH  15  16
HETATM   16  S   UNL     1      -8.890  15.477  68.236  1.00  0.00    -0.184 SA 
BRANCH  16  17
HETATM   17  C   UNL     1      -8.989  13.738  68.788  1.00  0.00     0.042 C  
BRANCH  17  18
HETATM   18  C   UNL     1     -10.332  13.060  68.543  1.00  0.00    -0.247 C  
BRANCH  18  19
HETATM   19  C   UNL     1     -11.508  13.838  69.134  1.00  0.00    -0.298 C  
HETATM   20  H2  UNL     1     -12.240  14.319  67.225  1.00  0.00     0.000 HD 
HETATM   21  N   UNL     1     -12.374  14.409  68.233  1.00  0.00    -0.597 NA 
HETATM   22  H1  UNL     1     -13.159  14.929  68.626  1.00  0.00     0.000 HD 
BRANCH  19  23
HETATM   23  N   UNL     1     -11.569  13.868  70.424  1.00  0.00    -0.508 N  
HETATM   24  H   UNL     1     -11.355  13.025  70.957  1.00  0.00     0.000 HD 
BRANCH  23  25
HETATM   25  S   UNL     1     -11.977  15.218  71.202  1.00  0.00    -0.388 S  
HETATM   26  O   UNL     1     -11.353  16.351  70.562  1.00  0.00    -0.363 OA 
HETATM   27  O   UNL     1     -11.857  14.995  72.624  1.00  0.00    -0.358 OA 
HETATM   28  N   UNL     1     -13.617  15.394  70.912  1.00  0.00    -0.771 N  
HETATM   29  H1  UNL     1     -13.875  16.249  71.404  1.00  0.00     0.000 HD 
HETATM   30  H2  UNL     1     -14.223  14.783  70.364  1.00  0.00     0.000 HD 
ENDBRANCH  23  25
ENDBRANCH  19  23
ENDBRANCH  18  19
ENDBRANCH  17  18
ENDBRANCH  16  17
ENDBRANCH  15  16
ENDBRANCH  12  15
ENDBRANCH   5  10
TORSDOF 8
ENDMDL
MODEL       48
REMARK 921   NORMALIZED FREE ENERGY PREDICTED BY IDOCK:   -5.39 KCAL/MOL
REMARK 922        TOTAL FREE ENERGY PREDICTED BY IDOCK:   -9.09 KCAL/MOL
REMARK 923 INTER-LIGAND FREE ENERGY PREDICTED BY IDOCK:   -7.63 KCAL/MOL
REMARK 924 INTRA-LIGAND FREE ENERGY PREDICTED BY IDOCK:   -1.46 KCAL/MOL
REMARK 927      BINDING AFFINITY PREDICTED BY RF-SCORE:    0.00 PKD
ROOT
HETATM    1  N   UNL     1     -11.466  11.438  62.982  1.00  0.00    -0.852 NA 
HETATM    2  C   UNL     1     -11.694  11.969  64.208  1.00  0.00    -0.344 C  
HETATM    3  H2  UNL     1     -12.120  11.459  62.199  1.00  0.00     0.000 HD 
HETATM    4  H1  UNL     1     -10.539  11.015  62.964  1.00  0.00     0.000 HD 
HETATM    5  N   UNL     1     -10.793  11.904  65.127  1.00  0.00    -0.292 NA 
HETATM    6  N   UNL     1     -12.928  12.532  64.231  1.00  0.00    -0.764 NA 
HETATM    7  H2  UNL     1     -13.581  12.554  63.449  1.00  0.00     0.000 HD 
HETATM    8  H1  UNL     1     -13.099  12.932  65.154  1.00  0.00     0.000 HD 
HETATM    9  H   UNL     1      -9.892  11.463  64.943  1.00  0.00     0.000 HD 
ENDROOT
BRANCH   5  10
HETATM   10  C   UNL     1     -11.069  12.437  66.345  1.00  0.00    -0.301 A  
HETATM   11  N   UNL     1     -11.190  13.712  66.682  1.00  0.00    -0.306 NA 
HETATM   12  C   UNL     1     -11.497  13.844  68.033  1.00  0.00    -0.307 A  
HETATM   13  S   UNL     1     -11.329  11.338  67.658  1.00  0.00    -0.259 SA 
HETATM   14  C   UNL     1     -11.584  12.650  68.719  1.00  0.00    -0.313 A  
BRANCH  12  15
HETATM   15  C   UNL     1     -11.687  15.215  68.603  1.00  0.00    -0.341 C  
BRANCH  15  16
HETATM   16  S   UNL     1     -10.459  15.542  69.916  1.00  0.00    -0.311 SA 
BRANCH  16  17
HETATM   17  C   UNL     1      -8.914  15.094  69.051  1.00  0.00    -0.219 C  
BRANCH  17  18
HETATM   18  C   UNL     1      -8.147  16.267  68.452  1.00  0.00    -0.183 C  
BRANCH  18  19
HETATM   19  C   UNL     1      -8.698  16.708  67.096  1.00  0.00    -0.195 C  
HETATM   20  H2  UNL     1      -8.938  14.719  66.466  1.00  0.00     0.000 HD 
HETATM   21  N   UNL     1      -9.043  15.705  66.223  1.00  0.00    -0.317 NA 
HETATM   22  H1  UNL     1      -9.411  15.999  65.318  1.00  0.00     0.000 HD 
BRANCH  19  23
HETATM   23  N   UNL     1      -8.791  17.984  66.918  1.00  0.00    -0.251 N  
HETATM   24  H   UNL     1      -7.963  18.569  67.034  1.00  0.00     0.000 HD 
BRANCH  23  25
HETATM   25  S   UNL     1     -10.195  18.664  66.514  1.00  0.00    -0.431 S  
HETATM   26  O   UNL     1     -11.020  18.802  67.690  1.00  0.00    -0.384 OA 
HETATM   27  O   UNL     1     -10.692  18.036  65.313  1.00  0.00    -0.625 OA 
HETATM   28  N   UNL     1      -9.794  20.229  66.070  1.00  0.00    -0.638 N  
HETATM   29  H1  UNL     1     -10.682  20.659  65.814  1.00  0.00     0.000 HD 
HETATM   30  H2  UNL     1      -8.868  20.656  66.058  1.00  0.00     0.000 HD 
ENDBRANCH  23  25
ENDBRANCH  19  23
ENDBRANCH  18  19
ENDBRANCH  17  18
ENDBRANCH  16  17
ENDBRANCH  15  16
ENDBRANCH  12  15
ENDBRANCH   5  10
TORSDOF 8
ENDMDL
MODEL       49
REMARK 921   NORMALIZED FREE ENERGY PREDICTED BY IDOCK:   -5.39 KCAL/MOL
REMARK 922        TOTAL FREE ENERGY PREDICTED BY IDOCK:   -9.09 KCAL/MOL
REMARK 923 INTER-LIGAND FREE ENERGY PREDICTED BY IDOCK:   -7.01 KCAL/MOL
REMARK 924 INTRA-LIGAND FREE ENERGY PREDICTED BY IDOCK:   -2.08 KCAL/MOL
REMARK 927      BINDING AFFINITY PREDICTED BY RF-SCORE:    0.00 PKD
ROOT
HETATM    1  N   UNL     1     -12.898  13.660  71.388  1.00  0.00    -0.355 NA 
HETATM    2  C   UNL     1     -12.273  13.914  70.213  1.00  0.00    -0.358 C  
HETATM    3  H2  UNL     1     -12.725  12.851  71.984  1.00  0.00     0.000 HD 
HETATM    4  H1  UNL     1     -13.567  14.404  71.582  1.00  0.00     0.000 HD 
HETATM    5  N   UNL     1     -12.551  14.977  69.540  1.00  0.00    -0.595 NA 
HETATM    6  N   UNL     1     -11.382  12.924  69.953  1.00  0.00    -0.503 NA 
HETATM    7  H2  UNL     1     -11.210  12.115  70.550  1.00  0.00     0.000 HD 
HETATM    8  H1  UNL     1     -10.911  13.116  69.069  1.00  0.00     0.000 HD 
HETATM    9  H   UNL     1     -13.237  15.648  69.886  1.00  0.00     0.000 HD 
ENDROOT
BRANCH   5  10
HETATM   10  C   UNL     1     -11.910  15.186  68.361  1.00  0.00    -0.267 A  
HETATM   11  N   UNL     1     -12.035  14.519  67.223  1.00  0.00    -0.394 NA 
HETATM   12  C   UNL     1     -11.213  15.058  66.237  1.00  0.00    -0.309 A  
HETATM   13  S   UNL     1     -10.791  16.505  68.281  1.00  0.00    -0.349 SA 
HETATM   14  C   UNL     1     -10.448  16.129  66.652  1.00  0.00    -0.300 A  
BRANCH  12  15
HETATM   15  C   UNL     1     -11.224  14.447  64.871  1.00  0.00    -0.389 C  
BRANCH  15  16
HETATM   16  S   UNL     1     -12.565  13.214  64.728  1.00  0.00    -0.318 SA 
BRANCH  16  17
HETATM   17  C   UNL     1     -11.790  12.004  63.599  1.00  0.00    -0.506 C  
BRANCH  17  18
HETATM   18  C   UNL     1     -10.266  11.983  63.623  1.00  0.00    -0.470 C  
BRANCH  18  19
HETATM   19  C   UNL     1      -9.701  11.175  64.792  1.00  0.00    -0.257 C  
HETATM   20  H2  UNL     1     -10.275   9.359  63.908  1.00  0.00     0.000 HD 
HETATM   21  N   UNL     1      -9.828   9.810  64.707  1.00  0.00    -0.417 NA 
HETATM   22  H1  UNL     1      -9.451   9.270  65.486  1.00  0.00     0.000 HD 
BRANCH  19  23
HETATM   23  N   UNL     1      -9.152  11.866  65.736  1.00  0.00    -0.416 N  
HETATM   24  H   UNL     1      -8.473  12.589  65.500  1.00  0.00     0.000 HD 
BRANCH  23  25
HETATM   25  S   UNL     1      -9.526  11.600  67.281  1.00  0.00    -0.169 S  
HETATM   26  O   UNL     1      -9.341  12.815  68.038  1.00  0.00    -0.200 OA 
HETATM   27  O   UNL     1      -8.931  10.352  67.699  1.00  0.00    -0.137 OA 
HETATM   28  N   UNL     1     -11.179  11.329  67.275  1.00  0.00    -0.305 N  
HETATM   29  H1  UNL     1     -11.415  11.161  68.252  1.00  0.00     0.000 HD 
HETATM   30  H2  UNL     1     -11.809  11.333  66.473  1.00  0.00     0.000 HD 
ENDBRANCH  23  25
ENDBRANCH  19  23
ENDBRANCH  18  19
ENDBRANCH  17  18
ENDBRANCH  16  17
ENDBRANCH  15  16
ENDBRANCH  12  15
ENDBRANCH   5  10
TORSDOF 8
ENDMDL
MODEL       50
REMARK 921   NORMALIZED FREE ENERGY PREDICTED BY IDOCK:   -5.39 KCAL/MOL
REMARK 922        TOTAL FREE ENERGY PREDICTED BY IDOCK:   -9.09 KCAL/MOL
REMARK 923 INTER-LIGAND FREE ENERGY PREDICTED BY IDOCK:   -7.51 KCAL/MOL
REMARK 924 INTRA-LIGAND FREE ENERGY PREDICTED BY IDOCK:   -1.57 KCAL/MOL
REMARK 927      BINDING AFFINITY PREDICTED BY RF-SCORE:    0.00 PKD
ROOT
HETATM    1  N   UNL     1      -9.322  11.240  62.364  1.00  0.00    -0.504 NA 
HETATM    2  C   UNL     1      -9.849  11.627  63.551  1.00  0.00    -0.370 C  
HETATM    3  H2  UNL     1      -9.001  10.298  62.141  1.00  0.00     0.000 HD 
HETATM    4  H1  UNL     1      -9.298  12.037  61.730  1.00  0.00     0.000 HD 
HETATM    5  N   UNL     1     -10.242  12.841  63.728  1.00  0.00    -0.619 NA 
HETATM    6  N   UNL     1      -9.882  10.567  64.397  1.00  0.00    -0.322 NA 
HETATM    7  H2  UNL     1      -9.561   9.625  64.173  1.00  0.00     0.000 HD 
HETATM    8  H1  UNL     1     -10.278  10.858  65.290  1.00  0.00     0.000 HD 
HETATM    9  H   UNL     1     -10.173  13.526  62.975  1.00  0.00     0.000 HD 
ENDROOT
BRANCH   5  10
HETATM   10  C   UNL     1     -10.751  13.190  64.938  1.00  0.00    -0.346 A  
HETATM   11  N   UNL     1     -10.151  13.188  66.118  1.00  0.00    -0.286 NA 
HETATM   12  C   UNL     1     -11.014  13.634  67.116  1.00  0.00    -0.288 A  
HETATM   13  S   UNL     1     -12.393  13.740  64.986  1.00  0.00    -0.425 SA 
HETATM   14  C   UNL     1     -12.283  13.951  66.676  1.00  0.00    -0.424 A  
BRANCH  12  15
HETATM   15  C   UNL     1     -10.513  13.716  68.524  1.00  0.00    -0.244 C  
BRANCH  15  16
HETATM   16  S   UNL     1     -11.865  14.183  69.662  1.00  0.00    -0.342 SA 
BRANCH  16  17
HETATM   17  C   UNL     1     -11.540  15.970  69.856  1.00  0.00    -0.299 C  
BRANCH  17  18
HETATM   18  C   UNL     1     -10.198  16.445  69.309  1.00  0.00    -0.278 C  
BRANCH  18  19
HETATM   19  C   UNL     1     -10.330  17.639  68.364  1.00  0.00    -0.375 C  
HETATM   20  H2  UNL     1      -9.392  18.921  69.736  1.00  0.00     0.000 HD 
HETATM   21  N   UNL     1      -9.828  18.834  68.818  1.00  0.00    -0.383 NA 
HETATM   22  H1  UNL     1      -9.917  19.632  68.188  1.00  0.00     0.000 HD 
BRANCH  19  23
HETATM   23  N   UNL     1     -10.894  17.393  67.227  1.00  0.00    -0.203 N  
HETATM   24  H   UNL     1     -11.867  17.088  67.204  1.00  0.00     0.000 HD 
BRANCH  23  25
HETATM   25  S   UNL     1     -10.081  17.564  65.846  1.00  0.00    -0.116 S  
HETATM   26  O   UNL     1      -9.320  18.790  65.883  1.00  0.00    -0.466 OA 
HETATM   27  O   UNL     1     -10.960  17.255  64.743  1.00  0.00    -0.950 OA 
HETATM   28  N   UNL     1      -8.943  16.336  65.871  1.00  0.00    -0.272 N  
HETATM   29  H1  UNL     1      -8.429  16.444  64.997  1.00  0.00     0.000 HD 
HETATM   30  H2  UNL     1      -8.796  15.636  66.599  1.00  0.00     0.000 HD 
ENDBRANCH  23  25
ENDBRANCH  19  23
ENDBRANCH  18  19
ENDBRANCH  17  18
ENDBRANCH  16  17
ENDBRANCH  15  16
ENDBRANCH  12  15
ENDBRANCH   5  10
TORSDOF 8
ENDMDL
MODEL       51
REMARK 921   NORMALIZED FREE ENERGY PREDICTED BY IDOCK:   -5.38 KCAL/MOL
REMARK 922        TOTAL FREE ENERGY PREDICTED BY IDOCK:   -9.07 KCAL/MOL
REMARK 923 INTER-LIGAND FREE ENERGY PREDICTED BY IDOCK:   -7.16 KCAL/MOL
REMARK 924 INTRA-LIGAND FREE ENERGY PREDICTED BY IDOCK:   -1.92 KCAL/MOL
REMARK 927      BINDING AFFINITY PREDICTED BY RF-SCORE:    0.00 PKD
ROOT
HETATM    1  N   UNL     1     -11.419   9.953  69.782  1.00  0.00    -0.399 NA 
HETATM    2  C   UNL     1     -11.147  10.200  68.478  1.00  0.00    -0.214 C  
HETATM    3  H2  UNL     1     -12.184  10.368  70.314  1.00  0.00     0.000 HD 
HETATM    4  H1  UNL     1     -10.740   9.287  70.148  1.00  0.00     0.000 HD 
HETATM    5  N   UNL     1     -10.164   9.609  67.891  1.00  0.00    -0.185 NA 
HETATM    6  N   UNL     1     -12.051  11.087  67.990  1.00  0.00    -0.727 NA 
HETATM    7  H2  UNL     1     -12.815  11.502  68.522  1.00  0.00     0.000 HD 
HETATM    8  H1  UNL     1     -11.846  11.273  67.009  1.00  0.00     0.000 HD 
HETATM    9  H   UNL     1      -9.583   8.939  68.394  1.00  0.00     0.000 HD 
ENDROOT
BRANCH   5  10
HETATM   10  C   UNL     1      -9.919   9.897  66.586  1.00  0.00    -0.217 A  
HETATM   11  N   UNL     1     -10.312  10.949  65.884  1.00  0.00    -0.257 NA 
HETATM   12  C   UNL     1      -9.835  10.882  64.577  1.00  0.00    -0.300 A  
HETATM   13  S   UNL     1      -8.945   8.779  65.690  1.00  0.00    -0.181 SA 
HETATM   14  C   UNL     1      -9.095   9.752  64.296  1.00  0.00    -0.246 A  
BRANCH  12  15
HETATM   15  C   UNL     1     -10.164  11.991  63.628  1.00  0.00    -0.444 C  
BRANCH  15  16
HETATM   16  S   UNL     1     -11.907  12.507  63.819  1.00  0.00    -0.542 SA 
BRANCH  16  17
HETATM   17  C   UNL     1     -11.693  14.104  64.680  1.00  0.00    -0.417 C  
BRANCH  17  18
HETATM   18  C   UNL     1     -12.592  14.307  65.894  1.00  0.00    -0.376 C  
BRANCH  18  19
HETATM   19  C   UNL     1     -11.835  14.205  67.219  1.00  0.00    -0.419 C  
HETATM   20  H2  UNL     1     -10.084  13.567  66.251  1.00  0.00     0.000 HD 
HETATM   21  N   UNL     1     -10.526  13.792  67.143  1.00  0.00    -0.271 NA 
HETATM   22  H1  UNL     1     -10.021  13.723  68.026  1.00  0.00     0.000 HD 
BRANCH  19  23
HETATM   23  N   UNL     1     -12.507  14.528  68.274  1.00  0.00    -0.517 N  
HETATM   24  H   UNL     1     -13.517  14.654  68.208  1.00  0.00     0.000 HD 
BRANCH  23  25
HETATM   25  S   UNL     1     -11.771  14.735  69.692  1.00  0.00    -0.333 S  
HETATM   26  O   UNL     1     -12.715  15.255  70.653  1.00  0.00    -0.378 OA 
HETATM   27  O   UNL     1     -10.494  15.370  69.471  1.00  0.00    -0.229 OA 
HETATM   28  N   UNL     1     -11.417  13.184  70.215  1.00  0.00    -0.503 N  
HETATM   29  H1  UNL     1     -10.952  13.315  71.113  1.00  0.00     0.000 HD 
HETATM   30  H2  UNL     1     -11.621  12.303  69.741  1.00  0.00     0.000 HD 
ENDBRANCH  23  25
ENDBRANCH  19  23
ENDBRANCH  18  19
ENDBRANCH  17  18
ENDBRANCH  16  17
ENDBRANCH  15  16
ENDBRANCH  12  15
ENDBRANCH   5  10
TORSDOF 8
ENDMDL
MODEL       52
REMARK 921   NORMALIZED FREE ENERGY PREDICTED BY IDOCK:   -5.38 KCAL/MOL
REMARK 922        TOTAL FREE ENERGY PREDICTED BY IDOCK:   -9.07 KCAL/MOL
REMARK 923 INTER-LIGAND FREE ENERGY PREDICTED BY IDOCK:   -8.02 KCAL/MOL
REMARK 924 INTRA-LIGAND FREE ENERGY PREDICTED BY IDOCK:   -1.05 KCAL/MOL
REMARK 927      BINDING AFFINITY PREDICTED BY RF-SCORE:    0.00 PKD
ROOT
HETATM    1  N   UNL     1     -13.933  15.705  73.102  1.00  0.00    -0.556 NA 
HETATM    2  C   UNL     1     -13.622  14.924  72.039  1.00  0.00    -0.407 C  
HETATM    3  H2  UNL     1     -14.587  16.487  73.087  1.00  0.00     0.000 HD 
HETATM    4  H1  UNL     1     -13.412  15.387  73.918  1.00  0.00     0.000 HD 
HETATM    5  N   UNL     1     -12.794  13.945  72.165  1.00  0.00    -0.319 NA 
HETATM    6  N   UNL     1     -14.316  15.347  70.952  1.00  0.00    -0.853 NA 
HETATM    7  H2  UNL     1     -14.969  16.130  70.938  1.00  0.00     0.000 HD 
HETATM    8  H1  UNL     1     -14.082  14.759  70.152  1.00  0.00     0.000 HD 
HETATM    9  H   UNL     1     -12.368  13.736  73.068  1.00  0.00     0.000 HD 
ENDROOT
BRANCH   5  10
HETATM   10  C   UNL     1     -12.501  13.197  71.070  1.00  0.00    -0.318 A  
HETATM   11  N   UNL     1     -12.112  13.603  69.871  1.00  0.00    -0.337 NA 
HETATM   12  C   UNL     1     -11.893  12.520  69.024  1.00  0.00    -0.296 A  
HETATM   13  S   UNL     1     -12.613  11.475  71.224  1.00  0.00    -0.280 SA 
HETATM   14  C   UNL     1     -12.144  11.288  69.594  1.00  0.00    -0.322 A  
BRANCH  12  15
HETATM   15  C   UNL     1     -11.433  12.776  67.623  1.00  0.00    -0.334 C  
BRANCH  15  16
HETATM   16  S   UNL     1     -11.782  14.503  67.137  1.00  0.00    -0.380 SA 
BRANCH  16  17
HETATM   17  C   UNL     1     -11.271  14.469  65.383  1.00  0.00    -0.342 C  
BRANCH  17  18
HETATM   18  C   UNL     1     -12.042  13.490  64.506  1.00  0.00    -0.460 C  
BRANCH  18  19
HETATM   19  C   UNL     1     -11.175  12.341  63.992  1.00  0.00    -0.392 C  
HETATM   20  H2  UNL     1     -12.681  11.697  62.678  1.00  0.00     0.000 HD 
HETATM   21  N   UNL     1     -11.736  11.537  63.030  1.00  0.00    -0.874 NA 
HETATM   22  H1  UNL     1     -11.158  10.770  62.686  1.00  0.00     0.000 HD 
BRANCH  19  23
HETATM   23  N   UNL     1      -9.995  12.254  64.512  1.00  0.00    -0.458 N  
HETATM   24  H   UNL     1      -9.502  13.104  64.786  1.00  0.00     0.000 HD 
BRANCH  23  25
HETATM   25  S   UNL     1      -9.292  10.821  64.735  1.00  0.00    -0.240 S  
HETATM   26  O   UNL     1      -8.792  10.329  63.473  1.00  0.00    -0.184 OA 
HETATM   27  O   UNL     1     -10.137  10.010  65.579  1.00  0.00    -0.298 OA 
HETATM   28  N   UNL     1      -7.930  11.157  65.650  1.00  0.00    -0.370 N  
HETATM   29  H1  UNL     1      -7.486  10.250  65.790  1.00  0.00     0.000 HD 
HETATM   30  H2  UNL     1      -7.615  12.065  65.991  1.00  0.00     0.000 HD 
ENDBRANCH  23  25
ENDBRANCH  19  23
ENDBRANCH  18  19
ENDBRANCH  17  18
ENDBRANCH  16  17
ENDBRANCH  15  16
ENDBRANCH  12  15
ENDBRANCH   5  10
TORSDOF 8
ENDMDL
MODEL       53
REMARK 921   NORMALIZED FREE ENERGY PREDICTED BY IDOCK:   -5.37 KCAL/MOL
REMARK 922        TOTAL FREE ENERGY PREDICTED BY IDOCK:   -9.07 KCAL/MOL
REMARK 923 INTER-LIGAND FREE ENERGY PREDICTED BY IDOCK:   -7.42 KCAL/MOL
REMARK 924 INTRA-LIGAND FREE ENERGY PREDICTED BY IDOCK:   -1.65 KCAL/MOL
REMARK 927      BINDING AFFINITY PREDICTED BY RF-SCORE:    0.00 PKD
ROOT
HETATM    1  N   UNL     1     -11.791  16.239  63.714  1.00  0.00    -1.413 NA 
HETATM    2  C   UNL     1     -11.189  15.662  64.783  1.00  0.00    -0.382 C  
HETATM    3  H2  UNL     1     -11.594  17.175  63.361  1.00  0.00     0.000 HD 
HETATM    4  H1  UNL     1     -12.470  15.590  63.319  1.00  0.00     0.000 HD 
HETATM    5  N   UNL     1     -11.496  14.463  65.139  1.00  0.00    -0.347 NA 
HETATM    6  N   UNL     1     -10.284  16.525  65.309  1.00  0.00    -0.596 NA 
HETATM    7  H2  UNL     1     -10.088  17.461  64.956  1.00  0.00     0.000 HD 
HETATM    8  H1  UNL     1      -9.831  16.091  66.113  1.00  0.00     0.000 HD 
HETATM    9  H   UNL     1     -12.189  13.925  64.618  1.00  0.00     0.000 HD 
ENDROOT
BRANCH   5  10
HETATM   10  C   UNL     1     -10.879  13.928  66.224  1.00  0.00    -0.290 A  
HETATM   11  N   UNL     1      -9.581  13.806  66.460  1.00  0.00    -0.282 NA 
HETATM   12  C   UNL     1      -9.353  13.219  67.701  1.00  0.00    -0.212 A  
HETATM   13  S   UNL     1     -11.882  13.339  67.506  1.00  0.00    -0.335 SA 
HETATM   14  C   UNL     1     -10.498  12.877  68.391  1.00  0.00    -0.251 A  
BRANCH  12  15
HETATM   15  C   UNL     1      -7.942  13.007  68.155  1.00  0.00    -0.154 C  
BRANCH  15  16
HETATM   16  S   UNL     1      -6.926  14.486  67.806  1.00  0.00    -0.187 SA 
BRANCH  16  17
HETATM   17  C   UNL     1      -7.308  15.509  69.271  1.00  0.00    -0.202 C  
BRANCH  17  18
HETATM   18  C   UNL     1      -8.490  16.457  69.105  1.00  0.00    -0.181 C  
BRANCH  18  19
HETATM   19  C   UNL     1      -8.131  17.728  68.337  1.00  0.00    -0.297 C  
HETATM   20  H2  UNL     1      -6.383  18.004  69.468  1.00  0.00     0.000 HD 
HETATM   21  N   UNL     1      -6.971  18.362  68.715  1.00  0.00    -0.270 NA 
HETATM   22  H1  UNL     1      -6.731  19.211  68.203  1.00  0.00     0.000 HD 
BRANCH  19  23
HETATM   23  N   UNL     1      -8.954  18.069  67.402  1.00  0.00    -0.244 N  
HETATM   24  H   UNL     1      -9.153  17.415  66.644  1.00  0.00     0.000 HD 
BRANCH  23  25
HETATM   25  S   UNL     1      -9.671  19.512  67.415  1.00  0.00    -0.363 S  
HETATM   26  O   UNL     1     -10.851  19.472  66.585  1.00  0.00    -0.442 OA 
HETATM   27  O   UNL     1      -8.667  20.536  67.249  1.00  0.00    -0.348 OA 
HETATM   28  N   UNL     1     -10.238  19.688  68.981  1.00  0.00    -0.619 N  
HETATM   29  H1  UNL     1     -10.692  20.601  68.989  1.00  0.00     0.000 HD 
HETATM   30  H2  UNL     1     -10.149  19.029  69.755  1.00  0.00     0.000 HD 
ENDBRANCH  23  25
ENDBRANCH  19  23
ENDBRANCH  18  19
ENDBRANCH  17  18
ENDBRANCH  16  17
ENDBRANCH  15  16
ENDBRANCH  12  15
ENDBRANCH   5  10
TORSDOF 8
ENDMDL
MODEL       54
REMARK 921   NORMALIZED FREE ENERGY PREDICTED BY IDOCK:   -5.37 KCAL/MOL
REMARK 922        TOTAL FREE ENERGY PREDICTED BY IDOCK:   -9.06 KCAL/MOL
REMARK 923 INTER-LIGAND FREE ENERGY PREDICTED BY IDOCK:   -8.21 KCAL/MOL
REMARK 924 INTRA-LIGAND FREE ENERGY PREDICTED BY IDOCK:   -0.85 KCAL/MOL
REMARK 927      BINDING AFFINITY PREDICTED BY RF-SCORE:    0.00 PKD
ROOT
HETATM    1  N   UNL     1     -11.923   6.310  72.545  1.00  0.00    -0.521 NA 
HETATM    2  C   UNL     1     -11.911   7.401  71.741  1.00  0.00    -0.294 C  
HETATM    3  H2  UNL     1     -12.097   5.353  72.238  1.00  0.00     0.000 HD 
HETATM    4  H1  UNL     1     -11.729   6.595  73.504  1.00  0.00     0.000 HD 
HETATM    5  N   UNL     1     -11.661   8.568  72.225  1.00  0.00    -0.373 NA 
HETATM    6  N   UNL     1     -12.168   7.021  70.464  1.00  0.00    -0.607 NA 
HETATM    7  H2  UNL     1     -12.343   6.065  70.157  1.00  0.00     0.000 HD 
HETATM    8  H1  UNL     1     -12.158   7.842  69.859  1.00  0.00     0.000 HD 
HETATM    9  H   UNL     1     -11.459   8.688  73.218  1.00  0.00     0.000 HD 
ENDROOT
BRANCH   5  10
HETATM   10  C   UNL     1     -11.673   9.636  71.386  1.00  0.00    -0.404 A  
HETATM   11  N   UNL     1     -10.841   9.917  70.395  1.00  0.00    -0.298 NA 
HETATM   12  C   UNL     1     -11.205  11.101  69.759  1.00  0.00    -0.245 A  
HETATM   13  S   UNL     1     -12.942  10.797  71.587  1.00  0.00    -0.441 SA 
HETATM   14  C   UNL     1     -12.313  11.723  70.299  1.00  0.00    -0.240 A  
BRANCH  12  15
HETATM   15  C   UNL     1     -10.391  11.581  68.599  1.00  0.00    -0.210 C  
BRANCH  15  16
HETATM   16  S   UNL     1     -11.461  11.908  67.153  1.00  0.00    -0.292 SA 
BRANCH  16  17
HETATM   17  C   UNL     1     -11.013  13.641  66.787  1.00  0.00    -0.292 C  
BRANCH  17  18
HETATM   18  C   UNL     1     -11.652  14.220  65.531  1.00  0.00    -0.338 C  
BRANCH  18  19
HETATM   19  C   UNL     1     -10.885  15.418  64.971  1.00  0.00    -0.444 C  
HETATM   20  H2  UNL     1     -12.428  15.867  63.620  1.00  0.00     0.000 HD 
HETATM   21  N   UNL     1     -11.506  16.127  63.971  1.00  0.00    -1.425 NA 
HETATM   22  H1  UNL     1     -10.994  16.926  63.597  1.00  0.00     0.000 HD 
BRANCH  19  23
HETATM   23  N   UNL     1      -9.732  15.645  65.508  1.00  0.00    -0.301 N  
HETATM   24  H   UNL     1      -9.034  14.901  65.534  1.00  0.00     0.000 HD 
BRANCH  23  25
HETATM   25  S   UNL     1      -9.380  17.086  66.137  1.00  0.00    -0.167 S  
HETATM   26  O   UNL     1     -10.348  18.058  65.687  1.00  0.00    -0.611 OA 
HETATM   27  O   UNL     1      -7.961  17.321  66.008  1.00  0.00    -0.462 OA 
HETATM   28  N   UNL     1      -9.659  16.911  67.779  1.00  0.00    -0.246 N  
HETATM   29  H1  UNL     1      -9.436  17.823  68.177  1.00  0.00     0.000 HD 
HETATM   30  H2  UNL     1      -9.980  16.077  68.272  1.00  0.00     0.000 HD 
ENDBRANCH  23  25
ENDBRANCH  19  23
ENDBRANCH  18  19
ENDBRANCH  17  18
ENDBRANCH  16  17
ENDBRANCH  15  16
ENDBRANCH  12  15
ENDBRANCH   5  10
TORSDOF 8
ENDMDL
MODEL       55
REMARK 921   NORMALIZED FREE ENERGY PREDICTED BY IDOCK:   -5.36 KCAL/MOL
REMARK 922        TOTAL FREE ENERGY PREDICTED BY IDOCK:   -9.05 KCAL/MOL
REMARK 923 INTER-LIGAND FREE ENERGY PREDICTED BY IDOCK:   -7.07 KCAL/MOL
REMARK 924 INTRA-LIGAND FREE ENERGY PREDICTED BY IDOCK:   -1.98 KCAL/MOL
REMARK 927      BINDING AFFINITY PREDICTED BY RF-SCORE:    0.00 PKD
ROOT
HETATM    1  N   UNL     1     -12.013  15.975  63.735  1.00  0.00    -1.339 NA 
HETATM    2  C   UNL     1     -11.215  16.390  64.748  1.00  0.00    -0.212 C  
HETATM    3  H2  UNL     1     -12.204  15.003  63.494  1.00  0.00     0.000 HD 
HETATM    4  H1  UNL     1     -12.394  16.788  63.251  1.00  0.00     0.000 HD 
HETATM    5  N   UNL     1     -11.053  17.647  64.982  1.00  0.00    -0.639 NA 
HETATM    6  N   UNL     1     -10.708  15.309  65.393  1.00  0.00    -0.363 NA 
HETATM    7  H2  UNL     1     -10.899  14.337  65.152  1.00  0.00     0.000 HD 
HETATM    8  H1  UNL     1     -10.108  15.621  66.156  1.00  0.00     0.000 HD 
HETATM    9  H   UNL     1     -11.530  18.348  64.415  1.00  0.00     0.000 HD 
ENDROOT
BRANCH   5  10
HETATM   10  C   UNL     1     -10.233  18.018  65.999  1.00  0.00    -0.303 A  
HETATM   11  N   UNL     1      -9.044  17.533  66.321  1.00  0.00    -0.433 NA 
HETATM   12  C   UNL     1      -8.516  18.198  67.424  1.00  0.00    -0.240 A  
HETATM   13  S   UNL     1     -10.763  19.311  67.021  1.00  0.00    -0.424 SA 
HETATM   14  C   UNL     1      -9.335  19.179  67.946  1.00  0.00    -0.315 A  
BRANCH  12  15
HETATM   15  C   UNL     1      -7.166  17.800  67.934  1.00  0.00    -0.210 C  
BRANCH  15  16
HETATM   16  S   UNL     1      -6.630  16.227  67.174  1.00  0.00    -0.161 SA 
BRANCH  16  17
HETATM   17  C   UNL     1      -7.224  15.032  68.421  1.00  0.00    -0.111 C  
BRANCH  17  18
HETATM   18  C   UNL     1      -8.149  13.946  67.884  1.00  0.00    -0.158 C  
BRANCH  18  19
HETATM   19  C   UNL     1      -9.575  14.060  68.423  1.00  0.00    -0.222 C  
HETATM   20  H2  UNL     1      -9.722  16.064  67.814  1.00  0.00     0.000 HD 
HETATM   21  N   UNL     1     -10.190  15.278  68.265  1.00  0.00    -0.224 NA 
HETATM   22  H1  UNL     1     -11.142  15.355  68.625  1.00  0.00     0.000 HD 
BRANCH  19  23
HETATM   23  N   UNL     1     -10.056  12.990  68.963  1.00  0.00    -0.422 N  
HETATM   24  H   UNL     1      -9.430  12.344  69.445  1.00  0.00     0.000 HD 
BRANCH  23  25
HETATM   25  S   UNL     1     -11.632  12.660  68.886  1.00  0.00    -0.334 S  
HETATM   26  O   UNL     1     -12.373  13.684  69.583  1.00  0.00    -0.296 OA 
HETATM   27  O   UNL     1     -11.833  11.259  69.170  1.00  0.00    -0.306 OA 
HETATM   28  N   UNL     1     -12.026  12.852  67.270  1.00  0.00    -0.355 N  
HETATM   29  H1  UNL     1     -13.022  12.644  67.222  1.00  0.00     0.000 HD 
HETATM   30  H2  UNL     1     -11.406  13.119  66.504  1.00  0.00     0.000 HD 
ENDBRANCH  23  25
ENDBRANCH  19  23
ENDBRANCH  18  19
ENDBRANCH  17  18
ENDBRANCH  16  17
ENDBRANCH  15  16
ENDBRANCH  12  15
ENDBRANCH   5  10
TORSDOF 8
ENDMDL
MODEL       56
REMARK 921   NORMALIZED FREE ENERGY PREDICTED BY IDOCK:   -5.29 KCAL/MOL
REMARK 922        TOTAL FREE ENERGY PREDICTED BY IDOCK:   -8.94 KCAL/MOL
REMARK 923 INTER-LIGAND FREE ENERGY PREDICTED BY IDOCK:   -7.96 KCAL/MOL
REMARK 924 INTRA-LIGAND FREE ENERGY PREDICTED BY IDOCK:   -0.97 KCAL/MOL
REMARK 927      BINDING AFFINITY PREDICTED BY RF-SCORE:    0.00 PKD
ROOT
HETATM    1  N   UNL     1     -10.940   5.233  72.909  1.00  0.00    -0.266 NA 
HETATM    2  C   UNL     1     -11.339   6.351  72.256  1.00  0.00    -0.290 C  
HETATM    3  H2  UNL     1     -10.616   4.374  72.465  1.00  0.00     0.000 HD 
HETATM    4  H1  UNL     1     -11.013   5.386  73.914  1.00  0.00     0.000 HD 
HETATM    5  N   UNL     1     -11.714   7.395  72.912  1.00  0.00    -0.582 NA 
HETATM    6  N   UNL     1     -11.241   6.149  70.918  1.00  0.00    -0.307 NA 
HETATM    7  H2  UNL     1     -10.917   5.290  70.474  1.00  0.00     0.000 HD 
HETATM    8  H1  UNL     1     -11.541   6.990  70.425  1.00  0.00     0.000 HD 
HETATM    9  H   UNL     1     -11.708   7.399  73.931  1.00  0.00     0.000 HD 
ENDROOT
BRANCH   5  10
HETATM   10  C   UNL     1     -12.119   8.488  72.216  1.00  0.00    -0.387 A  
HETATM   11  N   UNL     1     -11.400   9.292  71.447  1.00  0.00    -0.335 NA 
HETATM   12  C   UNL     1     -12.193  10.294  70.893  1.00  0.00    -0.365 A  
HETATM   13  S   UNL     1     -13.797   8.911  72.296  1.00  0.00    -0.452 SA 
HETATM   14  C   UNL     1     -13.519  10.249  71.274  1.00  0.00    -0.188 A  
BRANCH  12  15
HETATM   15  C   UNL     1     -11.561  11.297  69.980  1.00  0.00    -0.321 C  
BRANCH  15  16
HETATM   16  S   UNL     1     -10.781  10.465  68.552  1.00  0.00    -0.238 SA 
BRANCH  16  17
HETATM   17  C   UNL     1     -11.169  11.652  67.218  1.00  0.00    -0.304 C  
BRANCH  17  18
HETATM   18  C   UNL     1     -10.390  12.961  67.273  1.00  0.00    -0.234 C  
BRANCH  18  19
HETATM   19  C   UNL     1     -11.270  14.187  67.032  1.00  0.00    -0.318 C  
HETATM   20  H2  UNL     1     -12.231  13.952  68.884  1.00  0.00     0.000 HD 
HETATM   21  N   UNL     1     -12.161  14.504  68.029  1.00  0.00    -0.574 NA 
HETATM   22  H1  UNL     1     -12.749  15.322  67.868  1.00  0.00     0.000 HD 
BRANCH  19  23
HETATM   23  N   UNL     1     -11.075  14.805  65.914  1.00  0.00    -0.335 N  
HETATM   24  H   UNL     1     -10.257  15.406  65.808  1.00  0.00     0.000 HD 
BRANCH  23  25
HETATM   25  S   UNL     1     -12.104  14.639  64.686  1.00  0.00    -0.416 S  
HETATM   26  O   UNL     1     -12.175  15.877  63.946  1.00  0.00    -0.785 OA 
HETATM   27  O   UNL     1     -13.295  13.974  65.158  1.00  0.00    -0.703 OA 
HETATM   28  N   UNL     1     -11.360  13.550  63.654  1.00  0.00    -0.564 N  
HETATM   29  H1  UNL     1     -12.012  13.445  62.877  1.00  0.00     0.000 HD 
HETATM   30  H2  UNL     1     -10.456  13.092  63.776  1.00  0.00     0.000 HD 
ENDBRANCH  23  25
ENDBRANCH  19  23
ENDBRANCH  18  19
ENDBRANCH  17  18
ENDBRANCH  16  17
ENDBRANCH  15  16
ENDBRANCH  12  15
ENDBRANCH   5  10
TORSDOF 8
ENDMDL
MODEL       57
REMARK 921   NORMALIZED FREE ENERGY PREDICTED BY IDOCK:   -5.28 KCAL/MOL
REMARK 922        TOTAL FREE ENERGY PREDICTED BY IDOCK:   -8.93 KCAL/MOL
REMARK 923 INTER-LIGAND FREE ENERGY PREDICTED BY IDOCK:   -8.32 KCAL/MOL
REMARK 924 INTRA-LIGAND FREE ENERGY PREDICTED BY IDOCK:   -0.61 KCAL/MOL
REMARK 927      BINDING AFFINITY PREDICTED BY RF-SCORE:    0.00 PKD
ROOT
HETATM    1  N   UNL     1     -13.666   9.755  72.516  1.00  0.00    -0.649 NA 
HETATM    2  C   UNL     1     -13.232  10.903  71.942  1.00  0.00    -0.403 C  
HETATM    3  H2  UNL     1     -13.329   8.819  72.291  1.00  0.00     0.000 HD 
HETATM    4  H1  UNL     1     -14.381   9.973  73.208  1.00  0.00     0.000 HD 
HETATM    5  N   UNL     1     -13.710  12.041  72.311  1.00  0.00    -0.412 NA 
HETATM    6  N   UNL     1     -12.280  10.613  71.020  1.00  0.00    -0.370 NA 
HETATM    7  H2  UNL     1     -11.943   9.677  70.794  1.00  0.00     0.000 HD 
HETATM    8  H1  UNL     1     -11.953  11.477  70.588  1.00  0.00     0.000 HD 
HETATM    9  H   UNL     1     -14.414  12.097  73.046  1.00  0.00     0.000 HD 
ENDROOT
BRANCH   5  10
HETATM   10  C   UNL     1     -13.257  13.165  71.699  1.00  0.00    -0.346 A  
HETATM   11  N   UNL     1     -12.786  13.305  70.469  1.00  0.00    -0.162 NA 
HETATM   12  C   UNL     1     -12.439  14.629  70.214  1.00  0.00    -0.346 A  
HETATM   13  S   UNL     1     -13.305  14.642  72.602  1.00  0.00    -0.504 SA 
HETATM   14  C   UNL     1     -12.634  15.486  71.279  1.00  0.00    -0.447 A  
BRANCH  12  15
HETATM   15  C   UNL     1     -11.898  14.991  68.867  1.00  0.00    -0.307 C  
BRANCH  15  16
HETATM   16  S   UNL     1     -11.660  13.494  67.846  1.00  0.00    -0.363 SA 
BRANCH  16  17
HETATM   17  C   UNL     1     -10.354  14.069  66.705  1.00  0.00    -0.278 C  
BRANCH  17  18
HETATM   18  C   UNL     1     -10.856  14.615  65.373  1.00  0.00    -0.365 C  
BRANCH  18  19
HETATM   19  C   UNL     1     -10.560  16.103  65.191  1.00  0.00    -0.343 C  
HETATM   20  H2  UNL     1     -12.081  16.304  63.757  1.00  0.00     0.000 HD 
HETATM   21  N   UNL     1     -11.343  16.773  64.282  1.00  0.00    -1.338 NA 
HETATM   22  H1  UNL     1     -11.145  17.767  64.159  1.00  0.00     0.000 HD 
BRANCH  19  23
HETATM   23  N   UNL     1      -9.606  16.578  65.921  1.00  0.00    -0.285 N  
HETATM   24  H   UNL     1      -8.788  16.001  66.117  1.00  0.00     0.000 HD 
BRANCH  23  25
HETATM   25  S   UNL     1      -9.691  18.069  66.527  1.00  0.00    -0.338 S  
HETATM   26  O   UNL     1     -10.306  18.948  65.561  1.00  0.00    -0.499 OA 
HETATM   27  O   UNL     1      -8.429  18.396  67.147  1.00  0.00    -0.246 OA 
HETATM   28  N   UNL     1     -10.792  17.953  67.784  1.00  0.00    -0.317 N  
HETATM   29  H1  UNL     1     -10.845  18.896  68.167  1.00  0.00     0.000 HD 
HETATM   30  H2  UNL     1     -11.296  17.123  68.096  1.00  0.00     0.000 HD 
ENDBRANCH  23  25
ENDBRANCH  19  23
ENDBRANCH  18  19
ENDBRANCH  17  18
ENDBRANCH  16  17
ENDBRANCH  15  16
ENDBRANCH  12  15
ENDBRANCH   5  10
TORSDOF 8
ENDMDL
MODEL       58
REMARK 921   NORMALIZED FREE ENERGY PREDICTED BY IDOCK:   -5.25 KCAL/MOL
REMARK 922        TOTAL FREE ENERGY PREDICTED BY IDOCK:   -8.89 KCAL/MOL
REMARK 923 INTER-LIGAND FREE ENERGY PREDICTED BY IDOCK:   -7.17 KCAL/MOL
REMARK 924 INTRA-LIGAND FREE ENERGY PREDICTED BY IDOCK:   -1.72 KCAL/MOL
REMARK 927      BINDING AFFINITY PREDICTED BY RF-SCORE:    0.00 PKD
ROOT
HETATM    1  N   UNL     1     -12.418  14.322  63.622  1.00  0.00    -1.083 NA 
HETATM    2  C   UNL     1     -12.017  14.476  64.907  1.00  0.00    -0.422 C  
HETATM    3  H2  UNL     1     -13.284  13.874  63.323  1.00  0.00     0.000 HD 
HETATM    4  H1  UNL     1     -11.717  14.724  63.000  1.00  0.00     0.000 HD 
HETATM    5  N   UNL     1     -10.910  15.074  65.181  1.00  0.00    -0.378 NA 
HETATM    6  N   UNL     1     -12.949  13.941  65.735  1.00  0.00    -0.524 NA 
HETATM    7  H2  UNL     1     -13.815  13.493  65.437  1.00  0.00     0.000 HD 
HETATM    8  H1  UNL     1     -12.648  14.057  66.703  1.00  0.00     0.000 HD 
HETATM    9  H   UNL     1     -10.322  15.450  64.436  1.00  0.00     0.000 HD 
ENDROOT
BRANCH   5  10
HETATM   10  C   UNL     1     -10.540  15.194  66.482  1.00  0.00    -0.304 A  
HETATM   11  N   UNL     1     -11.104  15.917  67.438  1.00  0.00    -0.262 NA 
HETATM   12  C   UNL     1     -10.433  15.755  68.647  1.00  0.00    -0.231 A  
HETATM   13  S   UNL     1      -9.170  14.278  67.012  1.00  0.00    -0.248 SA 
HETATM   14  C   UNL     1      -9.339  14.916  68.586  1.00  0.00    -0.194 A  
BRANCH  12  15
HETATM   15  C   UNL     1     -10.930  16.484  69.856  1.00  0.00    -0.270 C  
BRANCH  15  16
HETATM   16  S   UNL     1     -11.307  15.310  71.205  1.00  0.00    -0.341 SA 
BRANCH  16  17
HETATM   17  C   UNL     1     -12.535  14.236  70.383  1.00  0.00    -0.362 C  
BRANCH  17  18
HETATM   18  C   UNL     1     -12.447  12.759  70.748  1.00  0.00    -0.357 C  
BRANCH  18  19
HETATM   19  C   UNL     1     -11.756  11.920  69.673  1.00  0.00    -0.343 C  
HETATM   20  H2  UNL     1     -12.507  13.140  68.137  1.00  0.00     0.000 HD 
HETATM   21  N   UNL     1     -11.940  12.325  68.372  1.00  0.00    -0.336 NA 
HETATM   22  H1  UNL     1     -11.480  11.765  67.654  1.00  0.00     0.000 HD 
BRANCH  19  23
HETATM   23  N   UNL     1     -11.060  10.920  70.104  1.00  0.00    -0.455 N  
HETATM   24  H   UNL     1     -11.120  10.653  71.086  1.00  0.00     0.000 HD 
BRANCH  23  25
HETATM   25  S   UNL     1     -10.101  10.090  69.111  1.00  0.00    -0.223 S  
HETATM   26  O   UNL     1      -9.602   8.918  69.790  1.00  0.00    -0.164 OA 
HETATM   27  O   UNL     1      -9.211  11.009  68.440  1.00  0.00    -0.161 OA 
HETATM   28  N   UNL     1     -11.126   9.509  67.920  1.00  0.00    -0.515 N  
HETATM   29  H1  UNL     1     -10.518   8.984  67.292  1.00  0.00     0.000 HD 
HETATM   30  H2  UNL     1     -12.133   9.649  67.841  1.00  0.00     0.000 HD 
ENDBRANCH  23  25
ENDBRANCH  19  23
ENDBRANCH  18  19
ENDBRANCH  17  18
ENDBRANCH  16  17
ENDBRANCH  15  16
ENDBRANCH  12  15
ENDBRANCH   5  10
TORSDOF 8
ENDMDL
MODEL       59
REMARK 921   NORMALIZED FREE ENERGY PREDICTED BY IDOCK:   -5.25 KCAL/MOL
REMARK 922        TOTAL FREE ENERGY PREDICTED BY IDOCK:   -8.88 KCAL/MOL
REMARK 923 INTER-LIGAND FREE ENERGY PREDICTED BY IDOCK:   -7.63 KCAL/MOL
REMARK 924 INTRA-LIGAND FREE ENERGY PREDICTED BY IDOCK:   -1.24 KCAL/MOL
REMARK 927      BINDING AFFINITY PREDICTED BY RF-SCORE:    0.00 PKD
ROOT
HETATM    1  N   UNL     1     -13.093  11.694  62.842  1.00  0.00    -0.706 NA 
HETATM    2  C   UNL     1     -12.313  12.449  63.653  1.00  0.00    -0.548 C  
HETATM    3  H2  UNL     1     -12.756  11.107  62.079  1.00  0.00     0.000 HD 
HETATM    4  H1  UNL     1     -14.069  11.803  63.115  1.00  0.00     0.000 HD 
HETATM    5  N   UNL     1     -12.836  13.143  64.604  1.00  0.00    -0.720 NA 
HETATM    6  N   UNL     1     -11.013  12.303  63.290  1.00  0.00    -0.655 NA 
HETATM    7  H2  UNL     1     -10.677  11.717  62.527  1.00  0.00     0.000 HD 
HETATM    8  H1  UNL     1     -10.426  12.871  63.901  1.00  0.00     0.000 HD 
HETATM    9  H   UNL     1     -13.842  13.128  64.767  1.00  0.00     0.000 HD 
ENDROOT
BRANCH   5  10
HETATM   10  C   UNL     1     -12.018  13.897  65.384  1.00  0.00    -0.381 A  
HETATM   11  N   UNL     1     -11.246  14.914  65.032  1.00  0.00    -0.384 NA 
HETATM   12  C   UNL     1     -10.573  15.434  66.135  1.00  0.00    -0.316 A  
HETATM   13  S   UNL     1     -11.965  13.529  67.076  1.00  0.00    -0.374 SA 
HETATM   14  C   UNL     1     -10.831  14.779  67.323  1.00  0.00    -0.309 A  
BRANCH  12  15
HETATM   15  C   UNL     1      -9.658  16.602  65.941  1.00  0.00    -0.214 C  
BRANCH  15  16
HETATM   16  S   UNL     1      -8.018  16.262  66.671  1.00  0.00    -0.289 SA 
BRANCH  16  17
HETATM   17  C   UNL     1      -7.152  17.827  66.296  1.00  0.00    -0.294 C  
BRANCH  17  18
HETATM   18  C   UNL     1      -6.501  18.507  67.495  1.00  0.00    -0.196 C  
BRANCH  18  19
HETATM   19  C   UNL     1      -7.519  19.105  68.466  1.00  0.00    -0.325 C  
HETATM   20  H2  UNL     1      -6.331  18.614  70.126  1.00  0.00     0.000 HD 
HETATM   21  N   UNL     1      -7.200  19.039  69.801  1.00  0.00     0.090 NA 
HETATM   22  H1  UNL     1      -7.879  19.437  70.449  1.00  0.00     0.000 HD 
BRANCH  19  23
HETATM   23  N   UNL     1      -8.573  19.620  67.925  1.00  0.00    -0.313 N  
HETATM   24  H   UNL     1      -8.470  20.280  67.154  1.00  0.00     0.000 HD 
BRANCH  23  25
HETATM   25  S   UNL     1     -10.046  19.235  68.451  1.00  0.00    -0.428 S  
HETATM   26  O   UNL     1     -10.016  17.925  69.056  1.00  0.00    -0.341 OA 
HETATM   27  O   UNL     1     -11.012  19.573  67.432  1.00  0.00    -0.477 OA 
HETATM   28  N   UNL     1     -10.335  20.298  69.713  1.00  0.00    -0.452 N  
HETATM   29  H1  UNL     1     -11.268  20.055  70.046  1.00  0.00     0.000 HD 
HETATM   30  H2  UNL     1      -9.717  21.027  70.069  1.00  0.00     0.000 HD 
ENDBRANCH  23  25
ENDBRANCH  19  23
ENDBRANCH  18  19
ENDBRANCH  17  18
ENDBRANCH  16  17
ENDBRANCH  15  16
ENDBRANCH  12  15
ENDBRANCH   5  10
TORSDOF 8
ENDMDL
MODEL       60
REMARK 921   NORMALIZED FREE ENERGY PREDICTED BY IDOCK:   -5.24 KCAL/MOL
REMARK 922        TOTAL FREE ENERGY PREDICTED BY IDOCK:   -8.87 KCAL/MOL
REMARK 923 INTER-LIGAND FREE ENERGY PREDICTED BY IDOCK:   -7.12 KCAL/MOL
REMARK 924 INTRA-LIGAND FREE ENERGY PREDICTED BY IDOCK:   -1.76 KCAL/MOL
REMARK 927      BINDING AFFINITY PREDICTED BY RF-SCORE:    0.00 PKD
ROOT
HETATM    1  N   UNL     1     -13.519  15.554  72.101  1.00  0.00    -0.457 NA 
HETATM    2  C   UNL     1     -12.500  15.470  71.212  1.00  0.00    -0.425 C  
HETATM    3  H2  UNL     1     -13.464  15.300  73.087  1.00  0.00     0.000 HD 
HETATM    4  H1  UNL     1     -14.349  15.913  71.630  1.00  0.00     0.000 HD 
HETATM    5  N   UNL     1     -12.667  15.835  69.988  1.00  0.00    -0.571 NA 
HETATM    6  N   UNL     1     -11.395  14.993  71.839  1.00  0.00    -0.540 NA 
HETATM    7  H2  UNL     1     -11.340  14.739  72.825  1.00  0.00     0.000 HD 
HETATM    8  H1  UNL     1     -10.627  14.930  71.170  1.00  0.00     0.000 HD 
HETATM    9  H   UNL     1     -13.564  16.202  69.671  1.00  0.00     0.000 HD 
ENDROOT
BRANCH   5  10
HETATM   10  C   UNL     1     -11.622  15.721  69.128  1.00  0.00    -0.392 A  
HETATM   11  N   UNL     1     -11.232  14.660  68.437  1.00  0.00    -0.262 NA 
HETATM   12  C   UNL     1     -10.122  14.958  67.651  1.00  0.00    -0.227 A  
HETATM   13  S   UNL     1     -10.659  17.133  68.847  1.00  0.00    -0.264 SA 
HETATM   14  C   UNL     1      -9.665  16.254  67.774  1.00  0.00    -0.233 A  
BRANCH  12  15
HETATM   15  C   UNL     1      -9.540  13.886  66.783  1.00  0.00    -0.283 C  
BRANCH  15  16
HETATM   16  S   UNL     1     -10.617  13.569  65.341  1.00  0.00    -0.321 SA 
BRANCH  16  17
HETATM   17  C   UNL     1     -11.154  11.859  65.692  1.00  0.00    -0.310 C  
BRANCH  17  18
HETATM   18  C   UNL     1     -10.250  11.081  66.642  1.00  0.00    -0.280 C  
BRANCH  18  19
HETATM   19  C   UNL     1     -10.991  10.557  67.872  1.00  0.00    -0.295 C  
HETATM   20  H2  UNL     1     -10.613   8.561  67.338  1.00  0.00     0.000 HD 
HETATM   21  N   UNL     1     -11.045   9.191  68.015  1.00  0.00    -0.489 NA 
HETATM   22  H1  UNL     1     -11.539   8.840  68.835  1.00  0.00     0.000 HD 
BRANCH  19  23
HETATM   23  N   UNL     1     -11.483  11.458  68.656  1.00  0.00    -0.267 N  
HETATM   24  H   UNL     1     -11.642  12.401  68.300  1.00  0.00     0.000 HD 
BRANCH  23  25
HETATM   25  S   UNL     1     -11.850  11.114  70.186  1.00  0.00    -0.386 S  
HETATM   26  O   UNL     1     -12.214  12.326  70.880  1.00  0.00    -0.353 OA 
HETATM   27  O   UNL     1     -10.854  10.213  70.716  1.00  0.00    -0.307 OA 
HETATM   28  N   UNL     1     -13.261  10.218  70.092  1.00  0.00    -0.455 N  
HETATM   29  H1  UNL     1     -13.493  10.000  71.061  1.00  0.00     0.000 HD 
HETATM   30  H2  UNL     1     -13.775   9.949  69.252  1.00  0.00     0.000 HD 
ENDBRANCH  23  25
ENDBRANCH  19  23
ENDBRANCH  18  19
ENDBRANCH  17  18
ENDBRANCH  16  17
ENDBRANCH  15  16
ENDBRANCH  12  15
ENDBRANCH   5  10
TORSDOF 8
ENDMDL
MODEL       61
REMARK 921   NORMALIZED FREE ENERGY PREDICTED BY IDOCK:   -5.24 KCAL/MOL
REMARK 922        TOTAL FREE ENERGY PREDICTED BY IDOCK:   -8.86 KCAL/MOL
REMARK 923 INTER-LIGAND FREE ENERGY PREDICTED BY IDOCK:   -6.90 KCAL/MOL
REMARK 924 INTRA-LIGAND FREE ENERGY PREDICTED BY IDOCK:   -1.96 KCAL/MOL
REMARK 927      BINDING AFFINITY PREDICTED BY RF-SCORE:    0.00 PKD
ROOT
HETATM    1  N   UNL     1     -14.405   8.824  73.261  1.00  0.00    -1.130 NA 
HETATM    2  C   UNL     1     -13.840   9.450  72.200  1.00  0.00    -0.365 C  
HETATM    3  H2  UNL     1     -14.867   7.915  73.231  1.00  0.00     0.000 HD 
HETATM    4  H1  UNL     1     -14.294   9.402  74.093  1.00  0.00     0.000 HD 
HETATM    5  N   UNL     1     -13.262  10.593  72.346  1.00  0.00    -0.500 NA 
HETATM    6  N   UNL     1     -13.987   8.681  71.093  1.00  0.00    -0.601 NA 
HETATM    7  H2  UNL     1     -14.450   7.772  71.063  1.00  0.00     0.000 HD 
HETATM    8  H1  UNL     1     -13.562   9.152  70.294  1.00  0.00     0.000 HD 
HETATM    9  H   UNL     1     -13.211  11.038  73.262  1.00  0.00     0.000 HD 
ENDROOT
BRANCH   5  10
HETATM   10  C   UNL     1     -12.722  11.191  71.253  1.00  0.00    -0.426 A  
HETATM   11  N   UNL     1     -12.222  10.628  70.164  1.00  0.00    -0.316 NA 
HETATM   12  C   UNL     1     -11.781  11.592  69.261  1.00  0.00    -0.330 A  
HETATM   13  S   UNL     1     -12.683  12.923  71.228  1.00  0.00    -0.183 SA 
HETATM   14  C   UNL     1     -11.934  12.893  69.695  1.00  0.00    -0.292 A  
BRANCH  12  15
HETATM   15  C   UNL     1     -11.194  11.150  67.958  1.00  0.00    -0.296 C  
BRANCH  15  16
HETATM   16  S   UNL     1      -9.553  10.389  68.216  1.00  0.00    -0.148 SA 
BRANCH  16  17
HETATM   17  C   UNL     1      -9.957   8.625  67.966  1.00  0.00    -0.182 C  
BRANCH  17  18
HETATM   18  C   UNL     1      -9.344   7.672  68.985  1.00  0.00    -0.146 C  
BRANCH  18  19
HETATM   19  C   UNL     1     -10.322   7.274  70.091  1.00  0.00    -0.212 C  
HETATM   20  H2  UNL     1     -11.973   7.900  68.954  1.00  0.00     0.000 HD 
HETATM   21  N   UNL     1     -11.655   7.494  69.834  1.00  0.00    -0.478 NA 
HETATM   22  H1  UNL     1     -12.308   7.229  70.572  1.00  0.00     0.000 HD 
BRANCH  19  23
HETATM   23  N   UNL     1      -9.791   6.762  71.151  1.00  0.00    -0.178 N  
HETATM   24  H   UNL     1      -9.150   5.974  71.062  1.00  0.00     0.000 HD 
BRANCH  23  25
HETATM   25  S   UNL     1     -10.127   7.352  72.613  1.00  0.00    -0.229 S  
HETATM   26  O   UNL     1     -10.182   8.793  72.550  1.00  0.00    -0.251 OA 
HETATM   27  O   UNL     1      -9.314   6.670  73.592  1.00  0.00    -0.137 OA 
HETATM   28  N   UNL     1     -11.699   6.862  72.915  1.00  0.00    -0.502 N  
HETATM   29  H1  UNL     1     -11.912   7.235  73.840  1.00  0.00     0.000 HD 
HETATM   30  H2  UNL     1     -12.309   6.312  72.309  1.00  0.00     0.000 HD 
ENDBRANCH  23  25
ENDBRANCH  19  23
ENDBRANCH  18  19
ENDBRANCH  17  18
ENDBRANCH  16  17
ENDBRANCH  15  16
ENDBRANCH  12  15
ENDBRANCH   5  10
TORSDOF 8
ENDMDL
MODEL       62
REMARK 921   NORMALIZED FREE ENERGY PREDICTED BY IDOCK:   -5.22 KCAL/MOL
REMARK 922        TOTAL FREE ENERGY PREDICTED BY IDOCK:   -8.84 KCAL/MOL
REMARK 923 INTER-LIGAND FREE ENERGY PREDICTED BY IDOCK:   -7.67 KCAL/MOL
REMARK 924 INTRA-LIGAND FREE ENERGY PREDICTED BY IDOCK:   -1.17 KCAL/MOL
REMARK 927      BINDING AFFINITY PREDICTED BY RF-SCORE:    0.00 PKD
ROOT
HETATM    1  N   UNL     1      -7.756  20.605  66.309  1.00  0.00    -0.518 NA 
HETATM    2  C   UNL     1      -8.328  19.382  66.204  1.00  0.00    -0.300 C  
HETATM    3  H2  UNL     1      -6.819  20.848  65.989  1.00  0.00     0.000 HD 
HETATM    4  H1  UNL     1      -8.410  21.246  66.758  1.00  0.00     0.000 HD 
HETATM    5  N   UNL     1      -9.529  19.182  66.625  1.00  0.00    -0.329 NA 
HETATM    6  N   UNL     1      -7.459  18.528  65.607  1.00  0.00    -0.522 NA 
HETATM    7  H2  UNL     1      -6.521  18.771  65.287  1.00  0.00     0.000 HD 
HETATM    8  H1  UNL     1      -7.889  17.607  65.528  1.00  0.00     0.000 HD 
HETATM    9  H   UNL     1     -10.072  19.943  67.034  1.00  0.00     0.000 HD 
ENDROOT
BRANCH   5  10
HETATM   10  C   UNL     1     -10.058  17.936  66.513  1.00  0.00    -0.370 A  
HETATM   11  N   UNL     1     -10.452  17.301  65.420  1.00  0.00    -0.646 NA 
HETATM   12  C   UNL     1     -10.923  16.026  65.726  1.00  0.00    -0.140 A  
HETATM   13  S   UNL     1     -10.237  17.010  67.966  1.00  0.00    -0.336 SA 
HETATM   14  C   UNL     1     -10.900  15.716  67.071  1.00  0.00    -0.294 A  
BRANCH  12  15
HETATM   15  C   UNL     1     -11.403  15.144  64.617  1.00  0.00    -0.356 C  
BRANCH  15  16
HETATM   16  S   UNL     1     -12.518  13.848  65.262  1.00  0.00    -0.475 SA 
BRANCH  16  17
HETATM   17  C   UNL     1     -12.076  12.451  64.171  1.00  0.00    -0.453 C  
BRANCH  17  18
HETATM   18  C   UNL     1     -10.591  12.113  64.126  1.00  0.00    -0.403 C  
BRANCH  18  19
HETATM   19  C   UNL     1     -10.008  11.808  65.506  1.00  0.00    -0.242 C  
HETATM   20  H2  UNL     1      -8.856  13.563  65.487  1.00  0.00     0.000 HD 
HETATM   21  N   UNL     1      -9.115  12.725  66.007  1.00  0.00    -0.436 NA 
HETATM   22  H1  UNL     1      -8.726  12.521  66.928  1.00  0.00     0.000 HD 
BRANCH  19  23
HETATM   23  N   UNL     1     -10.426  10.719  66.062  1.00  0.00    -0.236 N  
HETATM   24  H   UNL     1     -10.519   9.872  65.501  1.00  0.00     0.000 HD 
BRANCH  23  25
HETATM   25  S   UNL     1     -10.802  10.681  67.628  1.00  0.00    -0.310 S  
HETATM   26  O   UNL     1     -12.112  11.253  67.824  1.00  0.00    -0.631 OA 
HETATM   27  O   UNL     1      -9.663  11.125  68.396  1.00  0.00    -0.177 OA 
HETATM   28  N   UNL     1     -10.974   9.053  67.982  1.00  0.00    -0.492 N  
HETATM   29  H1  UNL     1     -11.212   9.028  68.973  1.00  0.00     0.000 HD 
HETATM   30  H2  UNL     1     -10.865   8.261  67.347  1.00  0.00     0.000 HD 
ENDBRANCH  23  25
ENDBRANCH  19  23
ENDBRANCH  18  19
ENDBRANCH  17  18
ENDBRANCH  16  17
ENDBRANCH  15  16
ENDBRANCH  12  15
ENDBRANCH   5  10
TORSDOF 8
ENDMDL
MODEL       63
REMARK 921   NORMALIZED FREE ENERGY PREDICTED BY IDOCK:   -5.22 KCAL/MOL
REMARK 922        TOTAL FREE ENERGY PREDICTED BY IDOCK:   -8.83 KCAL/MOL
REMARK 923 INTER-LIGAND FREE ENERGY PREDICTED BY IDOCK:   -7.88 KCAL/MOL
REMARK 924 INTRA-LIGAND FREE ENERGY PREDICTED BY IDOCK:   -0.95 KCAL/MOL
REMARK 927      BINDING AFFINITY PREDICTED BY RF-SCORE:    0.00 PKD
ROOT
HETATM    1  N   UNL     1      -5.875  20.594  64.920  1.00  0.00    -0.221 NA 
HETATM    2  C   UNL     1      -6.823  19.894  65.589  1.00  0.00    -0.289 C  
HETATM    3  H2  UNL     1      -4.873  20.405  64.947  1.00  0.00     0.000 HD 
HETATM    4  H1  UNL     1      -6.320  21.338  64.384  1.00  0.00     0.000 HD 
HETATM    5  N   UNL     1      -8.069  20.203  65.473  1.00  0.00    -0.479 NA 
HETATM    6  N   UNL     1      -6.231  18.903  66.302  1.00  0.00    -0.178 NA 
HETATM    7  H2  UNL     1      -5.230  18.714  66.330  1.00  0.00     0.000 HD 
HETATM    8  H1  UNL     1      -6.945  18.376  66.805  1.00  0.00     0.000 HD 
HETATM    9  H   UNL     1      -8.361  20.971  64.869  1.00  0.00     0.000 HD 
ENDROOT
BRANCH   5  10
HETATM   10  C   UNL     1      -8.984  19.484  66.173  1.00  0.00    -0.310 A  
HETATM   11  N   UNL     1      -9.246  18.187  66.102  1.00  0.00    -0.509 NA 
HETATM   12  C   UNL     1     -10.248  17.832  67.001  1.00  0.00    -0.346 A  
HETATM   13  S   UNL     1      -9.941  20.330  67.342  1.00  0.00    -0.404 SA 
HETATM   14  C   UNL     1     -10.755  18.883  67.738  1.00  0.00    -0.352 A  
BRANCH  12  15
HETATM   15  C   UNL     1     -10.677  16.400  67.080  1.00  0.00    -0.217 C  
BRANCH  15  16
HETATM   16  S   UNL     1     -10.939  15.902  68.818  1.00  0.00    -0.323 SA 
BRANCH  16  17
HETATM   17  C   UNL     1     -11.114  14.093  68.627  1.00  0.00    -0.262 C  
BRANCH  17  18
HETATM   18  C   UNL     1     -10.325  13.488  67.472  1.00  0.00    -0.237 C  
BRANCH  18  19
HETATM   19  C   UNL     1     -11.212  12.752  66.467  1.00  0.00    -0.307 C  
HETATM   20  H2  UNL     1     -11.664  11.247  67.860  1.00  0.00     0.000 HD 
HETATM   21  N   UNL     1     -11.806  11.595  66.912  1.00  0.00    -0.547 NA 
HETATM   22  H1  UNL     1     -12.398  11.103  66.242  1.00  0.00     0.000 HD 
BRANCH  19  23
HETATM   23  N   UNL     1     -11.316  13.303  65.304  1.00  0.00    -0.292 N  
HETATM   24  H   UNL     1     -10.882  14.210  65.137  1.00  0.00     0.000 HD 
BRANCH  23  25
HETATM   25  S   UNL     1     -12.123  12.576  64.113  1.00  0.00    -0.484 S  
HETATM   26  O   UNL     1     -13.446  12.225  64.571  1.00  0.00    -0.686 OA 
HETATM   27  O   UNL     1     -11.260  11.604  63.486  1.00  0.00    -0.410 OA 
HETATM   28  N   UNL     1     -12.356  13.776  62.967  1.00  0.00    -1.030 N  
HETATM   29  H1  UNL     1     -12.866  13.316  62.214  1.00  0.00     0.000 HD 
HETATM   30  H2  UNL     1     -12.054  14.749  63.013  1.00  0.00     0.000 HD 
ENDBRANCH  23  25
ENDBRANCH  19  23
ENDBRANCH  18  19
ENDBRANCH  17  18
ENDBRANCH  16  17
ENDBRANCH  15  16
ENDBRANCH  12  15
ENDBRANCH   5  10
TORSDOF 8
ENDMDL
MODEL       64
REMARK 921   NORMALIZED FREE ENERGY PREDICTED BY IDOCK:   -5.21 KCAL/MOL
REMARK 922        TOTAL FREE ENERGY PREDICTED BY IDOCK:   -8.83 KCAL/MOL
REMARK 923 INTER-LIGAND FREE ENERGY PREDICTED BY IDOCK:   -7.78 KCAL/MOL
REMARK 924 INTRA-LIGAND FREE ENERGY PREDICTED BY IDOCK:   -1.05 KCAL/MOL
REMARK 927      BINDING AFFINITY PREDICTED BY RF-SCORE:    0.00 PKD
ROOT
HETATM    1  N   UNL     1     -14.277   8.842  73.220  1.00  0.00    -1.237 NA 
HETATM    2  C   UNL     1     -13.621   9.112  72.065  1.00  0.00    -0.459 C  
HETATM    3  H2  UNL     1     -15.141   8.307  73.296  1.00  0.00     0.000 HD 
HETATM    4  H1  UNL     1     -13.769   9.257  74.000  1.00  0.00     0.000 HD 
HETATM    5  N   UNL     1     -12.522   9.783  72.077  1.00  0.00    -0.348 NA 
HETATM    6  N   UNL     1     -14.296   8.559  71.025  1.00  0.00    -0.631 NA 
HETATM    7  H2  UNL     1     -15.161   8.024  71.102  1.00  0.00     0.000 HD 
HETATM    8  H1  UNL     1     -13.803   8.762  70.156  1.00  0.00     0.000 HD 
HETATM    9  H   UNL     1     -12.123  10.114  72.955  1.00  0.00     0.000 HD 
ENDROOT
BRANCH   5  10
HETATM   10  C   UNL     1     -11.906  10.042  70.895  1.00  0.00    -0.368 A  
HETATM   11  N   UNL     1     -12.360  10.732  69.859  1.00  0.00    -0.316 NA 
HETATM   12  C   UNL     1     -11.412  10.784  68.840  1.00  0.00    -0.293 A  
HETATM   13  S   UNL     1     -10.300   9.430  70.679  1.00  0.00    -0.303 SA 
HETATM   14  C   UNL     1     -10.242  10.103  69.112  1.00  0.00    -0.214 A  
BRANCH  12  15
HETATM   15  C   UNL     1     -11.736  11.533  67.586  1.00  0.00    -0.208 C  
BRANCH  15  16
HETATM   16  S   UNL     1     -10.554  12.903  67.332  1.00  0.00    -0.234 SA 
BRANCH  16  17
HETATM   17  C   UNL     1     -11.688  14.336  67.358  1.00  0.00    -0.394 C  
BRANCH  17  18
HETATM   18  C   UNL     1     -11.491  15.293  68.527  1.00  0.00    -0.355 C  
BRANCH  18  19
HETATM   19  C   UNL     1     -10.395  16.328  68.271  1.00  0.00    -0.272 C  
HETATM   20  H2  UNL     1      -9.200  15.550  69.813  1.00  0.00     0.000 HD 
HETATM   21  N   UNL     1      -9.287  16.255  69.080  1.00  0.00    -0.251 NA 
HETATM   22  H1  UNL     1      -8.556  16.946  68.910  1.00  0.00     0.000 HD 
BRANCH  19  23
HETATM   23  N   UNL     1     -10.624  17.158  67.308  1.00  0.00    -0.306 N  
HETATM   24  H   UNL     1     -11.212  16.872  66.525  1.00  0.00     0.000 HD 
BRANCH  23  25
HETATM   25  S   UNL     1      -9.993  18.641  67.326  1.00  0.00    -0.348 S  
HETATM   26  O   UNL     1     -10.771  19.507  66.473  1.00  0.00    -0.449 OA 
HETATM   27  O   UNL     1      -8.559  18.542  67.193  1.00  0.00    -0.260 OA 
HETATM   28  N   UNL     1     -10.263  19.196  68.883  1.00  0.00    -0.534 N  
HETATM   29  H1  UNL     1      -9.863  20.134  68.895  1.00  0.00     0.000 HD 
HETATM   30  H2  UNL     1     -10.724  18.705  69.650  1.00  0.00     0.000 HD 
ENDBRANCH  23  25
ENDBRANCH  19  23
ENDBRANCH  18  19
ENDBRANCH  17  18
ENDBRANCH  16  17
ENDBRANCH  15  16
ENDBRANCH  12  15
ENDBRANCH   5  10
TORSDOF 8
ENDMDL
MODEL       65
REMARK 921   NORMALIZED FREE ENERGY PREDICTED BY IDOCK:   -5.21 KCAL/MOL
REMARK 922        TOTAL FREE ENERGY PREDICTED BY IDOCK:   -8.83 KCAL/MOL
REMARK 923 INTER-LIGAND FREE ENERGY PREDICTED BY IDOCK:   -7.11 KCAL/MOL
REMARK 924 INTRA-LIGAND FREE ENERGY PREDICTED BY IDOCK:   -1.72 KCAL/MOL
REMARK 927      BINDING AFFINITY PREDICTED BY RF-SCORE:    0.00 PKD
ROOT
HETATM    1  N   UNL     1     -12.354  13.900  63.191  1.00  0.00    -1.106 NA 
HETATM    2  C   UNL     1     -12.351  13.373  64.439  1.00  0.00    -0.341 C  
HETATM    3  H2  UNL     1     -12.882  13.535  62.398  1.00  0.00     0.000 HD 
HETATM    4  H1  UNL     1     -11.748  14.719  63.169  1.00  0.00     0.000 HD 
HETATM    5  N   UNL     1     -11.663  13.922  65.380  1.00  0.00    -0.328 NA 
HETATM    6  N   UNL     1     -13.158  12.283  64.469  1.00  0.00    -0.754 NA 
HETATM    7  H2  UNL     1     -13.685  11.918  63.676  1.00  0.00     0.000 HD 
HETATM    8  H1  UNL     1     -13.156  11.886  65.409  1.00  0.00     0.000 HD 
HETATM    9  H   UNL     1     -11.118  14.766  65.203  1.00  0.00     0.000 HD 
ENDROOT
BRANCH   5  10
HETATM   10  C   UNL     1     -11.677  13.352  66.613  1.00  0.00    -0.385 A  
HETATM   11  N   UNL     1     -11.567  12.071  66.933  1.00  0.00    -0.511 NA 
HETATM   12  C   UNL     1     -11.611  11.897  68.314  1.00  0.00    -0.327 A  
HETATM   13  S   UNL     1     -11.833  14.405  67.979  1.00  0.00    -0.296 SA 
HETATM   14  C   UNL     1     -11.779  13.064  69.032  1.00  0.00    -0.329 A  
BRANCH  12  15
HETATM   15  C   UNL     1     -11.489  10.515  68.875  1.00  0.00    -0.226 C  
BRANCH  15  16
HETATM   16  S   UNL     1      -9.793  10.219  69.489  1.00  0.00    -0.189 SA 
BRANCH  16  17
HETATM   17  C   UNL     1      -9.485   8.543  68.831  1.00  0.00    -0.147 C  
BRANCH  17  18
HETATM   18  C   UNL     1     -10.475   8.074  67.772  1.00  0.00    -0.280 C  
BRANCH  18  19
HETATM   19  C   UNL     1      -9.951   8.251  66.347  1.00  0.00    -0.194 C  
HETATM   20  H2  UNL     1      -9.248   6.273  66.283  1.00  0.00     0.000 HD 
HETATM   21  N   UNL     1      -9.344   7.156  65.780  1.00  0.00    -0.383 NA 
HETATM   22  H1  UNL     1      -8.993   7.274  64.829  1.00  0.00     0.000 HD 
BRANCH  19  23
HETATM   23  N   UNL     1     -10.144   9.415  65.820  1.00  0.00    -0.353 N  
HETATM   24  H   UNL     1     -11.027   9.899  65.980  1.00  0.00     0.000 HD 
BRANCH  23  25
HETATM   25  S   UNL     1      -9.008  10.112  64.914  1.00  0.00    -0.217 S  
HETATM   26  O   UNL     1      -7.707   9.832  65.472  1.00  0.00    -0.112 OA 
HETATM   27  O   UNL     1      -9.420  11.459  64.600  1.00  0.00    -0.218 OA 
HETATM   28  N   UNL     1      -9.055   9.278  63.462  1.00  0.00    -0.414 N  
HETATM   29  H1  UNL     1      -8.337   9.719  62.889  1.00  0.00     0.000 HD 
HETATM   30  H2  UNL     1      -9.667   8.502  63.207  1.00  0.00     0.000 HD 
ENDBRANCH  23  25
ENDBRANCH  19  23
ENDBRANCH  18  19
ENDBRANCH  17  18
ENDBRANCH  16  17
ENDBRANCH  15  16
ENDBRANCH  12  15
ENDBRANCH   5  10
TORSDOF 8
ENDMDL
MODEL       66
REMARK 921   NORMALIZED FREE ENERGY PREDICTED BY IDOCK:   -5.21 KCAL/MOL
REMARK 922        TOTAL FREE ENERGY PREDICTED BY IDOCK:   -8.82 KCAL/MOL
REMARK 923 INTER-LIGAND FREE ENERGY PREDICTED BY IDOCK:   -6.94 KCAL/MOL
REMARK 924 INTRA-LIGAND FREE ENERGY PREDICTED BY IDOCK:   -1.88 KCAL/MOL
REMARK 927      BINDING AFFINITY PREDICTED BY RF-SCORE:    0.00 PKD
ROOT
HETATM    1  N   UNL     1      -9.237   9.361  63.655  1.00  0.00    -0.401 NA 
HETATM    2  C   UNL     1      -9.834  10.495  64.095  1.00  0.00    -0.337 C  
HETATM    3  H2  UNL     1      -9.001   8.556  64.234  1.00  0.00     0.000 HD 
HETATM    4  H1  UNL     1      -9.063   9.438  62.653  1.00  0.00     0.000 HD 
HETATM    5  N   UNL     1     -10.108  11.451  63.276  1.00  0.00    -0.458 NA 
HETATM    6  N   UNL     1     -10.067  10.392  65.427  1.00  0.00    -0.290 NA 
HETATM    7  H2  UNL     1      -9.831   9.587  66.007  1.00  0.00     0.000 HD 
HETATM    8  H1  UNL     1     -10.517  11.246  65.759  1.00  0.00     0.000 HD 
HETATM    9  H   UNL     1      -9.890  11.365  62.283  1.00  0.00     0.000 HD 
ENDROOT
BRANCH   5  10
HETATM   10  C   UNL     1     -10.694  12.575  63.762  1.00  0.00    -0.445 A  
HETATM   11  N   UNL     1     -10.135  13.582  64.416  1.00  0.00    -0.275 NA 
HETATM   12  C   UNL     1     -11.078  14.558  64.729  1.00  0.00    -0.391 A  
HETATM   13  S   UNL     1     -12.394  12.772  63.493  1.00  0.00    -0.400 SA 
HETATM   14  C   UNL     1     -12.364  14.263  64.322  1.00  0.00    -0.377 A  
BRANCH  12  15
HETATM   15  C   UNL     1     -10.635  15.787  65.460  1.00  0.00    -0.406 C  
BRANCH  15  16
HETATM   16  S   UNL     1      -9.036  15.496  66.297  1.00  0.00    -0.328 SA 
BRANCH  16  17
HETATM   17  C   UNL     1      -9.547  15.614  68.047  1.00  0.00    -0.203 C  
BRANCH  17  18
HETATM   18  C   UNL     1     -11.053  15.626  68.280  1.00  0.00    -0.336 C  
BRANCH  18  19
HETATM   19  C   UNL     1     -11.537  14.432  69.104  1.00  0.00    -0.307 C  
HETATM   20  H2  UNL     1     -13.421  15.310  69.402  1.00  0.00     0.000 HD 
HETATM   21  N   UNL     1     -12.822  14.505  69.585  1.00  0.00    -0.491 NA 
HETATM   22  H1  UNL     1     -13.145  13.709  70.135  1.00  0.00     0.000 HD 
BRANCH  19  23
HETATM   23  N   UNL     1     -10.685  13.473  69.253  1.00  0.00    -0.441 N  
HETATM   24  H   UNL     1      -9.773  13.670  69.666  1.00  0.00     0.000 HD 
BRANCH  23  25
HETATM   25  S   UNL     1     -11.042  11.970  68.797  1.00  0.00    -0.266 S  
HETATM   26  O   UNL     1     -12.003  11.403  69.713  1.00  0.00    -0.306 OA 
HETATM   27  O   UNL     1      -9.820  11.277  68.463  1.00  0.00    -0.186 OA 
HETATM   28  N   UNL     1     -11.865  12.152  67.350  1.00  0.00    -0.298 N  
HETATM   29  H1  UNL     1     -12.091  11.200  67.061  1.00  0.00     0.000 HD 
HETATM   30  H2  UNL     1     -12.090  13.021  66.865  1.00  0.00     0.000 HD 
ENDBRANCH  23  25
ENDBRANCH  19  23
ENDBRANCH  18  19
ENDBRANCH  17  18
ENDBRANCH  16  17
ENDBRANCH  15  16
ENDBRANCH  12  15
ENDBRANCH   5  10
TORSDOF 8
ENDMDL
MODEL       67
REMARK 921   NORMALIZED FREE ENERGY PREDICTED BY IDOCK:   -5.21 KCAL/MOL
REMARK 922        TOTAL FREE ENERGY PREDICTED BY IDOCK:   -8.82 KCAL/MOL
REMARK 923 INTER-LIGAND FREE ENERGY PREDICTED BY IDOCK:   -7.33 KCAL/MOL
REMARK 924 INTRA-LIGAND FREE ENERGY PREDICTED BY IDOCK:   -1.49 KCAL/MOL
REMARK 927      BINDING AFFINITY PREDICTED BY RF-SCORE:    0.00 PKD
ROOT
HETATM    1  N   UNL     1     -12.349  14.170  63.209  1.00  0.00    -1.133 NA 
HETATM    2  C   UNL     1     -11.872  13.327  64.156  1.00  0.00    -0.443 C  
HETATM    3  H2  UNL     1     -13.327  14.250  62.928  1.00  0.00     0.000 HD 
HETATM    4  H1  UNL     1     -11.579  14.713  62.821  1.00  0.00     0.000 HD 
HETATM    5  N   UNL     1     -10.618  13.316  64.451  1.00  0.00    -0.416 NA 
HETATM    6  N   UNL     1     -12.898  12.605  64.673  1.00  0.00    -0.792 NA 
HETATM    7  H2  UNL     1     -13.875  12.684  64.392  1.00  0.00     0.000 HD 
HETATM    8  H1  UNL     1     -12.538  11.970  65.386  1.00  0.00     0.000 HD 
HETATM    9  H   UNL     1      -9.967  13.947  63.984  1.00  0.00     0.000 HD 
ENDROOT
BRANCH   5  10
HETATM   10  C   UNL     1     -10.181  12.445  65.397  1.00  0.00    -0.278 A  
HETATM   11  N   UNL     1     -10.046  11.130  65.311  1.00  0.00    -0.260 NA 
HETATM   12  C   UNL     1      -9.548  10.602  66.499  1.00  0.00    -0.180 A  
HETATM   13  S   UNL     1      -9.700  13.101  66.926  1.00  0.00    -0.249 SA 
HETATM   14  C   UNL     1      -9.328  11.535  67.492  1.00  0.00    -0.166 A  
BRANCH  12  15
HETATM   15  C   UNL     1      -9.313   9.127  66.594  1.00  0.00    -0.177 C  
BRANCH  15  16
HETATM   16  S   UNL     1      -7.791   8.777  67.543  1.00  0.00    -0.102 SA 
BRANCH  16  17
HETATM   17  C   UNL     1      -8.494   7.949  69.013  1.00  0.00    -0.131 C  
BRANCH  17  18
HETATM   18  C   UNL     1      -8.943   8.886  70.127  1.00  0.00    -0.183 C  
BRANCH  18  19
HETATM   19  C   UNL     1     -10.449   9.147  70.114  1.00  0.00    -0.218 C  
HETATM   20  H2  UNL     1     -10.845   7.242  69.324  1.00  0.00     0.000 HD 
HETATM   21  N   UNL     1     -11.240   8.126  69.646  1.00  0.00    -0.449 NA 
HETATM   22  H1  UNL     1     -12.246   8.299  69.636  1.00  0.00     0.000 HD 
BRANCH  19  23
HETATM   23  N   UNL     1     -10.822  10.302  70.557  1.00  0.00    -0.408 N  
HETATM   24  H   UNL     1     -10.207  10.822  71.184  1.00  0.00     0.000 HD 
BRANCH  23  25
HETATM   25  S   UNL     1     -12.242  10.933  70.133  1.00  0.00    -0.343 S  
HETATM   26  O   UNL     1     -12.403  10.840  68.701  1.00  0.00    -0.430 OA 
HETATM   27  O   UNL     1     -12.430  12.181  70.833  1.00  0.00    -0.368 OA 
HETATM   28  N   UNL     1     -13.379   9.883  70.774  1.00  0.00    -0.605 N  
HETATM   29  H1  UNL     1     -14.278  10.282  70.505  1.00  0.00     0.000 HD 
HETATM   30  H2  UNL     1     -13.210   9.033  71.313  1.00  0.00     0.000 HD 
ENDBRANCH  23  25
ENDBRANCH  19  23
ENDBRANCH  18  19
ENDBRANCH  17  18
ENDBRANCH  16  17
ENDBRANCH  15  16
ENDBRANCH  12  15
ENDBRANCH   5  10
TORSDOF 8
ENDMDL
MODEL       68
REMARK 921   NORMALIZED FREE ENERGY PREDICTED BY IDOCK:   -5.20 KCAL/MOL
REMARK 922        TOTAL FREE ENERGY PREDICTED BY IDOCK:   -8.81 KCAL/MOL
REMARK 923 INTER-LIGAND FREE ENERGY PREDICTED BY IDOCK:   -7.73 KCAL/MOL
REMARK 924 INTRA-LIGAND FREE ENERGY PREDICTED BY IDOCK:   -1.08 KCAL/MOL
REMARK 927      BINDING AFFINITY PREDICTED BY RF-SCORE:    0.00 PKD
ROOT
HETATM    1  N   UNL     1      -7.429  20.432  65.960  1.00  0.00    -0.495 NA 
HETATM    2  C   UNL     1      -8.055  19.230  65.979  1.00  0.00    -0.221 C  
HETATM    3  H2  UNL     1      -6.488  20.601  65.606  1.00  0.00     0.000 HD 
HETATM    4  H1  UNL     1      -8.048  21.140  66.353  1.00  0.00     0.000 HD 
HETATM    5  N   UNL     1      -9.257  19.124  66.432  1.00  0.00    -0.339 NA 
HETATM    6  N   UNL     1      -7.233  18.286  65.455  1.00  0.00    -0.546 NA 
HETATM    7  H2  UNL     1      -6.291  18.455  65.102  1.00  0.00     0.000 HD 
HETATM    8  H1  UNL     1      -7.704  17.382  65.469  1.00  0.00     0.000 HD 
HETATM    9  H   UNL     1      -9.759  19.944  66.773  1.00  0.00     0.000 HD 
ENDROOT
BRANCH   5  10
HETATM   10  C   UNL     1      -9.840  17.898  66.446  1.00  0.00    -0.337 A  
HETATM   11  N   UNL     1     -10.242  17.162  65.420  1.00  0.00    -0.612 NA 
HETATM   12  C   UNL     1     -10.776  15.952  65.854  1.00  0.00    -0.296 A  
HETATM   13  S   UNL     1     -10.090  17.148  67.987  1.00  0.00    -0.329 SA 
HETATM   14  C   UNL     1     -10.794  15.793  67.225  1.00  0.00    -0.298 A  
BRANCH  12  15
HETATM   15  C   UNL     1     -11.275  14.973  64.838  1.00  0.00    -0.416 C  
BRANCH  15  16
HETATM   16  S   UNL     1     -12.586  13.918  65.549  1.00  0.00    -0.485 SA 
BRANCH  16  17
HETATM   17  C   UNL     1     -12.360  12.393  64.569  1.00  0.00    -0.438 C  
BRANCH  17  18
HETATM   18  C   UNL     1     -11.437  12.532  63.364  1.00  0.00    -0.523 C  
BRANCH  18  19
HETATM   19  C   UNL     1     -10.150  11.719  63.504  1.00  0.00    -0.438 C  
HETATM   20  H2  UNL     1     -10.517  10.697  61.706  1.00  0.00     0.000 HD 
HETATM   21  N   UNL     1      -9.888  10.817  62.500  1.00  0.00    -0.667 NA 
HETATM   22  H1  UNL     1      -9.029  10.274  62.593  1.00  0.00     0.000 HD 
BRANCH  19  23
HETATM   23  N   UNL     1      -9.438  11.974  64.550  1.00  0.00    -0.450 N  
HETATM   24  H   UNL     1      -9.087  12.920  64.701  1.00  0.00     0.000 HD 
BRANCH  23  25
HETATM   25  S   UNL     1      -9.095  10.819  65.621  1.00  0.00    -0.200 S  
HETATM   26  O   UNL     1      -7.680  10.831  65.907  1.00  0.00    -0.154 OA 
HETATM   27  O   UNL     1      -9.777   9.606  65.236  1.00  0.00    -0.300 OA 
HETATM   28  N   UNL     1      -9.837  11.322  67.036  1.00  0.00    -0.189 N  
HETATM   29  H1  UNL     1      -9.620  10.591  67.713  1.00  0.00     0.000 HD 
HETATM   30  H2  UNL     1     -10.383  12.170  67.187  1.00  0.00     0.000 HD 
ENDBRANCH  23  25
ENDBRANCH  19  23
ENDBRANCH  18  19
ENDBRANCH  17  18
ENDBRANCH  16  17
ENDBRANCH  15  16
ENDBRANCH  12  15
ENDBRANCH   5  10
TORSDOF 8
ENDMDL
MODEL       69
REMARK 921   NORMALIZED FREE ENERGY PREDICTED BY IDOCK:   -5.19 KCAL/MOL
REMARK 922        TOTAL FREE ENERGY PREDICTED BY IDOCK:   -8.79 KCAL/MOL
REMARK 923 INTER-LIGAND FREE ENERGY PREDICTED BY IDOCK:   -7.64 KCAL/MOL
REMARK 924 INTRA-LIGAND FREE ENERGY PREDICTED BY IDOCK:   -1.15 KCAL/MOL
REMARK 927      BINDING AFFINITY PREDICTED BY RF-SCORE:    0.00 PKD
ROOT
HETATM    1  N   UNL     1     -13.586  15.342  70.677  1.00  0.00    -0.826 NA 
HETATM    2  C   UNL     1     -12.396  15.250  70.035  1.00  0.00    -0.328 C  
HETATM    3  H2  UNL     1     -13.861  14.793  71.491  1.00  0.00     0.000 HD 
HETATM    4  H1  UNL     1     -14.162  16.047  70.219  1.00  0.00     0.000 HD 
HETATM    5  N   UNL     1     -12.137  16.004  69.023  1.00  0.00    -0.423 NA 
HETATM    6  N   UNL     1     -11.628  14.311  70.644  1.00  0.00    -0.491 NA 
HETATM    7  H2  UNL     1     -11.904  13.762  71.457  1.00  0.00     0.000 HD 
HETATM    8  H1  UNL     1     -10.733  14.242  70.161  1.00  0.00     0.000 HD 
HETATM    9  H   UNL     1     -12.819  16.689  68.696  1.00  0.00     0.000 HD 
ENDROOT
BRANCH   5  10
HETATM   10  C   UNL     1     -10.938  15.868  68.401  1.00  0.00    -0.331 A  
HETATM   11  N   UNL     1     -10.201  14.777  68.255  1.00  0.00    -0.223 NA 
HETATM   12  C   UNL     1      -9.041  15.052  67.536  1.00  0.00    -0.185 A  
HETATM   13  S   UNL     1     -10.254  17.279  67.665  1.00  0.00    -0.346 SA 
HETATM   14  C   UNL     1      -8.900  16.373  67.161  1.00  0.00    -0.195 A  
BRANCH  12  15
HETATM   15  C   UNL     1      -8.082  13.938  67.254  1.00  0.00    -0.145 C  
BRANCH  15  16
HETATM   16  S   UNL     1      -8.572  12.424  68.153  1.00  0.00    -0.181 SA 
BRANCH  16  17
HETATM   17  C   UNL     1      -8.548  11.203  66.795  1.00  0.00    -0.157 C  
BRANCH  17  18
HETATM   18  C   UNL     1      -9.401  11.568  65.585  1.00  0.00    -0.221 C  
BRANCH  18  19
HETATM   19  C   UNL     1     -10.809  12.023  65.966  1.00  0.00    -0.289 C  
HETATM   20  H2  UNL     1     -11.142  10.287  67.099  1.00  0.00     0.000 HD 
HETATM   21  N   UNL     1     -11.528  11.173  66.773  1.00  0.00    -0.354 NA 
HETATM   22  H1  UNL     1     -12.468  11.477  67.026  1.00  0.00     0.000 HD 
BRANCH  19  23
HETATM   23  N   UNL     1     -11.174  13.170  65.494  1.00  0.00    -0.280 N  
HETATM   24  H   UNL     1     -10.765  14.023  65.875  1.00  0.00     0.000 HD 
BRANCH  23  25
HETATM   25  S   UNL     1     -12.266  13.270  64.314  1.00  0.00    -0.377 S  
HETATM   26  O   UNL     1     -12.463  14.655  63.956  1.00  0.00    -0.796 OA 
HETATM   27  O   UNL     1     -13.379  12.406  64.629  1.00  0.00    -0.778 OA 
HETATM   28  N   UNL     1     -11.518  12.574  62.986  1.00  0.00    -0.715 N  
HETATM   29  H1  UNL     1     -12.209  12.637  62.239  1.00  0.00     0.000 HD 
HETATM   30  H2  UNL     1     -10.580  12.175  62.936  1.00  0.00     0.000 HD 
ENDBRANCH  23  25
ENDBRANCH  19  23
ENDBRANCH  18  19
ENDBRANCH  17  18
ENDBRANCH  16  17
ENDBRANCH  15  16
ENDBRANCH  12  15
ENDBRANCH   5  10
TORSDOF 8
ENDMDL
MODEL       70
REMARK 921   NORMALIZED FREE ENERGY PREDICTED BY IDOCK:   -5.19 KCAL/MOL
REMARK 922        TOTAL FREE ENERGY PREDICTED BY IDOCK:   -8.79 KCAL/MOL
REMARK 923 INTER-LIGAND FREE ENERGY PREDICTED BY IDOCK:   -6.64 KCAL/MOL
REMARK 924 INTRA-LIGAND FREE ENERGY PREDICTED BY IDOCK:   -2.15 KCAL/MOL
REMARK 927      BINDING AFFINITY PREDICTED BY RF-SCORE:    0.00 PKD
ROOT
HETATM    1  N   UNL     1     -13.337  14.675  71.556  1.00  0.00    -0.343 NA 
HETATM    2  C   UNL     1     -12.547  14.646  70.455  1.00  0.00    -0.350 C  
HETATM    3  H2  UNL     1     -13.405  13.934  72.253  1.00  0.00     0.000 HD 
HETATM    4  H1  UNL     1     -13.853  15.554  71.577  1.00  0.00     0.000 HD 
HETATM    5  N   UNL     1     -12.520  15.645  69.642  1.00  0.00    -0.555 NA 
HETATM    6  N   UNL     1     -11.860  13.477  70.426  1.00  0.00    -0.511 NA 
HETATM    7  H2  UNL     1     -11.928  12.736  71.123  1.00  0.00     0.000 HD 
HETATM    8  H1  UNL     1     -11.265  13.455  69.598  1.00  0.00     0.000 HD 
HETATM    9  H   UNL     1     -13.084  16.476  69.818  1.00  0.00     0.000 HD 
ENDROOT
BRANCH   5  10
HETATM   10  C   UNL     1     -11.724  15.568  68.544  1.00  0.00    -0.337 A  
HETATM   11  N   UNL     1     -11.784  14.709  67.538  1.00  0.00    -0.379 NA 
HETATM   12  C   UNL     1     -10.796  14.976  66.595  1.00  0.00    -0.318 A  
HETATM   13  S   UNL     1     -10.464  16.746  68.386  1.00  0.00    -0.359 SA 
HETATM   14  C   UNL     1      -9.972  16.037  66.914  1.00  0.00    -0.251 A  
BRANCH  12  15
HETATM   15  C   UNL     1     -10.710  14.117  65.372  1.00  0.00    -0.342 C  
BRANCH  15  16
HETATM   16  S   UNL     1     -11.757  12.631  65.554  1.00  0.00    -0.422 SA 
BRANCH  16  17
HETATM   17  C   UNL     1     -10.492  11.315  65.466  1.00  0.00    -0.265 C  
BRANCH  17  18
HETATM   18  C   UNL     1      -9.418  11.380  66.545  1.00  0.00    -0.218 C  
BRANCH  18  19
HETATM   19  C   UNL     1      -9.997  11.428  67.959  1.00  0.00    -0.182 C  
HETATM   20  H2  UNL     1      -9.039  13.251  68.368  1.00  0.00     0.000 HD 
HETATM   21  N   UNL     1      -9.650  12.516  68.724  1.00  0.00    -0.410 NA 
HETATM   22  H1  UNL     1     -10.036  12.547  69.668  1.00  0.00     0.000 HD 
BRANCH  19  23
HETATM   23  N   UNL     1     -10.764  10.440  68.284  1.00  0.00    -0.218 N  
HETATM   24  H   UNL     1     -11.452  10.096  67.613  1.00  0.00     0.000 HD 
BRANCH  23  25
HETATM   25  S   UNL     1     -10.649   9.743  69.732  1.00  0.00    -0.276 S  
HETATM   26  O   UNL     1     -10.886   8.325  69.605  1.00  0.00    -0.226 OA 
HETATM   27  O   UNL     1     -11.364  10.544  70.696  1.00  0.00    -0.322 OA 
HETATM   28  N   UNL     1      -9.031   9.886  70.142  1.00  0.00    -0.356 N  
HETATM   29  H1  UNL     1      -8.958   9.445  71.058  1.00  0.00     0.000 HD 
HETATM   30  H2  UNL     1      -8.284  10.317  69.596  1.00  0.00     0.000 HD 
ENDBRANCH  23  25
ENDBRANCH  19  23
ENDBRANCH  18  19
ENDBRANCH  17  18
ENDBRANCH  16  17
ENDBRANCH  15  16
ENDBRANCH  12  15
ENDBRANCH   5  10
TORSDOF 8
ENDMDL
MODEL       71
REMARK 921   NORMALIZED FREE ENERGY PREDICTED BY IDOCK:   -5.16 KCAL/MOL
REMARK 922        TOTAL FREE ENERGY PREDICTED BY IDOCK:   -8.76 KCAL/MOL
REMARK 923 INTER-LIGAND FREE ENERGY PREDICTED BY IDOCK:   -7.22 KCAL/MOL
REMARK 924 INTRA-LIGAND FREE ENERGY PREDICTED BY IDOCK:   -1.53 KCAL/MOL
REMARK 927      BINDING AFFINITY PREDICTED BY RF-SCORE:    0.00 PKD
ROOT
HETATM    1  N   UNL     1      -9.437   9.715  62.789  1.00  0.00    -0.560 NA 
HETATM    2  C   UNL     1      -9.891  10.692  63.611  1.00  0.00    -0.333 C  
HETATM    3  H2  UNL     1      -8.814   8.956  63.063  1.00  0.00     0.000 HD 
HETATM    4  H1  UNL     1      -9.816   9.858  61.854  1.00  0.00     0.000 HD 
HETATM    5  N   UNL     1     -10.693  11.599  63.170  1.00  0.00    -0.667 NA 
HETATM    6  N   UNL     1      -9.387  10.502  64.856  1.00  0.00    -0.211 NA 
HETATM    7  H2  UNL     1      -8.763   9.743  65.131  1.00  0.00     0.000 HD 
HETATM    8  H1  UNL     1      -9.729  11.237  65.475  1.00  0.00     0.000 HD 
HETATM    9  H   UNL     1     -11.005  11.591  62.199  1.00  0.00     0.000 HD 
ENDROOT
BRANCH   5  10
HETATM   10  C   UNL     1     -11.112  12.567  64.025  1.00  0.00    -0.397 A  
HETATM   11  N   UNL     1     -10.414  13.559  64.558  1.00  0.00    -0.432 NA 
HETATM   12  C   UNL     1     -11.217  14.351  65.374  1.00  0.00    -0.335 A  
HETATM   13  S   UNL     1     -12.781  12.556  64.488  1.00  0.00    -0.220 SA 
HETATM   14  C   UNL     1     -12.529  13.930  65.468  1.00  0.00    -0.511 A  
BRANCH  12  15
HETATM   15  C   UNL     1     -10.610  15.536  66.059  1.00  0.00    -0.325 C  
BRANCH  15  16
HETATM   16  S   UNL     1     -11.262  15.700  67.758  1.00  0.00    -0.255 SA 
BRANCH  16  17
HETATM   17  C   UNL     1     -10.612  14.170  68.517  1.00  0.00    -0.252 C  
BRANCH  17  18
HETATM   18  C   UNL     1     -11.659  13.286  69.184  1.00  0.00    -0.370 C  
BRANCH  18  19
HETATM   19  C   UNL     1     -11.427  11.796  68.933  1.00  0.00    -0.297 C  
HETATM   20  H2  UNL     1     -12.764  11.787  67.314  1.00  0.00     0.000 HD 
HETATM   21  N   UNL     1     -12.125  11.237  67.890  1.00  0.00    -0.603 NA 
HETATM   22  H1  UNL     1     -11.971  10.243  67.723  1.00  0.00     0.000 HD 
BRANCH  19  23
HETATM   23  N   UNL     1     -10.586  11.219  69.727  1.00  0.00    -0.441 N  
HETATM   24  H   UNL     1     -10.424  11.608  70.656  1.00  0.00     0.000 HD 
BRANCH  23  25
HETATM   25  S   UNL     1      -9.791   9.894  69.270  1.00  0.00    -0.220 S  
HETATM   26  O   UNL     1      -9.058   9.360  70.393  1.00  0.00    -0.223 OA 
HETATM   27  O   UNL     1      -9.149  10.146  68.002  1.00  0.00    -0.130 OA 
HETATM   28  N   UNL     1     -10.991   8.770  68.951  1.00  0.00    -0.440 N  
HETATM   29  H1  UNL     1     -10.488   7.932  68.662  1.00  0.00     0.000 HD 
HETATM   30  H2  UNL     1     -12.001   8.896  69.029  1.00  0.00     0.000 HD 
ENDBRANCH  23  25
ENDBRANCH  19  23
ENDBRANCH  18  19
ENDBRANCH  17  18
ENDBRANCH  16  17
ENDBRANCH  15  16
ENDBRANCH  12  15
ENDBRANCH   5  10
TORSDOF 8
ENDMDL
MODEL       72
REMARK 921   NORMALIZED FREE ENERGY PREDICTED BY IDOCK:   -5.16 KCAL/MOL
REMARK 922        TOTAL FREE ENERGY PREDICTED BY IDOCK:   -8.75 KCAL/MOL
REMARK 923 INTER-LIGAND FREE ENERGY PREDICTED BY IDOCK:   -7.97 KCAL/MOL
REMARK 924 INTRA-LIGAND FREE ENERGY PREDICTED BY IDOCK:   -0.78 KCAL/MOL
REMARK 927      BINDING AFFINITY PREDICTED BY RF-SCORE:    0.00 PKD
ROOT
HETATM    1  N   UNL     1     -14.402   7.030  71.937  1.00  0.00    -0.578 NA 
HETATM    2  C   UNL     1     -13.167   7.508  71.653  1.00  0.00    -0.356 C  
HETATM    3  H2  UNL     1     -14.987   7.332  72.716  1.00  0.00     0.000 HD 
HETATM    4  H1  UNL     1     -14.656   6.321  71.250  1.00  0.00     0.000 HD 
HETATM    5  N   UNL     1     -12.515   7.071  70.631  1.00  0.00    -0.604 NA 
HETATM    6  N   UNL     1     -12.828   8.451  72.568  1.00  0.00    -0.587 NA 
HETATM    7  H2  UNL     1     -13.412   8.753  73.347  1.00  0.00     0.000 HD 
HETATM    8  H1  UNL     1     -11.898   8.811  72.354  1.00  0.00     0.000 HD 
HETATM    9  H   UNL     1     -12.921   6.367  70.015  1.00  0.00     0.000 HD 
ENDROOT
BRANCH   5  10
HETATM   10  C   UNL     1     -11.273   7.567  70.392  1.00  0.00    -0.253 A  
HETATM   11  N   UNL     1     -10.933   8.778  69.978  1.00  0.00    -0.236 NA 
HETATM   12  C   UNL     1      -9.550   8.898  69.871  1.00  0.00    -0.177 A  
HETATM   13  S   UNL     1      -9.924   6.519  70.677  1.00  0.00    -0.185 SA 
HETATM   14  C   UNL     1      -8.850   7.752  70.190  1.00  0.00    -0.145 A  
BRANCH  12  15
HETATM   15  C   UNL     1      -8.968  10.204  69.428  1.00  0.00    -0.191 C  
BRANCH  15  16
HETATM   16  S   UNL     1      -9.870  10.852  67.977  1.00  0.00    -0.176 SA 
BRANCH  16  17
HETATM   17  C   UNL     1     -10.262  12.541  68.552  1.00  0.00    -0.203 C  
BRANCH  17  18
HETATM   18  C   UNL     1     -11.677  13.016  68.241  1.00  0.00    -0.390 C  
BRANCH  18  19
HETATM   19  C   UNL     1     -11.891  13.316  66.758  1.00  0.00    -0.394 C  
HETATM   20  H2  UNL     1     -12.160  11.281  66.312  1.00  0.00     0.000 HD 
HETATM   21  N   UNL     1     -12.129  12.233  65.946  1.00  0.00    -0.620 NA 
HETATM   22  H1  UNL     1     -12.272  12.432  64.955  1.00  0.00     0.000 HD 
BRANCH  19  23
HETATM   23  N   UNL     1     -11.836  14.563  66.425  1.00  0.00    -0.375 N  
HETATM   24  H   UNL     1     -12.094  15.277  67.106  1.00  0.00     0.000 HD 
BRANCH  23  25
HETATM   25  S   UNL     1     -11.365  15.005  64.949  1.00  0.00    -0.396 S  
HETATM   26  O   UNL     1     -10.611  16.233  65.031  1.00  0.00    -0.620 OA 
HETATM   27  O   UNL     1     -12.478  14.864  64.039  1.00  0.00    -0.807 OA 
HETATM   28  N   UNL     1     -10.258  13.836  64.490  1.00  0.00    -0.675 N  
HETATM   29  H1  UNL     1      -9.960  14.116  63.556  1.00  0.00     0.000 HD 
HETATM   30  H2  UNL     1      -9.950  13.024  65.025  1.00  0.00     0.000 HD 
ENDBRANCH  23  25
ENDBRANCH  19  23
ENDBRANCH  18  19
ENDBRANCH  17  18
ENDBRANCH  16  17
ENDBRANCH  15  16
ENDBRANCH  12  15
ENDBRANCH   5  10
TORSDOF 8
ENDMDL
MODEL       73
REMARK 921   NORMALIZED FREE ENERGY PREDICTED BY IDOCK:   -5.15 KCAL/MOL
REMARK 922        TOTAL FREE ENERGY PREDICTED BY IDOCK:   -8.74 KCAL/MOL
REMARK 923 INTER-LIGAND FREE ENERGY PREDICTED BY IDOCK:   -7.69 KCAL/MOL
REMARK 924 INTRA-LIGAND FREE ENERGY PREDICTED BY IDOCK:   -1.05 KCAL/MOL
REMARK 927      BINDING AFFINITY PREDICTED BY RF-SCORE:    0.00 PKD
ROOT
HETATM    1  N   UNL     1     -10.679   3.786  64.803  1.00  0.00    -0.509 NA 
HETATM    2  C   UNL     1     -10.355   4.782  65.663  1.00  0.00    -0.189 C  
HETATM    3  H2  UNL     1     -10.014   3.172  64.333  1.00  0.00     0.000 HD 
HETATM    4  H1  UNL     1     -11.692   3.746  64.700  1.00  0.00     0.000 HD 
HETATM    5  N   UNL     1     -11.274   5.492  66.220  1.00  0.00    -0.737 NA 
HETATM    6  N   UNL     1      -9.006   4.835  65.800  1.00  0.00    -0.133 NA 
HETATM    7  H2  UNL     1      -8.341   4.221  65.331  1.00  0.00     0.000 HD 
HETATM    8  H1  UNL     1      -8.761   5.584  66.448  1.00  0.00     0.000 HD 
HETATM    9  H   UNL     1     -12.259   5.310  66.030  1.00  0.00     0.000 HD 
ENDROOT
BRANCH   5  10
HETATM   10  C   UNL     1     -10.903   6.488  67.064  1.00  0.00    -0.395 A  
HETATM   11  N   UNL     1     -10.470   7.704  66.768  1.00  0.00    -0.303 NA 
HETATM   12  C   UNL     1     -10.210   8.436  67.924  1.00  0.00    -0.217 A  
HETATM   13  S   UNL     1     -11.020   6.180  68.765  1.00  0.00    -0.306 SA 
HETATM   14  C   UNL     1     -10.431   7.747  69.099  1.00  0.00    -0.211 A  
BRANCH  12  15
HETATM   15  C   UNL     1      -9.722   9.845  67.796  1.00  0.00    -0.150 C  
BRANCH  15  16
HETATM   16  S   UNL     1     -10.697  10.963  68.863  1.00  0.00    -0.231 SA 
BRANCH  16  17
HETATM   17  C   UNL     1     -10.148  12.589  68.237  1.00  0.00    -0.228 C  
BRANCH  17  18
HETATM   18  C   UNL     1      -9.590  12.579  66.819  1.00  0.00    -0.231 C  
BRANCH  18  19
HETATM   19  C   UNL     1     -10.407  13.435  65.852  1.00  0.00    -0.290 C  
HETATM   20  H2  UNL     1      -8.929  14.926  65.808  1.00  0.00     0.000 HD 
HETATM   21  N   UNL     1      -9.843  14.628  65.467  1.00  0.00    -0.473 NA 
HETATM   22  H1  UNL     1     -10.389  15.199  64.822  1.00  0.00     0.000 HD 
BRANCH  19  23
HETATM   23  N   UNL     1     -11.544  12.940  65.489  1.00  0.00    -0.340 N  
HETATM   24  H   UNL     1     -12.201  12.617  66.200  1.00  0.00     0.000 HD 
BRANCH  23  25
HETATM   25  S   UNL     1     -11.938  12.825  63.931  1.00  0.00    -0.521 S  
HETATM   26  O   UNL     1     -13.176  12.094  63.799  1.00  0.00    -0.763 OA 
HETATM   27  O   UNL     1     -10.763  12.462  63.175  1.00  0.00    -0.352 OA 
HETATM   28  N   UNL     1     -12.301  14.394  63.471  1.00  0.00    -1.114 N  
HETATM   29  H1  UNL     1     -12.551  14.322  62.485  1.00  0.00     0.000 HD 
HETATM   30  H2  UNL     1     -12.278  15.235  64.048  1.00  0.00     0.000 HD 
ENDBRANCH  23  25
ENDBRANCH  19  23
ENDBRANCH  18  19
ENDBRANCH  17  18
ENDBRANCH  16  17
ENDBRANCH  15  16
ENDBRANCH  12  15
ENDBRANCH   5  10
TORSDOF 8
ENDMDL
MODEL       74
REMARK 921   NORMALIZED FREE ENERGY PREDICTED BY IDOCK:   -5.15 KCAL/MOL
REMARK 922        TOTAL FREE ENERGY PREDICTED BY IDOCK:   -8.74 KCAL/MOL
REMARK 923 INTER-LIGAND FREE ENERGY PREDICTED BY IDOCK:   -6.85 KCAL/MOL
REMARK 924 INTRA-LIGAND FREE ENERGY PREDICTED BY IDOCK:   -1.88 KCAL/MOL
REMARK 927      BINDING AFFINITY PREDICTED BY RF-SCORE:    0.00 PKD
ROOT
HETATM    1  N   UNL     1     -13.936  13.676  72.684  1.00  0.00    -0.745 NA 
HETATM    2  C   UNL     1     -13.067  13.045  71.858  1.00  0.00    -0.384 C  
HETATM    3  H2  UNL     1     -13.922  14.671  72.907  1.00  0.00     0.000 HD 
HETATM    4  H1  UNL     1     -14.607  13.000  73.047  1.00  0.00     0.000 HD 
HETATM    5  N   UNL     1     -13.181  11.783  71.626  1.00  0.00    -0.363 NA 
HETATM    6  N   UNL     1     -12.173  13.944  71.374  1.00  0.00    -0.358 NA 
HETATM    7  H2  UNL     1     -12.159  14.939  71.597  1.00  0.00     0.000 HD 
HETATM    8  H1  UNL     1     -11.519  13.470  70.751  1.00  0.00     0.000 HD 
HETATM    9  H   UNL     1     -13.933  11.241  72.053  1.00  0.00     0.000 HD 
ENDROOT
BRANCH   5  10
HETATM   10  C   UNL     1     -12.280  11.189  70.803  1.00  0.00    -0.385 A  
HETATM   11  N   UNL     1     -11.799  11.627  69.649  1.00  0.00    -0.330 NA 
HETATM   12  C   UNL     1     -10.876  10.729  69.120  1.00  0.00    -0.237 A  
HETATM   13  S   UNL     1     -11.625   9.664  71.300  1.00  0.00    -0.406 SA 
HETATM   14  C   UNL     1     -10.683   9.593  69.879  1.00  0.00    -0.252 A  
BRANCH  12  15
HETATM   15  C   UNL     1     -10.210  11.056  67.820  1.00  0.00    -0.183 C  
BRANCH  15  16
HETATM   16  S   UNL     1      -8.797  12.183  68.087  1.00  0.00    -0.184 SA 
BRANCH  16  17
HETATM   17  C   UNL     1      -9.241  13.552  66.961  1.00  0.00    -0.246 C  
BRANCH  17  18
HETATM   18  C   UNL     1     -10.735  13.721  66.709  1.00  0.00    -0.276 C  
BRANCH  18  19
HETATM   19  C   UNL     1     -11.362  14.821  67.565  1.00  0.00    -0.344 C  
HETATM   20  H2  UNL     1     -12.717  13.472  68.434  1.00  0.00     0.000 HD 
HETATM   21  N   UNL     1     -12.390  14.438  68.393  1.00  0.00    -0.599 NA 
HETATM   22  H1  UNL     1     -12.809  15.172  68.964  1.00  0.00     0.000 HD 
BRANCH  19  23
HETATM   23  N   UNL     1     -10.850  15.999  67.426  1.00  0.00    -0.307 N  
HETATM   24  H   UNL     1     -10.826  16.431  66.502  1.00  0.00     0.000 HD 
BRANCH  23  25
HETATM   25  S   UNL     1     -10.250  16.796  68.692  1.00  0.00    -0.319 S  
HETATM   26  O   UNL     1      -8.812  16.665  68.707  1.00  0.00    -0.249 OA 
HETATM   27  O   UNL     1     -11.046  16.494  69.857  1.00  0.00    -0.345 OA 
HETATM   28  N   UNL     1     -10.543  18.410  68.353  1.00  0.00    -0.342 N  
HETATM   29  H1  UNL     1     -10.163  18.914  69.154  1.00  0.00     0.000 HD 
HETATM   30  H2  UNL     1     -11.000  18.801  67.529  1.00  0.00     0.000 HD 
ENDBRANCH  23  25
ENDBRANCH  19  23
ENDBRANCH  18  19
ENDBRANCH  17  18
ENDBRANCH  16  17
ENDBRANCH  15  16
ENDBRANCH  12  15
ENDBRANCH   5  10
TORSDOF 8
ENDMDL
MODEL       75
REMARK 921   NORMALIZED FREE ENERGY PREDICTED BY IDOCK:   -5.15 KCAL/MOL
REMARK 922        TOTAL FREE ENERGY PREDICTED BY IDOCK:   -8.73 KCAL/MOL
REMARK 923 INTER-LIGAND FREE ENERGY PREDICTED BY IDOCK:   -7.34 KCAL/MOL
REMARK 924 INTRA-LIGAND FREE ENERGY PREDICTED BY IDOCK:   -1.39 KCAL/MOL
REMARK 927      BINDING AFFINITY PREDICTED BY RF-SCORE:    0.00 PKD
ROOT
HETATM    1  N   UNL     1     -12.427  14.320  63.287  1.00  0.00    -1.068 NA 
HETATM    2  C   UNL     1     -11.947  14.187  64.548  1.00  0.00    -0.458 C  
HETATM    3  H2  UNL     1     -11.921  14.734  62.504  1.00  0.00     0.000 HD 
HETATM    4  H1  UNL     1     -13.372  13.940  63.244  1.00  0.00     0.000 HD 
HETATM    5  N   UNL     1     -12.661  13.631  65.465  1.00  0.00    -0.579 NA 
HETATM    6  N   UNL     1     -10.689  14.693  64.605  1.00  0.00    -0.609 NA 
HETATM    7  H2  UNL     1     -10.184  15.107  63.823  1.00  0.00     0.000 HD 
HETATM    8  H1  UNL     1     -10.328  14.593  65.554  1.00  0.00     0.000 HD 
HETATM    9  H   UNL     1     -13.593  13.273  65.255  1.00  0.00     0.000 HD 
ENDROOT
BRANCH   5  10
HETATM   10  C   UNL     1     -12.146  13.531  66.717  1.00  0.00    -0.375 A  
HETATM   11  N   UNL     1     -12.165  14.427  67.693  1.00  0.00    -0.269 NA 
HETATM   12  C   UNL     1     -11.543  13.933  68.836  1.00  0.00    -0.316 A  
HETATM   13  S   UNL     1     -11.375  12.042  67.149  1.00  0.00    -0.336 SA 
HETATM   14  C   UNL     1     -11.033  12.657  68.703  1.00  0.00    -0.256 A  
BRANCH  12  15
HETATM   15  C   UNL     1     -11.475  14.797  70.056  1.00  0.00    -0.277 C  
BRANCH  15  16
HETATM   16  S   UNL     1     -11.105  16.527  69.598  1.00  0.00    -0.143 SA 
BRANCH  16  17
HETATM   17  C   UNL     1      -9.333  16.391  69.173  1.00  0.00    -0.224 C  
BRANCH  17  18
HETATM   18  C   UNL     1      -9.042  16.132  67.700  1.00  0.00    -0.197 C  
BRANCH  18  19
HETATM   19  C   UNL     1      -9.112  17.399  66.847  1.00  0.00    -0.245 C  
HETATM   20  H2  UNL     1     -10.065  16.378  65.279  1.00  0.00     0.000 HD 
HETATM   21  N   UNL     1      -9.697  17.270  65.611  1.00  0.00    -0.529 NA 
HETATM   22  H1  UNL     1      -9.743  18.116  65.041  1.00  0.00     0.000 HD 
BRANCH  19  23
HETATM   23  N   UNL     1      -8.619  18.464  67.387  1.00  0.00    -0.255 N  
HETATM   24  H   UNL     1      -8.488  18.501  68.398  1.00  0.00     0.000 HD 
BRANCH  23  25
HETATM   25  S   UNL     1      -8.208  19.735  66.485  1.00  0.00    -0.346 S  
HETATM   26  O   UNL     1      -7.619  20.752  67.324  1.00  0.00    -0.346 OA 
HETATM   27  O   UNL     1      -9.291  20.038  65.580  1.00  0.00    -0.260 OA 
HETATM   28  N   UNL     1      -6.957  19.181  65.519  1.00  0.00    -0.253 N  
HETATM   29  H1  UNL     1      -6.697  19.985  64.949  1.00  0.00     0.000 HD 
HETATM   30  H2  UNL     1      -6.546  18.247  65.504  1.00  0.00     0.000 HD 
ENDBRANCH  23  25
ENDBRANCH  19  23
ENDBRANCH  18  19
ENDBRANCH  17  18
ENDBRANCH  16  17
ENDBRANCH  15  16
ENDBRANCH  12  15
ENDBRANCH   5  10
TORSDOF 8
ENDMDL
MODEL       76
REMARK 921   NORMALIZED FREE ENERGY PREDICTED BY IDOCK:   -5.14 KCAL/MOL
REMARK 922        TOTAL FREE ENERGY PREDICTED BY IDOCK:   -8.72 KCAL/MOL
REMARK 923 INTER-LIGAND FREE ENERGY PREDICTED BY IDOCK:   -7.59 KCAL/MOL
REMARK 924 INTRA-LIGAND FREE ENERGY PREDICTED BY IDOCK:   -1.13 KCAL/MOL
REMARK 927      BINDING AFFINITY PREDICTED BY RF-SCORE:    0.00 PKD
ROOT
HETATM    1  N   UNL     1     -11.194   3.918  64.561  1.00  0.00    -0.742 NA 
HETATM    2  C   UNL     1     -10.725   4.538  65.671  1.00  0.00    -0.118 C  
HETATM    3  H2  UNL     1     -10.890   3.005  64.223  1.00  0.00     0.000 HD 
HETATM    4  H1  UNL     1     -11.897   4.508  64.118  1.00  0.00     0.000 HD 
HETATM    5  N   UNL     1     -11.188   5.687  66.025  1.00  0.00    -0.677 NA 
HETATM    6  N   UNL     1      -9.788   3.754  66.262  1.00  0.00    -0.399 NA 
HETATM    7  H2  UNL     1      -9.485   2.841  65.923  1.00  0.00     0.000 HD 
HETATM    8  H1  UNL     1      -9.435   4.220  67.098  1.00  0.00     0.000 HD 
HETATM    9  H   UNL     1     -11.920   6.143  65.481  1.00  0.00     0.000 HD 
ENDROOT
BRANCH   5  10
HETATM   10  C   UNL     1     -10.679   6.278  67.136  1.00  0.00    -0.359 A  
HETATM   11  N   UNL     1     -10.689   5.837  68.385  1.00  0.00    -0.230 NA 
HETATM   12  C   UNL     1     -10.046   6.733  69.235  1.00  0.00    -0.168 A  
HETATM   13  S   UNL     1      -9.880   7.802  66.938  1.00  0.00    -0.254 SA 
HETATM   14  C   UNL     1      -9.569   7.869  68.614  1.00  0.00    -0.155 A  
BRANCH  12  15
HETATM   15  C   UNL     1      -9.942   6.403  70.692  1.00  0.00    -0.185 C  
BRANCH  15  16
HETATM   16  S   UNL     1     -11.597   6.377  71.465  1.00  0.00    -0.297 SA 
BRANCH  16  17
HETATM   17  C   UNL     1     -11.500   7.868  72.517  1.00  0.00    -0.398 C  
BRANCH  17  18
HETATM   18  C   UNL     1     -11.085   9.143  71.792  1.00  0.00    -0.437 C  
BRANCH  18  19
HETATM   19  C   UNL     1     -12.271   9.903  71.199  1.00  0.00    -0.373 C  
HETATM   20  H2  UNL     1     -13.149  10.152  73.091  1.00  0.00     0.000 HD 
HETATM   21  N   UNL     1     -13.226  10.331  72.089  1.00  0.00    -0.555 NA 
HETATM   22  H1  UNL     1     -14.019  10.839  71.694  1.00  0.00     0.000 HD 
BRANCH  19  23
HETATM   23  N   UNL     1     -12.244  10.072  69.919  1.00  0.00    -0.486 N  
HETATM   24  H   UNL     1     -12.538   9.311  69.305  1.00  0.00     0.000 HD 
BRANCH  23  25
HETATM   25  S   UNL     1     -11.754  11.466  69.277  1.00  0.00    -0.364 S  
HETATM   26  O   UNL     1     -12.094  12.552  70.165  1.00  0.00    -0.340 OA 
HETATM   27  O   UNL     1     -12.117  11.493  67.880  1.00  0.00    -0.630 OA 
HETATM   28  N   UNL     1     -10.082  11.379  69.305  1.00  0.00    -0.426 N  
HETATM   29  H1  UNL     1      -9.772  12.261  68.898  1.00  0.00     0.000 HD 
HETATM   30  H2  UNL     1      -9.502  10.614  69.651  1.00  0.00     0.000 HD 
ENDBRANCH  23  25
ENDBRANCH  19  23
ENDBRANCH  18  19
ENDBRANCH  17  18
ENDBRANCH  16  17
ENDBRANCH  15  16
ENDBRANCH  12  15
ENDBRANCH   5  10
TORSDOF 8
ENDMDL
MODEL       77
REMARK 921   NORMALIZED FREE ENERGY PREDICTED BY IDOCK:   -5.14 KCAL/MOL
REMARK 922        TOTAL FREE ENERGY PREDICTED BY IDOCK:   -8.72 KCAL/MOL
REMARK 923 INTER-LIGAND FREE ENERGY PREDICTED BY IDOCK:   -6.70 KCAL/MOL
REMARK 924 INTRA-LIGAND FREE ENERGY PREDICTED BY IDOCK:   -2.02 KCAL/MOL
REMARK 927      BINDING AFFINITY PREDICTED BY RF-SCORE:    0.00 PKD
ROOT
HETATM    1  N   UNL     1     -13.809  15.422  70.732  1.00  0.00    -0.860 NA 
HETATM    2  C   UNL     1     -12.535  15.793  70.456  1.00  0.00    -0.332 C  
HETATM    3  H2  UNL     1     -14.250  15.464  71.650  1.00  0.00     0.000 HD 
HETATM    4  H1  UNL     1     -14.258  15.095  69.877  1.00  0.00     0.000 HD 
HETATM    5  N   UNL     1     -12.077  15.718  69.255  1.00  0.00    -0.512 NA 
HETATM    6  N   UNL     1     -11.938  16.228  71.594  1.00  0.00    -0.656 NA 
HETATM    7  H2  UNL     1     -12.379  16.270  72.513  1.00  0.00     0.000 HD 
HETATM    8  H1  UNL     1     -10.979  16.508  71.387  1.00  0.00     0.000 HD 
HETATM    9  H   UNL     1     -12.667  15.388  68.491  1.00  0.00     0.000 HD 
ENDROOT
BRANCH   5  10
HETATM   10  C   UNL     1     -10.790  16.086  69.027  1.00  0.00    -0.283 A  
HETATM   11  N   UNL     1      -9.677  15.517  69.463  1.00  0.00    -0.274 NA 
HETATM   12  C   UNL     1      -8.554  16.190  68.990  1.00  0.00    -0.251 A  
HETATM   13  S   UNL     1     -10.521  17.466  68.014  1.00  0.00    -0.388 SA 
HETATM   14  C   UNL     1      -8.835  17.292  68.207  1.00  0.00    -0.258 A  
BRANCH  12  15
HETATM   15  C   UNL     1      -7.195  15.687  69.366  1.00  0.00    -0.212 C  
BRANCH  15  16
HETATM   16  S   UNL     1      -6.411  14.835  67.951  1.00  0.00    -0.167 SA 
BRANCH  16  17
HETATM   17  C   UNL     1      -7.212  13.197  68.060  1.00  0.00    -0.125 C  
BRANCH  17  18
HETATM   18  C   UNL     1      -8.438  13.018  67.173  1.00  0.00    -0.176 C  
BRANCH  18  19
HETATM   19  C   UNL     1      -9.456  12.037  67.754  1.00  0.00    -0.190 C  
HETATM   20  H2  UNL     1      -9.136  10.669  66.193  1.00  0.00     0.000 HD 
HETATM   21  N   UNL     1      -9.646  10.870  67.054  1.00  0.00    -0.172 NA 
HETATM   22  H1  UNL     1     -10.325  10.214  67.441  1.00  0.00     0.000 HD 
BRANCH  19  23
HETATM   23  N   UNL     1     -10.025  12.406  68.854  1.00  0.00    -0.429 N  
HETATM   24  H   UNL     1      -9.466  12.844  69.586  1.00  0.00     0.000 HD 
BRANCH  23  25
HETATM   25  S   UNL     1     -11.604  12.183  69.084  1.00  0.00    -0.337 S  
HETATM   26  O   UNL     1     -12.331  12.661  67.933  1.00  0.00    -0.218 OA 
HETATM   27  O   UNL     1     -11.947  12.606  70.421  1.00  0.00    -0.338 OA 
HETATM   28  N   UNL     1     -11.802  10.520  69.074  1.00  0.00    -0.523 N  
HETATM   29  H1  UNL     1     -12.801  10.379  69.220  1.00  0.00     0.000 HD 
HETATM   30  H2  UNL     1     -11.083   9.806  68.949  1.00  0.00     0.000 HD 
ENDBRANCH  23  25
ENDBRANCH  19  23
ENDBRANCH  18  19
ENDBRANCH  17  18
ENDBRANCH  16  17
ENDBRANCH  15  16
ENDBRANCH  12  15
ENDBRANCH   5  10
TORSDOF 8
ENDMDL
MODEL       78
REMARK 921   NORMALIZED FREE ENERGY PREDICTED BY IDOCK:   -5.13 KCAL/MOL
REMARK 922        TOTAL FREE ENERGY PREDICTED BY IDOCK:   -8.70 KCAL/MOL
REMARK 923 INTER-LIGAND FREE ENERGY PREDICTED BY IDOCK:   -6.83 KCAL/MOL
REMARK 924 INTRA-LIGAND FREE ENERGY PREDICTED BY IDOCK:   -1.87 KCAL/MOL
REMARK 927      BINDING AFFINITY PREDICTED BY RF-SCORE:    0.00 PKD
ROOT
HETATM    1  N   UNL     1     -13.412  15.512  70.709  1.00  0.00    -0.809 NA 
HETATM    2  C   UNL     1     -12.378  15.069  69.953  1.00  0.00    -0.275 C  
HETATM    3  H2  UNL     1     -13.496  15.397  71.719  1.00  0.00     0.000 HD 
HETATM    4  H1  UNL     1     -14.092  15.979  70.110  1.00  0.00     0.000 HD 
HETATM    5  N   UNL     1     -12.358  15.281  68.683  1.00  0.00    -0.560 NA 
HETATM    6  N   UNL     1     -11.473  14.447  70.750  1.00  0.00    -0.512 NA 
HETATM    7  H2  UNL     1     -11.557  14.332  71.760  1.00  0.00     0.000 HD 
HETATM    8  H1  UNL     1     -10.694  14.114  70.181  1.00  0.00     0.000 HD 
HETATM    9  H   UNL     1     -13.113  15.794  68.228  1.00  0.00     0.000 HD 
ENDROOT
BRANCH   5  10
HETATM   10  C   UNL     1     -11.309  14.807  67.962  1.00  0.00    -0.316 A  
HETATM   11  N   UNL     1     -10.840  13.571  67.900  1.00  0.00    -0.242 NA 
HETATM   12  C   UNL     1      -9.758  13.491  67.027  1.00  0.00    -0.251 A  
HETATM   13  S   UNL     1     -10.458  15.931  66.955  1.00  0.00    -0.305 SA 
HETATM   14  C   UNL     1      -9.401  14.691  66.447  1.00  0.00    -0.284 A  
BRANCH  12  15
HETATM   15  C   UNL     1      -9.096  12.166  66.812  1.00  0.00    -0.205 C  
BRANCH  15  16
HETATM   16  S   UNL     1     -10.206  11.033  65.903  1.00  0.00    -0.258 SA 
BRANCH  16  17
HETATM   17  C   UNL     1     -10.310   9.644  67.086  1.00  0.00    -0.254 C  
BRANCH  17  18
HETATM   18  C   UNL     1      -9.818   9.957  68.494  1.00  0.00    -0.168 C  
BRANCH  18  19
HETATM   19  C   UNL     1     -10.958  10.158  69.492  1.00  0.00    -0.256 C  
HETATM   20  H2  UNL     1     -10.484  12.189  69.735  1.00  0.00     0.000 HD 
HETATM   21  N   UNL     1     -11.103  11.425  70.005  1.00  0.00    -0.480 NA 
HETATM   22  H1  UNL     1     -11.864  11.559  70.671  1.00  0.00     0.000 HD 
BRANCH  19  23
HETATM   23  N   UNL     1     -11.675   9.112  69.741  1.00  0.00    -0.365 N  
HETATM   24  H   UNL     1     -11.928   8.483  68.979  1.00  0.00     0.000 HD 
BRANCH  23  25
HETATM   25  S   UNL     1     -12.172   8.787  71.238  1.00  0.00    -0.262 S  
HETATM   26  O   UNL     1     -12.529   7.392  71.336  1.00  0.00    -0.337 OA 
HETATM   27  O   UNL     1     -13.075   9.828  71.669  1.00  0.00    -0.361 OA 
HETATM   28  N   UNL     1     -10.802   8.960  72.186  1.00  0.00    -0.334 N  
HETATM   29  H1  UNL     1     -11.117   8.754  73.134  1.00  0.00     0.000 HD 
HETATM   30  H2  UNL     1      -9.862   9.214  71.883  1.00  0.00     0.000 HD 
ENDBRANCH  23  25
ENDBRANCH  19  23
ENDBRANCH  18  19
ENDBRANCH  17  18
ENDBRANCH  16  17
ENDBRANCH  15  16
ENDBRANCH  12  15
ENDBRANCH   5  10
TORSDOF 8
ENDMDL
MODEL       79
REMARK 921   NORMALIZED FREE ENERGY PREDICTED BY IDOCK:   -5.11 KCAL/MOL
REMARK 922        TOTAL FREE ENERGY PREDICTED BY IDOCK:   -8.68 KCAL/MOL
REMARK 923 INTER-LIGAND FREE ENERGY PREDICTED BY IDOCK:   -6.56 KCAL/MOL
REMARK 924 INTRA-LIGAND FREE ENERGY PREDICTED BY IDOCK:   -2.13 KCAL/MOL
REMARK 927      BINDING AFFINITY PREDICTED BY RF-SCORE:    0.00 PKD
ROOT
HETATM    1  N   UNL     1      -8.734  11.007  63.084  1.00  0.00    -0.400 NA 
HETATM    2  C   UNL     1      -8.907  10.474  64.318  1.00  0.00    -0.197 C  
HETATM    3  H2  UNL     1      -8.499  11.980  62.888  1.00  0.00     0.000 HD 
HETATM    4  H1  UNL     1      -8.875  10.282  62.381  1.00  0.00     0.000 HD 
HETATM    5  N   UNL     1      -9.186   9.225  64.459  1.00  0.00    -0.434 NA 
HETATM    6  N   UNL     1      -8.719  11.439  65.253  1.00  0.00    -0.391 NA 
HETATM    7  H2  UNL     1      -8.484  12.412  65.058  1.00  0.00     0.000 HD 
HETATM    8  H1  UNL     1      -8.849  11.038  66.182  1.00  0.00     0.000 HD 
HETATM    9  H   UNL     1      -9.271   8.615  63.646  1.00  0.00     0.000 HD 
ENDROOT
BRANCH   5  10
HETATM   10  C   UNL     1      -9.365   8.736  65.713  1.00  0.00    -0.191 A  
HETATM   11  N   UNL     1     -10.001   9.291  66.734  1.00  0.00    -0.224 NA 
HETATM   12  C   UNL     1      -9.976   8.459  67.849  1.00  0.00    -0.184 A  
HETATM   13  S   UNL     1      -8.710   7.171  66.063  1.00  0.00    -0.126 SA 
HETATM   14  C   UNL     1      -9.291   7.275  67.664  1.00  0.00    -0.128 A  
BRANCH  12  15
HETATM   15  C   UNL     1     -10.658   8.907  69.104  1.00  0.00    -0.195 C  
BRANCH  15  16
HETATM   16  S   UNL     1     -10.110  10.587  69.568  1.00  0.00    -0.128 SA 
BRANCH  16  17
HETATM   17  C   UNL     1     -11.624  11.545  69.212  1.00  0.00    -0.322 C  
BRANCH  17  18
HETATM   18  C   UNL     1     -11.389  12.915  68.586  1.00  0.00    -0.327 C  
BRANCH  18  19
HETATM   19  C   UNL     1     -11.479  12.895  67.060  1.00  0.00    -0.339 C  
HETATM   20  H2  UNL     1     -11.894  10.837  67.040  1.00  0.00     0.000 HD 
HETATM   21  N   UNL     1     -11.756  11.680  66.482  1.00  0.00    -0.471 NA 
HETATM   22  H1  UNL     1     -11.816  11.666  65.463  1.00  0.00     0.000 HD 
BRANCH  19  23
HETATM   23  N   UNL     1     -11.293  14.031  66.473  1.00  0.00    -0.325 N  
HETATM   24  H   UNL     1     -11.021  14.844  67.026  1.00  0.00     0.000 HD 
BRANCH  23  25
HETATM   25  S   UNL     1     -11.486  14.182  64.881  1.00  0.00    -0.387 S  
HETATM   26  O   UNL     1     -12.877  13.996  64.543  1.00  0.00    -0.644 OA 
HETATM   27  O   UNL     1     -10.443  13.443  64.210  1.00  0.00    -0.429 OA 
HETATM   28  N   UNL     1     -11.166  15.796  64.567  1.00  0.00    -0.715 N  
HETATM   29  H1  UNL     1     -11.288  15.891  63.560  1.00  0.00     0.000 HD 
HETATM   30  H2  UNL     1     -10.907  16.522  65.236  1.00  0.00     0.000 HD 
ENDBRANCH  23  25
ENDBRANCH  19  23
ENDBRANCH  18  19
ENDBRANCH  17  18
ENDBRANCH  16  17
ENDBRANCH  15  16
ENDBRANCH  12  15
ENDBRANCH   5  10
TORSDOF 8
ENDMDL
MODEL       80
REMARK 921   NORMALIZED FREE ENERGY PREDICTED BY IDOCK:   -5.11 KCAL/MOL
REMARK 922        TOTAL FREE ENERGY PREDICTED BY IDOCK:   -8.67 KCAL/MOL
REMARK 923 INTER-LIGAND FREE ENERGY PREDICTED BY IDOCK:   -6.50 KCAL/MOL
REMARK 924 INTRA-LIGAND FREE ENERGY PREDICTED BY IDOCK:   -2.17 KCAL/MOL
REMARK 927      BINDING AFFINITY PREDICTED BY RF-SCORE:    0.00 PKD
ROOT
HETATM    1  N   UNL     1     -12.661  14.176  70.094  1.00  0.00    -0.407 NA 
HETATM    2  C   UNL     1     -12.080  13.813  68.925  1.00  0.00    -0.313 C  
HETATM    3  H2  UNL     1     -12.392  13.837  71.017  1.00  0.00     0.000 HD 
HETATM    4  H1  UNL     1     -13.409  14.843  69.906  1.00  0.00     0.000 HD 
HETATM    5  N   UNL     1     -12.484  14.314  67.809  1.00  0.00    -0.509 NA 
HETATM    6  N   UNL     1     -11.085  12.925  69.175  1.00  0.00    -0.385 NA 
HETATM    7  H2  UNL     1     -10.816  12.586  70.098  1.00  0.00     0.000 HD 
HETATM    8  H1  UNL     1     -10.647  12.652  68.295  1.00  0.00     0.000 HD 
HETATM    9  H   UNL     1     -13.239  15.000  67.789  1.00  0.00     0.000 HD 
ENDROOT
BRANCH   5  10
HETATM   10  C   UNL     1     -11.883  13.911  66.661  1.00  0.00    -0.420 A  
HETATM   11  N   UNL     1     -12.124  12.829  65.937  1.00  0.00    -0.510 NA 
HETATM   12  C   UNL     1     -11.301  12.785  64.814  1.00  0.00    -0.309 A  
HETATM   13  S   UNL     1     -10.646  14.931  66.005  1.00  0.00    -0.331 SA 
HETATM   14  C   UNL     1     -10.418  13.841  64.712  1.00  0.00    -0.428 A  
BRANCH  12  15
HETATM   15  C   UNL     1     -11.435  11.639  63.861  1.00  0.00    -0.343 C  
BRANCH  15  16
HETATM   16  S   UNL     1      -9.805  11.186  63.168  1.00  0.00    -0.368 SA 
BRANCH  16  17
HETATM   17  C   UNL     1      -9.003  10.462  64.641  1.00  0.00    -0.209 C  
BRANCH  17  18
HETATM   18  C   UNL     1      -9.907   9.590  65.504  1.00  0.00    -0.304 C  
BRANCH  18  19
HETATM   19  C   UNL     1      -9.832   9.944  66.989  1.00  0.00    -0.191 C  
HETATM   20  H2  UNL     1      -9.442  11.963  66.563  1.00  0.00     0.000 HD 
HETATM   21  N   UNL     1      -9.575  11.260  67.290  1.00  0.00    -0.173 NA 
HETATM   22  H1  UNL     1      -9.525  11.496  68.282  1.00  0.00     0.000 HD 
BRANCH  19  23
HETATM   23  N   UNL     1     -10.029   8.965  67.809  1.00  0.00    -0.181 N  
HETATM   24  H   UNL     1      -9.847   8.009  67.503  1.00  0.00     0.000 HD 
BRANCH  23  25
HETATM   25  S   UNL     1     -10.560   9.232  69.307  1.00  0.00    -0.201 S  
HETATM   26  O   UNL     1      -9.632  10.095  70.000  1.00  0.00    -0.200 OA 
HETATM   27  O   UNL     1     -10.999   7.982  69.880  1.00  0.00    -0.242 OA 
HETATM   28  N   UNL     1     -11.948  10.147  69.106  1.00  0.00    -0.478 N  
HETATM   29  H1  UNL     1     -12.284  10.316  70.054  1.00  0.00     0.000 HD 
HETATM   30  H2  UNL     1     -12.366  10.464  68.231  1.00  0.00     0.000 HD 
ENDBRANCH  23  25
ENDBRANCH  19  23
ENDBRANCH  18  19
ENDBRANCH  17  18
ENDBRANCH  16  17
ENDBRANCH  15  16
ENDBRANCH  12  15
ENDBRANCH   5  10
TORSDOF 8
ENDMDL
MODEL       81
REMARK 921   NORMALIZED FREE ENERGY PREDICTED BY IDOCK:   -5.08 KCAL/MOL
REMARK 922        TOTAL FREE ENERGY PREDICTED BY IDOCK:   -8.63 KCAL/MOL
REMARK 923 INTER-LIGAND FREE ENERGY PREDICTED BY IDOCK:   -6.43 KCAL/MOL
REMARK 924 INTRA-LIGAND FREE ENERGY PREDICTED BY IDOCK:   -2.20 KCAL/MOL
REMARK 927      BINDING AFFINITY PREDICTED BY RF-SCORE:    0.00 PKD
ROOT
HETATM    1  N   UNL     1      -6.230  10.699  65.312  1.00  0.00    -0.302 NA 
HETATM    2  C   UNL     1      -7.399  10.925  65.958  1.00  0.00    -0.081 C  
HETATM    3  H2  UNL     1      -6.095  10.743  64.302  1.00  0.00     0.000 HD 
HETATM    4  H1  UNL     1      -5.505  10.479  65.994  1.00  0.00     0.000 HD 
HETATM    5  N   UNL     1      -7.461  10.863  67.243  1.00  0.00    -0.099 NA 
HETATM    6  N   UNL     1      -8.364  11.218  65.050  1.00  0.00    -0.344 NA 
HETATM    7  H2  UNL     1      -8.230  11.262  64.040  1.00  0.00     0.000 HD 
HETATM    8  H1  UNL     1      -9.245  11.389  65.536  1.00  0.00     0.000 HD 
HETATM    9  H   UNL     1      -6.629  10.653  67.795  1.00  0.00     0.000 HD 
ENDROOT
BRANCH   5  10
HETATM   10  C   UNL     1      -8.657  11.083  67.848  1.00  0.00    -0.133 A  
HETATM   11  N   UNL     1      -9.364  12.202  67.899  1.00  0.00    -0.185 NA 
HETATM   12  C   UNL     1     -10.549  12.011  68.603  1.00  0.00    -0.229 A  
HETATM   13  S   UNL     1      -9.405   9.744  68.651  1.00  0.00    -0.151 SA 
HETATM   14  C   UNL     1     -10.718  10.736  69.104  1.00  0.00    -0.227 A  
BRANCH  12  15
HETATM   15  C   UNL     1     -11.494  13.161  68.758  1.00  0.00    -0.307 C  
BRANCH  15  16
HETATM   16  S   UNL     1     -10.576  14.711  69.066  1.00  0.00    -0.244 SA 
BRANCH  16  17
HETATM   17  C   UNL     1     -10.907  15.613  67.512  1.00  0.00    -0.316 C  
BRANCH  17  18
HETATM   18  C   UNL     1     -11.675  14.823  66.460  1.00  0.00    -0.278 C  
BRANCH  18  19
HETATM   19  C   UNL     1     -10.778  14.286  65.345  1.00  0.00    -0.343 C  
HETATM   20  H2  UNL     1      -9.046  14.597  66.492  1.00  0.00     0.000 HD 
HETATM   21  N   UNL     1      -9.428  14.269  65.605  1.00  0.00    -0.535 NA 
HETATM   22  H1  UNL     1      -8.828  13.912  64.861  1.00  0.00     0.000 HD 
BRANCH  19  23
HETATM   23  N   UNL     1     -11.387  13.893  64.276  1.00  0.00    -0.567 N  
HETATM   24  H   UNL     1     -11.656  14.579  63.570  1.00  0.00     0.000 HD 
BRANCH  23  25
HETATM   25  S   UNL     1     -11.726  12.336  64.040  1.00  0.00    -0.463 S  
HETATM   26  O   UNL     1     -12.984  12.217  63.342  1.00  0.00    -0.753 OA 
HETATM   27  O   UNL     1     -11.471  11.610  65.262  1.00  0.00    -0.230 OA 
HETATM   28  N   UNL     1     -10.566  11.810  62.953  1.00  0.00    -0.639 N  
HETATM   29  H1  UNL     1     -10.781  10.825  62.805  1.00  0.00     0.000 HD 
HETATM   30  H2  UNL     1      -9.811  12.354  62.534  1.00  0.00     0.000 HD 
ENDBRANCH  23  25
ENDBRANCH  19  23
ENDBRANCH  18  19
ENDBRANCH  17  18
ENDBRANCH  16  17
ENDBRANCH  15  16
ENDBRANCH  12  15
ENDBRANCH   5  10
TORSDOF 8
ENDMDL
MODEL       82
REMARK 921   NORMALIZED FREE ENERGY PREDICTED BY IDOCK:   -5.06 KCAL/MOL
REMARK 922        TOTAL FREE ENERGY PREDICTED BY IDOCK:   -8.61 KCAL/MOL
REMARK 923 INTER-LIGAND FREE ENERGY PREDICTED BY IDOCK:   -7.35 KCAL/MOL
REMARK 924 INTRA-LIGAND FREE ENERGY PREDICTED BY IDOCK:   -1.26 KCAL/MOL
REMARK 927      BINDING AFFINITY PREDICTED BY RF-SCORE:    0.00 PKD
ROOT
HETATM    1  N   UNL     1      -6.044  19.827  69.751  1.00  0.00    -0.307 NA 
HETATM    2  C   UNL     1      -6.873  19.390  68.772  1.00  0.00    -0.319 C  
HETATM    3  H2  UNL     1      -5.028  19.746  69.744  1.00  0.00     0.000 HD 
HETATM    4  H1  UNL     1      -6.597  20.249  70.497  1.00  0.00     0.000 HD 
HETATM    5  N   UNL     1      -8.146  19.556  68.869  1.00  0.00    -0.336 NA 
HETATM    6  N   UNL     1      -6.138  18.827  67.780  1.00  0.00    -0.192 NA 
HETATM    7  H2  UNL     1      -5.121  18.747  67.772  1.00  0.00     0.000 HD 
HETATM    8  H1  UNL     1      -6.761  18.499  67.042  1.00  0.00     0.000 HD 
HETATM    9  H   UNL     1      -8.550  20.027  69.678  1.00  0.00     0.000 HD 
ENDROOT
BRANCH   5  10
HETATM   10  C   UNL     1      -8.940  19.090  67.871  1.00  0.00    -0.300 A  
HETATM   11  N   UNL     1      -9.111  17.841  67.465  1.00  0.00    -0.243 NA 
HETATM   12  C   UNL     1     -10.028  17.777  66.419  1.00  0.00    -0.344 A  
HETATM   13  S   UNL     1      -9.893  20.246  67.002  1.00  0.00    -0.452 SA 
HETATM   14  C   UNL     1     -10.532  19.001  66.025  1.00  0.00    -0.458 A  
BRANCH  12  15
HETATM   15  C   UNL     1     -10.366  16.443  65.831  1.00  0.00    -0.362 C  
BRANCH  15  16
HETATM   16  S   UNL     1      -9.399  15.120  66.640  1.00  0.00    -0.285 SA 
BRANCH  16  17
HETATM   17  C   UNL     1     -10.743  14.015  67.197  1.00  0.00    -0.283 C  
BRANCH  17  18
HETATM   18  C   UNL     1     -10.802  13.780  68.702  1.00  0.00    -0.280 C  
BRANCH  18  19
HETATM   19  C   UNL     1     -11.896  14.596  69.389  1.00  0.00    -0.329 C  
HETATM   20  H2  UNL     1     -11.806  16.090  67.917  1.00  0.00     0.000 HD 
HETATM   21  N   UNL     1     -12.250  15.776  68.780  1.00  0.00    -0.507 NA 
HETATM   22  H1  UNL     1     -12.980  16.322  69.239  1.00  0.00     0.000 HD 
BRANCH  19  23
HETATM   23  N   UNL     1     -12.382  14.082  70.470  1.00  0.00    -0.346 N  
HETATM   24  H   UNL     1     -12.337  13.073  70.612  1.00  0.00     0.000 HD 
BRANCH  23  25
HETATM   25  S   UNL     1     -13.059  15.013  71.598  1.00  0.00    -0.402 S  
HETATM   26  O   UNL     1     -13.056  14.319  72.863  1.00  0.00    -0.499 OA 
HETATM   27  O   UNL     1     -14.266  15.597  71.062  1.00  0.00    -0.465 OA 
HETATM   28  N   UNL     1     -11.991  16.289  71.790  1.00  0.00    -0.641 N  
HETATM   29  H1  UNL     1     -12.420  16.878  72.503  1.00  0.00     0.000 HD 
HETATM   30  H2  UNL     1     -11.108  16.442  71.303  1.00  0.00     0.000 HD 
ENDBRANCH  23  25
ENDBRANCH  19  23
ENDBRANCH  18  19
ENDBRANCH  17  18
ENDBRANCH  16  17
ENDBRANCH  15  16
ENDBRANCH  12  15
ENDBRANCH   5  10
TORSDOF 8
ENDMDL
MODEL       83
REMARK 921   NORMALIZED FREE ENERGY PREDICTED BY IDOCK:   -5.06 KCAL/MOL
REMARK 922        TOTAL FREE ENERGY PREDICTED BY IDOCK:   -8.61 KCAL/MOL
REMARK 923 INTER-LIGAND FREE ENERGY PREDICTED BY IDOCK:   -7.19 KCAL/MOL
REMARK 924 INTRA-LIGAND FREE ENERGY PREDICTED BY IDOCK:   -1.42 KCAL/MOL
REMARK 927      BINDING AFFINITY PREDICTED BY RF-SCORE:    0.00 PKD
ROOT
HETATM    1  N   UNL     1     -11.477  14.139  70.991  1.00  0.00    -0.452 NA 
HETATM    2  C   UNL     1     -11.483  14.369  69.656  1.00  0.00    -0.283 C  
HETATM    3  H2  UNL     1     -12.104  14.574  71.668  1.00  0.00     0.000 HD 
HETATM    4  H1  UNL     1     -10.747  13.464  71.214  1.00  0.00     0.000 HD 
HETATM    5  N   UNL     1     -10.657  13.754  68.882  1.00  0.00    -0.341 NA 
HETATM    6  N   UNL     1     -12.454  15.269  69.359  1.00  0.00    -0.601 NA 
HETATM    7  H2  UNL     1     -13.082  15.703  70.035  1.00  0.00     0.000 HD 
HETATM    8  H1  UNL     1     -12.459  15.442  68.354  1.00  0.00     0.000 HD 
HETATM    9  H   UNL     1      -9.994  13.078  69.259  1.00  0.00     0.000 HD 
ENDROOT
BRANCH   5  10
HETATM   10  C   UNL     1     -10.689  14.026  67.552  1.00  0.00    -0.268 A  
HETATM   11  N   UNL     1     -11.604  13.681  66.659  1.00  0.00    -0.346 NA 
HETATM   12  C   UNL     1     -11.279  14.170  65.396  1.00  0.00    -0.325 A  
HETATM   13  S   UNL     1      -9.391  14.967  66.896  1.00  0.00    -0.256 SA 
HETATM   14  C   UNL     1     -10.091  14.871  65.343  1.00  0.00    -0.367 A  
BRANCH  12  15
HETATM   15  C   UNL     1     -12.203  13.894  64.252  1.00  0.00    -0.408 C  
BRANCH  15  16
HETATM   16  S   UNL     1     -12.151  12.126  63.794  1.00  0.00    -0.535 SA 
BRANCH  16  17
HETATM   17  C   UNL     1     -10.425  11.980  63.212  1.00  0.00    -0.359 C  
BRANCH  17  18
HETATM   18  C   UNL     1      -9.780  10.619  63.441  1.00  0.00    -0.387 C  
BRANCH  18  19
HETATM   19  C   UNL     1      -9.398  10.379  64.902  1.00  0.00    -0.243 C  
HETATM   20  H2  UNL     1      -8.376  12.210  65.010  1.00  0.00     0.000 HD 
HETATM   21  N   UNL     1      -8.657  11.365  65.507  1.00  0.00    -0.386 NA 
HETATM   22  H1  UNL     1      -8.401  11.206  66.482  1.00  0.00     0.000 HD 
BRANCH  19  23
HETATM   23  N   UNL     1      -9.824   9.274  65.418  1.00  0.00    -0.444 N  
HETATM   24  H   UNL     1      -9.990   8.469  64.814  1.00  0.00     0.000 HD 
BRANCH  23  25
HETATM   25  S   UNL     1     -10.096   9.150  67.001  1.00  0.00    -0.267 S  
HETATM   26  O   UNL     1     -10.954  10.229  67.429  1.00  0.00    -0.293 OA 
HETATM   27  O   UNL     1      -8.849   8.868  67.671  1.00  0.00    -0.133 OA 
HETATM   28  N   UNL     1     -11.018   7.761  67.164  1.00  0.00    -0.498 N  
HETATM   29  H1  UNL     1     -11.190   7.683  68.166  1.00  0.00     0.000 HD 
HETATM   30  H2  UNL     1     -11.336   7.133  66.426  1.00  0.00     0.000 HD 
ENDBRANCH  23  25
ENDBRANCH  19  23
ENDBRANCH  18  19
ENDBRANCH  17  18
ENDBRANCH  16  17
ENDBRANCH  15  16
ENDBRANCH  12  15
ENDBRANCH   5  10
TORSDOF 8
ENDMDL
MODEL       84
REMARK 921   NORMALIZED FREE ENERGY PREDICTED BY IDOCK:   -5.06 KCAL/MOL
REMARK 922        TOTAL FREE ENERGY PREDICTED BY IDOCK:   -8.61 KCAL/MOL
REMARK 923 INTER-LIGAND FREE ENERGY PREDICTED BY IDOCK:   -7.18 KCAL/MOL
REMARK 924 INTRA-LIGAND FREE ENERGY PREDICTED BY IDOCK:   -1.42 KCAL/MOL
REMARK 927      BINDING AFFINITY PREDICTED BY RF-SCORE:    0.00 PKD
ROOT
HETATM    1  N   UNL     1     -14.272   9.279  72.874  1.00  0.00    -1.017 NA 
HETATM    2  C   UNL     1     -13.349   8.694  72.072  1.00  0.00    -0.392 C  
HETATM    3  H2  UNL     1     -14.748  10.160  72.680  1.00  0.00     0.000 HD 
HETATM    4  H1  UNL     1     -14.416   8.700  73.700  1.00  0.00     0.000 HD 
HETATM    5  N   UNL     1     -12.818   7.567  72.398  1.00  0.00    -0.502 NA 
HETATM    6  N   UNL     1     -13.157   9.465  70.972  1.00  0.00    -0.543 NA 
HETATM    7  H2  UNL     1     -13.633  10.346  70.778  1.00  0.00     0.000 HD 
HETATM    8  H1  UNL     1     -12.463   9.025  70.367  1.00  0.00     0.000 HD 
HETATM    9  H   UNL     1     -13.090   7.093  73.259  1.00  0.00     0.000 HD 
ENDROOT
BRANCH   5  10
HETATM   10  C   UNL     1     -11.887   7.024  71.572  1.00  0.00    -0.314 A  
HETATM   11  N   UNL     1     -11.985   6.759  70.278  1.00  0.00    -0.313 NA 
HETATM   12  C   UNL     1     -10.799   6.218  69.789  1.00  0.00    -0.336 A  
HETATM   13  S   UNL     1     -10.344   6.633  72.253  1.00  0.00    -0.200 SA 
HETATM   14  C   UNL     1      -9.809   6.058  70.738  1.00  0.00    -0.181 A  
BRANCH  12  15
HETATM   15  C   UNL     1     -10.707   5.864  68.338  1.00  0.00    -0.250 C  
BRANCH  15  16
HETATM   16  S   UNL     1      -9.557   6.989  67.471  1.00  0.00    -0.135 SA 
BRANCH  16  17
HETATM   17  C   UNL     1     -10.550   8.522  67.435  1.00  0.00    -0.234 C  
BRANCH  17  18
HETATM   18  C   UNL     1      -9.921   9.715  68.144  1.00  0.00    -0.185 C  
BRANCH  18  19
HETATM   19  C   UNL     1     -10.757  10.989  68.021  1.00  0.00    -0.217 C  
HETATM   20  H2  UNL     1     -12.448  10.043  68.830  1.00  0.00     0.000 HD 
HETATM   21  N   UNL     1     -12.060  10.907  68.451  1.00  0.00    -0.818 NA 
HETATM   22  H1  UNL     1     -12.618  11.756  68.368  1.00  0.00     0.000 HD 
BRANCH  19  23
HETATM   23  N   UNL     1     -10.144  12.016  67.534  1.00  0.00    -0.194 N  
HETATM   24  H   UNL     1      -9.128  12.078  67.608  1.00  0.00     0.000 HD 
BRANCH  23  25
HETATM   25  S   UNL     1     -10.961  13.202  66.811  1.00  0.00    -0.284 S  
HETATM   26  O   UNL     1     -10.040  14.061  66.104  1.00  0.00    -0.290 OA 
HETATM   27  O   UNL     1     -11.931  13.737  67.737  1.00  0.00    -0.361 OA 
HETATM   28  N   UNL     1     -11.853  12.435  65.619  1.00  0.00    -0.418 N  
HETATM   29  H1  UNL     1     -12.370  13.185  65.161  1.00  0.00     0.000 HD 
HETATM   30  H2  UNL     1     -11.875  11.438  65.400  1.00  0.00     0.000 HD 
ENDBRANCH  23  25
ENDBRANCH  19  23
ENDBRANCH  18  19
ENDBRANCH  17  18
ENDBRANCH  16  17
ENDBRANCH  15  16
ENDBRANCH  12  15
ENDBRANCH   5  10
TORSDOF 8
ENDMDL
MODEL       85
REMARK 921   NORMALIZED FREE ENERGY PREDICTED BY IDOCK:   -5.06 KCAL/MOL
REMARK 922        TOTAL FREE ENERGY PREDICTED BY IDOCK:   -8.60 KCAL/MOL
REMARK 923 INTER-LIGAND FREE ENERGY PREDICTED BY IDOCK:   -7.70 KCAL/MOL
REMARK 924 INTRA-LIGAND FREE ENERGY PREDICTED BY IDOCK:   -0.91 KCAL/MOL
REMARK 927      BINDING AFFINITY PREDICTED BY RF-SCORE:    0.00 PKD
ROOT
HETATM    1  N   UNL     1      -8.808   9.583  62.370  1.00  0.00    -0.231 NA 
HETATM    2  C   UNL     1      -9.500  10.294  63.293  1.00  0.00    -0.300 C  
HETATM    3  H2  UNL     1      -8.359   8.682  62.535  1.00  0.00     0.000 HD 
HETATM    4  H1  UNL     1      -8.807  10.089  61.486  1.00  0.00     0.000 HD 
HETATM    5  N   UNL     1     -10.046  11.418  62.979  1.00  0.00    -0.595 NA 
HETATM    6  N   UNL     1      -9.501   9.621  64.471  1.00  0.00    -0.432 NA 
HETATM    7  H2  UNL     1      -9.053   8.720  64.636  1.00  0.00     0.000 HD 
HETATM    8  H1  UNL     1     -10.023  10.156  65.166  1.00  0.00     0.000 HD 
HETATM    9  H   UNL     1      -9.975  11.784  62.030  1.00  0.00     0.000 HD 
ENDROOT
BRANCH   5  10
HETATM   10  C   UNL     1     -10.718  12.104  63.939  1.00  0.00    -0.407 A  
HETATM   11  N   UNL     1     -10.253  12.616  65.068  1.00  0.00    -0.287 NA 
HETATM   12  C   UNL     1     -11.263  13.264  65.775  1.00  0.00    -0.294 A  
HETATM   13  S   UNL     1     -12.407  12.393  63.681  1.00  0.00    -0.536 SA 
HETATM   14  C   UNL     1     -12.504  13.215  65.173  1.00  0.00    -0.483 A  
BRANCH  12  15
HETATM   15  C   UNL     1     -10.929  13.921  67.077  1.00  0.00    -0.295 C  
BRANCH  15  16
HETATM   16  S   UNL     1     -10.294  12.694  68.273  1.00  0.00    -0.244 SA 
BRANCH  16  17
HETATM   17  C   UNL     1     -11.852  11.896  68.796  1.00  0.00    -0.313 C  
BRANCH  17  18
HETATM   18  C   UNL     1     -11.867  11.391  70.234  1.00  0.00    -0.438 C  
BRANCH  18  19
HETATM   19  C   UNL     1     -11.411   9.938  70.359  1.00  0.00    -0.301 C  
HETATM   20  H2  UNL     1     -11.502   9.655  68.281  1.00  0.00     0.000 HD 
HETATM   21  N   UNL     1     -11.295   9.232  69.186  1.00  0.00    -0.429 NA 
HETATM   22  H1  UNL     1     -10.991   8.262  69.269  1.00  0.00     0.000 HD 
BRANCH  19  23
HETATM   23  N   UNL     1     -11.172   9.527  71.561  1.00  0.00    -0.383 N  
HETATM   24  H   UNL     1     -10.464  10.001  72.122  1.00  0.00     0.000 HD 
BRANCH  23  25
HETATM   25  S   UNL     1     -11.977   8.279  72.185  1.00  0.00    -0.392 S  
HETATM   26  O   UNL     1     -11.320   7.836  73.392  1.00  0.00    -0.287 OA 
HETATM   27  O   UNL     1     -12.308   7.356  71.125  1.00  0.00    -0.327 OA 
HETATM   28  N   UNL     1     -13.437   8.927  72.689  1.00  0.00    -0.721 N  
HETATM   29  H1  UNL     1     -13.946   8.136  73.084  1.00  0.00     0.000 HD 
HETATM   30  H2  UNL     1     -13.748   9.896  72.617  1.00  0.00     0.000 HD 
ENDBRANCH  23  25
ENDBRANCH  19  23
ENDBRANCH  18  19
ENDBRANCH  17  18
ENDBRANCH  16  17
ENDBRANCH  15  16
ENDBRANCH  12  15
ENDBRANCH   5  10
TORSDOF 8
ENDMDL
MODEL       86
REMARK 921   NORMALIZED FREE ENERGY PREDICTED BY IDOCK:   -5.05 KCAL/MOL
REMARK 922        TOTAL FREE ENERGY PREDICTED BY IDOCK:   -8.59 KCAL/MOL
REMARK 923 INTER-LIGAND FREE ENERGY PREDICTED BY IDOCK:   -7.15 KCAL/MOL
REMARK 924 INTRA-LIGAND FREE ENERGY PREDICTED BY IDOCK:   -1.45 KCAL/MOL
REMARK 927      BINDING AFFINITY PREDICTED BY RF-SCORE:    0.00 PKD
ROOT
HETATM    1  N   UNL     1     -10.228  20.426  65.795  1.00  0.00    -0.491 NA 
HETATM    2  C   UNL     1      -9.386  19.708  66.579  1.00  0.00    -0.384 C  
HETATM    3  H2  UNL     1     -11.046  20.939  66.123  1.00  0.00     0.000 HD 
HETATM    4  H1  UNL     1      -9.914  20.372  64.827  1.00  0.00     0.000 HD 
HETATM    5  N   UNL     1      -8.367  19.109  66.068  1.00  0.00    -0.458 NA 
HETATM    6  N   UNL     1      -9.803  19.779  67.868  1.00  0.00    -0.381 NA 
HETATM    7  H2  UNL     1     -10.621  20.292  68.196  1.00  0.00     0.000 HD 
HETATM    8  H1  UNL     1      -9.170  19.240  68.458  1.00  0.00     0.000 HD 
HETATM    9  H   UNL     1      -8.172  19.172  65.069  1.00  0.00     0.000 HD 
ENDROOT
BRANCH   5  10
HETATM   10  C   UNL     1      -7.558  18.389  66.888  1.00  0.00    -0.218 A  
HETATM   11  N   UNL     1      -7.785  17.209  67.445  1.00  0.00    -0.168 NA 
HETATM   12  C   UNL     1      -6.694  16.801  68.208  1.00  0.00    -0.154 A  
HETATM   13  S   UNL     1      -6.004  19.055  67.262  1.00  0.00    -0.162 SA 
HETATM   14  C   UNL     1      -5.647  17.701  68.238  1.00  0.00    -0.152 A  
BRANCH  12  15
HETATM   15  C   UNL     1      -6.753  15.480  68.909  1.00  0.00    -0.116 C  
BRANCH  15  16
HETATM   16  S   UNL     1      -7.163  14.144  67.731  1.00  0.00    -0.187 SA 
BRANCH  16  17
HETATM   17  C   UNL     1      -8.907  13.828  68.175  1.00  0.00    -0.185 C  
BRANCH  17  18
HETATM   18  C   UNL     1      -9.757  13.225  67.063  1.00  0.00    -0.238 C  
BRANCH  18  19
HETATM   19  C   UNL     1     -10.305  14.274  66.096  1.00  0.00    -0.299 C  
HETATM   20  H2  UNL     1     -10.086  15.803  67.520  1.00  0.00     0.000 HD 
HETATM   21  N   UNL     1     -10.380  15.561  66.573  1.00  0.00    -0.280 NA 
HETATM   22  H1  UNL     1     -10.746  16.262  65.928  1.00  0.00     0.000 HD 
BRANCH  19  23
HETATM   23  N   UNL     1     -10.632  13.840  64.925  1.00  0.00    -0.390 N  
HETATM   24  H   UNL     1      -9.934  13.364  64.352  1.00  0.00     0.000 HD 
BRANCH  23  25
HETATM   25  S   UNL     1     -12.126  14.039  64.355  1.00  0.00    -0.432 S  
HETATM   26  O   UNL     1     -13.060  14.081  65.455  1.00  0.00    -0.763 OA 
HETATM   27  O   UNL     1     -12.322  13.153  63.232  1.00  0.00    -0.712 OA 
HETATM   28  N   UNL     1     -12.131  15.586  63.713  1.00  0.00    -0.974 N  
HETATM   29  H1  UNL     1     -13.076  15.712  63.352  1.00  0.00     0.000 HD 
HETATM   30  H2  UNL     1     -11.360  16.254  63.687  1.00  0.00     0.000 HD 
ENDBRANCH  23  25
ENDBRANCH  19  23
ENDBRANCH  18  19
ENDBRANCH  17  18
ENDBRANCH  16  17
ENDBRANCH  15  16
ENDBRANCH  12  15
ENDBRANCH   5  10
TORSDOF 8
ENDMDL
MODEL       87
REMARK 921   NORMALIZED FREE ENERGY PREDICTED BY IDOCK:   -5.03 KCAL/MOL
REMARK 922        TOTAL FREE ENERGY PREDICTED BY IDOCK:   -8.56 KCAL/MOL
REMARK 923 INTER-LIGAND FREE ENERGY PREDICTED BY IDOCK:   -7.35 KCAL/MOL
REMARK 924 INTRA-LIGAND FREE ENERGY PREDICTED BY IDOCK:   -1.21 KCAL/MOL
REMARK 927      BINDING AFFINITY PREDICTED BY RF-SCORE:    0.00 PKD
ROOT
HETATM    1  N   UNL     1     -12.516  13.910  63.025  1.00  0.00    -1.009 NA 
HETATM    2  C   UNL     1     -12.225  13.560  64.301  1.00  0.00    -0.396 C  
HETATM    3  H2  UNL     1     -13.235  13.479  62.444  1.00  0.00     0.000 HD 
HETATM    4  H1  UNL     1     -11.902  14.671  62.736  1.00  0.00     0.000 HD 
HETATM    5  N   UNL     1     -11.307  14.180  64.958  1.00  0.00    -0.334 NA 
HETATM    6  N   UNL     1     -13.041  12.546  64.686  1.00  0.00    -0.837 NA 
HETATM    7  H2  UNL     1     -13.761  12.116  64.105  1.00  0.00     0.000 HD 
HETATM    8  H1  UNL     1     -12.824  12.283  65.647  1.00  0.00     0.000 HD 
HETATM    9  H   UNL     1     -10.791  14.949  64.531  1.00  0.00     0.000 HD 
ENDROOT
BRANCH   5  10
HETATM   10  C   UNL     1     -11.039  13.787  66.230  1.00  0.00    -0.302 A  
HETATM   11  N   UNL     1     -10.530  12.639  66.651  1.00  0.00    -0.243 NA 
HETATM   12  C   UNL     1     -10.393  12.633  68.037  1.00  0.00    -0.228 A  
HETATM   13  S   UNL     1     -11.370  14.915  67.501  1.00  0.00    -0.340 SA 
HETATM   14  C   UNL     1     -10.828  13.785  68.660  1.00  0.00    -0.263 A  
BRANCH  12  15
HETATM   15  C   UNL     1      -9.819  11.422  68.703  1.00  0.00    -0.193 C  
BRANCH  15  16
HETATM   16  S   UNL     1      -9.306  10.185  67.459  1.00  0.00    -0.152 SA 
BRANCH  16  17
HETATM   17  C   UNL     1     -10.654   8.963  67.624  1.00  0.00    -0.224 C  
BRANCH  17  18
HETATM   18  C   UNL     1     -10.271   7.673  68.340  1.00  0.00    -0.226 C  
BRANCH  18  19
HETATM   19  C   UNL     1     -11.027   7.476  69.654  1.00  0.00    -0.153 C  
HETATM   20  H2  UNL     1     -10.588   5.422  69.681  1.00  0.00     0.000 HD 
HETATM   21  N   UNL     1     -11.050   6.197  70.158  1.00  0.00    -0.355 NA 
HETATM   22  H1  UNL     1     -11.555   6.064  71.034  1.00  0.00     0.000 HD 
BRANCH  19  23
HETATM   23  N   UNL     1     -11.559   8.539  70.160  1.00  0.00    -0.461 N  
HETATM   24  H   UNL     1     -11.397   9.442  69.714  1.00  0.00     0.000 HD 
BRANCH  23  25
HETATM   25  S   UNL     1     -12.472   8.458  71.485  1.00  0.00    -0.306 S  
HETATM   26  O   UNL     1     -13.113   9.732  71.707  1.00  0.00    -0.369 OA 
HETATM   27  O   UNL     1     -11.727   7.796  72.529  1.00  0.00    -0.344 OA 
HETATM   28  N   UNL     1     -13.711   7.405  71.080  1.00  0.00    -0.613 N  
HETATM   29  H1  UNL     1     -14.289   7.354  71.919  1.00  0.00     0.000 HD 
HETATM   30  H2  UNL     1     -13.855   6.923  70.193  1.00  0.00     0.000 HD 
ENDBRANCH  23  25
ENDBRANCH  19  23
ENDBRANCH  18  19
ENDBRANCH  17  18
ENDBRANCH  16  17
ENDBRANCH  15  16
ENDBRANCH  12  15
ENDBRANCH   5  10
TORSDOF 8
ENDMDL
MODEL       88
REMARK 921   NORMALIZED FREE ENERGY PREDICTED BY IDOCK:   -5.02 KCAL/MOL
REMARK 922        TOTAL FREE ENERGY PREDICTED BY IDOCK:   -8.55 KCAL/MOL
REMARK 923 INTER-LIGAND FREE ENERGY PREDICTED BY IDOCK:   -7.34 KCAL/MOL
REMARK 924 INTRA-LIGAND FREE ENERGY PREDICTED BY IDOCK:   -1.21 KCAL/MOL
REMARK 927      BINDING AFFINITY PREDICTED BY RF-SCORE:    0.00 PKD
ROOT
HETATM    1  N   UNL     1     -11.118   5.044  73.991  1.00  0.00    -0.413 NA 
HETATM    2  C   UNL     1     -11.070   6.269  73.414  1.00  0.00    -0.043 C  
HETATM    3  H2  UNL     1     -10.493   4.715  74.727  1.00  0.00     0.000 HD 
HETATM    4  H1  UNL     1     -11.876   4.505  73.576  1.00  0.00     0.000 HD 
HETATM    5  N   UNL     1     -11.919   6.596  72.502  1.00  0.00    -0.506 NA 
HETATM    6  N   UNL     1     -10.061   6.988  73.966  1.00  0.00    -0.374 NA 
HETATM    7  H2  UNL     1      -9.436   6.658  74.702  1.00  0.00     0.000 HD 
HETATM    8  H1  UNL     1     -10.025   7.910  73.532  1.00  0.00     0.000 HD 
HETATM    9  H   UNL     1     -12.646   5.944  72.208  1.00  0.00     0.000 HD 
ENDROOT
BRANCH   5  10
HETATM   10  C   UNL     1     -11.826   7.829  71.940  1.00  0.00    -0.297 A  
HETATM   11  N   UNL     1     -10.869   8.314  71.164  1.00  0.00    -0.228 NA 
HETATM   12  C   UNL     1     -11.155   9.621  70.777  1.00  0.00    -0.334 A  
HETATM   13  S   UNL     1     -13.123   8.940  72.230  1.00  0.00    -0.430 SA 
HETATM   14  C   UNL     1     -12.332  10.125  71.291  1.00  0.00    -0.400 A  
BRANCH  12  15
HETATM   15  C   UNL     1     -10.193  10.339  69.882  1.00  0.00    -0.202 C  
BRANCH  15  16
HETATM   16  S   UNL     1     -10.982  10.745  68.285  1.00  0.00    -0.278 SA 
BRANCH  16  17
HETATM   17  C   UNL     1     -10.712  12.551  68.226  1.00  0.00    -0.228 C  
BRANCH  17  18
HETATM   18  C   UNL     1     -11.966  13.397  68.418  1.00  0.00    -0.359 C  
BRANCH  18  19
HETATM   19  C   UNL     1     -11.908  14.269  69.672  1.00  0.00    -0.318 C  
HETATM   20  H2  UNL     1     -11.271  15.938  68.568  1.00  0.00     0.000 HD 
HETATM   21  N   UNL     1     -11.513  15.573  69.489  1.00  0.00    -0.307 NA 
HETATM   22  H1  UNL     1     -11.473  16.155  70.326  1.00  0.00     0.000 HD 
BRANCH  19  23
HETATM   23  N   UNL     1     -12.248  13.688  70.775  1.00  0.00    -0.393 N  
HETATM   24  H   UNL     1     -12.050  12.696  70.901  1.00  0.00     0.000 HD 
BRANCH  23  25
HETATM   25  S   UNL     1     -12.979  14.510  71.952  1.00  0.00    -0.363 S  
HETATM   26  O   UNL     1     -12.034  15.410  72.570  1.00  0.00    -0.377 OA 
HETATM   27  O   UNL     1     -13.775  13.597  72.737  1.00  0.00    -0.707 OA 
HETATM   28  N   UNL     1     -14.077  15.496  71.161  1.00  0.00    -0.785 N  
HETATM   29  H1  UNL     1     -14.539  16.016  71.906  1.00  0.00     0.000 HD 
HETATM   30  H2  UNL     1     -14.245  15.563  70.156  1.00  0.00     0.000 HD 
ENDBRANCH  23  25
ENDBRANCH  19  23
ENDBRANCH  18  19
ENDBRANCH  17  18
ENDBRANCH  16  17
ENDBRANCH  15  16
ENDBRANCH  12  15
ENDBRANCH   5  10
TORSDOF 8
ENDMDL
MODEL       89
REMARK 921   NORMALIZED FREE ENERGY PREDICTED BY IDOCK:   -5.02 KCAL/MOL
REMARK 922        TOTAL FREE ENERGY PREDICTED BY IDOCK:   -8.55 KCAL/MOL
REMARK 923 INTER-LIGAND FREE ENERGY PREDICTED BY IDOCK:   -7.37 KCAL/MOL
REMARK 924 INTRA-LIGAND FREE ENERGY PREDICTED BY IDOCK:   -1.18 KCAL/MOL
REMARK 927      BINDING AFFINITY PREDICTED BY RF-SCORE:    0.00 PKD
ROOT
HETATM    1  N   UNL     1     -10.283  18.140  66.010  1.00  0.00    -0.558 NA 
HETATM    2  C   UNL     1     -10.505  16.804  65.950  1.00  0.00    -0.301 C  
HETATM    3  H2  UNL     1     -10.173  18.682  66.867  1.00  0.00     0.000 HD 
HETATM    4  H1  UNL     1     -10.241  18.518  65.064  1.00  0.00     0.000 HD 
HETATM    5  N   UNL     1     -10.612  16.209  64.813  1.00  0.00    -0.735 NA 
HETATM    6  N   UNL     1     -10.560  16.301  67.209  1.00  0.00    -0.311 NA 
HETATM    7  H2  UNL     1     -10.451  16.843  68.066  1.00  0.00     0.000 HD 
HETATM    8  H1  UNL     1     -10.728  15.296  67.164  1.00  0.00     0.000 HD 
HETATM    9  H   UNL     1     -10.520  16.730  63.941  1.00  0.00     0.000 HD 
ENDROOT
BRANCH   5  10
HETATM   10  C   UNL     1     -10.849  14.872  64.800  1.00  0.00    -0.363 A  
HETATM   11  N   UNL     1     -10.045  13.886  65.169  1.00  0.00    -0.334 NA 
HETATM   12  C   UNL     1     -10.669  12.651  65.019  1.00  0.00    -0.293 A  
HETATM   13  S   UNL     1     -12.406  14.341  64.259  1.00  0.00    -0.267 SA 
HETATM   14  C   UNL     1     -11.951  12.715  64.510  1.00  0.00    -0.399 A  
BRANCH  12  15
HETATM   15  C   UNL     1      -9.923  11.410  65.399  1.00  0.00    -0.245 C  
BRANCH  15  16
HETATM   16  S   UNL     1      -8.962  11.680  66.929  1.00  0.00    -0.196 SA 
BRANCH  16  17
HETATM   17  C   UNL     1     -10.291  11.604  68.180  1.00  0.00    -0.194 C  
BRANCH  17  18
HETATM   18  C   UNL     1     -10.749  12.955  68.717  1.00  0.00    -0.249 C  
BRANCH  18  19
HETATM   19  C   UNL     1     -11.878  12.837  69.741  1.00  0.00    -0.310 C  
HETATM   20  H2  UNL     1     -11.255  10.915  70.313  1.00  0.00     0.000 HD 
HETATM   21  N   UNL     1     -11.931  11.665  70.457  1.00  0.00    -0.448 NA 
HETATM   22  H1  UNL     1     -12.685  11.585  71.140  1.00  0.00     0.000 HD 
BRANCH  19  23
HETATM   23  N   UNL     1     -12.661  13.861  69.832  1.00  0.00    -0.320 N  
HETATM   24  H   UNL     1     -13.065  14.262  68.986  1.00  0.00     0.000 HD 
BRANCH  23  25
HETATM   25  S   UNL     1     -13.008  14.513  71.264  1.00  0.00    -0.352 S  
HETATM   26  O   UNL     1     -13.494  13.487  72.156  1.00  0.00    -0.449 OA 
HETATM   27  O   UNL     1     -13.739  15.740  71.057  1.00  0.00    -0.539 OA 
HETATM   28  N   UNL     1     -11.524  14.974  71.889  1.00  0.00    -0.506 N  
HETATM   29  H1  UNL     1     -11.744  15.386  72.795  1.00  0.00     0.000 HD 
HETATM   30  H2  UNL     1     -10.605  14.866  71.460  1.00  0.00     0.000 HD 
ENDBRANCH  23  25
ENDBRANCH  19  23
ENDBRANCH  18  19
ENDBRANCH  17  18
ENDBRANCH  16  17
ENDBRANCH  15  16
ENDBRANCH  12  15
ENDBRANCH   5  10
TORSDOF 8
ENDMDL
MODEL       90
REMARK 921   NORMALIZED FREE ENERGY PREDICTED BY IDOCK:   -5.02 KCAL/MOL
REMARK 922        TOTAL FREE ENERGY PREDICTED BY IDOCK:   -8.54 KCAL/MOL
REMARK 923 INTER-LIGAND FREE ENERGY PREDICTED BY IDOCK:   -7.51 KCAL/MOL
REMARK 924 INTRA-LIGAND FREE ENERGY PREDICTED BY IDOCK:   -1.02 KCAL/MOL
REMARK 927      BINDING AFFINITY PREDICTED BY RF-SCORE:    0.00 PKD
ROOT
HETATM    1  N   UNL     1     -10.079   3.493  66.233  1.00  0.00    -0.327 NA 
HETATM    2  C   UNL     1     -10.281   4.726  66.759  1.00  0.00    -0.213 C  
HETATM    3  H2  UNL     1     -10.449   3.165  65.341  1.00  0.00     0.000 HD 
HETATM    4  H1  UNL     1      -9.500   2.946  66.868  1.00  0.00     0.000 HD 
HETATM    5  N   UNL     1      -9.753   5.050  67.888  1.00  0.00    -0.146 NA 
HETATM    6  N   UNL     1     -11.052   5.454  65.913  1.00  0.00    -0.769 NA 
HETATM    7  H2  UNL     1     -11.422   5.126  65.021  1.00  0.00     0.000 HD 
HETATM    8  H1  UNL     1     -11.204   6.382  66.308  1.00  0.00     0.000 HD 
HETATM    9  H   UNL     1      -9.169   4.389  68.400  1.00  0.00     0.000 HD 
ENDROOT
BRANCH   5  10
HETATM   10  C   UNL     1      -9.993   6.291  68.385  1.00  0.00    -0.140 A  
HETATM   11  N   UNL     1      -9.470   7.448  68.007  1.00  0.00    -0.140 NA 
HETATM   12  C   UNL     1      -9.991   8.499  68.757  1.00  0.00    -0.186 A  
HETATM   13  S   UNL     1     -11.148   6.430  69.668  1.00  0.00    -0.423 SA 
HETATM   14  C   UNL     1     -10.899   8.117  69.724  1.00  0.00    -0.190 A  
BRANCH  12  15
HETATM   15  C   UNL     1      -9.531   9.894  68.468  1.00  0.00    -0.146 C  
BRANCH  15  16
HETATM   16  S   UNL     1     -10.691  10.731  67.331  1.00  0.00    -0.285 SA 
BRANCH  16  17
HETATM   17  C   UNL     1     -10.129  10.064  65.725  1.00  0.00    -0.250 C  
BRANCH  17  18
HETATM   18  C   UNL     1      -9.469  11.080  64.801  1.00  0.00    -0.267 C  
BRANCH  18  19
HETATM   19  C   UNL     1     -10.473  11.829  63.925  1.00  0.00    -0.390 C  
HETATM   20  H2  UNL     1     -10.756  10.154  62.691  1.00  0.00     0.000 HD 
HETATM   21  N   UNL     1     -11.012  11.124  62.876  1.00  0.00    -0.785 NA 
HETATM   22  H1  UNL     1     -11.682  11.624  62.291  1.00  0.00     0.000 HD 
BRANCH  19  23
HETATM   23  N   UNL     1     -10.717  13.049  64.272  1.00  0.00    -0.389 N  
HETATM   24  H   UNL     1      -9.947  13.712  64.354  1.00  0.00     0.000 HD 
BRANCH  23  25
HETATM   25  S   UNL     1     -12.222  13.538  64.577  1.00  0.00    -0.384 S  
HETATM   26  O   UNL     1     -13.122  12.412  64.488  1.00  0.00    -0.823 OA 
HETATM   27  O   UNL     1     -12.473  14.763  63.856  1.00  0.00    -0.811 OA 
HETATM   28  N   UNL     1     -12.208  13.964  66.197  1.00  0.00    -0.449 N  
HETATM   29  H1  UNL     1     -13.160  14.273  66.390  1.00  0.00     0.000 HD 
HETATM   30  H2  UNL     1     -11.422  13.924  66.846  1.00  0.00     0.000 HD 
ENDBRANCH  23  25
ENDBRANCH  19  23
ENDBRANCH  18  19
ENDBRANCH  17  18
ENDBRANCH  16  17
ENDBRANCH  15  16
ENDBRANCH  12  15
ENDBRANCH   5  10
TORSDOF 8
ENDMDL
MODEL       91
REMARK 921   NORMALIZED FREE ENERGY PREDICTED BY IDOCK:   -5.02 KCAL/MOL
REMARK 922        TOTAL FREE ENERGY PREDICTED BY IDOCK:   -8.54 KCAL/MOL
REMARK 923 INTER-LIGAND FREE ENERGY PREDICTED BY IDOCK:   -7.34 KCAL/MOL
REMARK 924 INTRA-LIGAND FREE ENERGY PREDICTED BY IDOCK:   -1.20 KCAL/MOL
REMARK 927      BINDING AFFINITY PREDICTED BY RF-SCORE:    0.00 PKD
ROOT
HETATM    1  N   UNL     1     -12.400  15.087  68.862  1.00  0.00    -0.594 NA 
HETATM    2  C   UNL     1     -11.846  14.309  67.900  1.00  0.00    -0.358 C  
HETATM    3  H2  UNL     1     -11.928  15.406  69.707  1.00  0.00     0.000 HD 
HETATM    4  H1  UNL     1     -13.364  15.302  68.607  1.00  0.00     0.000 HD 
HETATM    5  N   UNL     1     -12.524  13.973  66.858  1.00  0.00    -0.529 NA 
HETATM    6  N   UNL     1     -10.564  14.022  68.239  1.00  0.00    -0.242 NA 
HETATM    7  H2  UNL     1     -10.091  14.341  69.084  1.00  0.00     0.000 HD 
HETATM    8  H1  UNL     1     -10.146  13.437  67.515  1.00  0.00     0.000 HD 
HETATM    9  H   UNL     1     -13.484  14.295  66.735  1.00  0.00     0.000 HD 
ENDROOT
BRANCH   5  10
HETATM   10  C   UNL     1     -11.934  13.181  65.926  1.00  0.00    -0.427 A  
HETATM   11  N   UNL     1     -11.309  12.026  66.099  1.00  0.00    -0.345 NA 
HETATM   12  C   UNL     1     -10.856  11.518  64.884  1.00  0.00    -0.283 A  
HETATM   13  S   UNL     1     -12.004  13.700  64.275  1.00  0.00    -0.437 SA 
HETATM   14  C   UNL     1     -11.128  12.318  63.792  1.00  0.00    -0.442 A  
BRANCH  12  15
HETATM   15  C   UNL     1     -10.134  10.207  64.871  1.00  0.00    -0.207 C  
BRANCH  15  16
HETATM   16  S   UNL     1      -8.584  10.316  65.833  1.00  0.00    -0.158 SA 
BRANCH  16  17
HETATM   17  C   UNL     1      -8.861   8.998  67.067  1.00  0.00    -0.119 C  
BRANCH  17  18
HETATM   18  C   UNL     1     -10.318   8.600  67.270  1.00  0.00    -0.366 C  
BRANCH  18  19
HETATM   19  C   UNL     1     -10.571   7.115  67.010  1.00  0.00    -0.343 C  
HETATM   20  H2  UNL     1     -11.973   7.007  68.570  1.00  0.00     0.000 HD 
HETATM   21  N   UNL     1     -11.488   6.500  67.830  1.00  0.00    -0.663 NA 
HETATM   22  H1  UNL     1     -11.657   5.509  67.657  1.00  0.00     0.000 HD 
BRANCH  19  23
HETATM   23  N   UNL     1      -9.900   6.594  66.037  1.00  0.00    -0.391 N  
HETATM   24  H   UNL     1      -9.473   7.203  65.339  1.00  0.00     0.000 HD 
BRANCH  23  25
HETATM   25  S   UNL     1      -9.729   4.997  65.910  1.00  0.00    -0.149 S  
HETATM   26  O   UNL     1      -9.673   4.412  67.229  1.00  0.00    -0.181 OA 
HETATM   27  O   UNL     1      -8.723   4.710  64.915  1.00  0.00    -0.133 OA 
HETATM   28  N   UNL     1     -11.175   4.468  65.252  1.00  0.00    -0.973 N  
HETATM   29  H1  UNL     1     -11.067   3.457  65.172  1.00  0.00     0.000 HD 
HETATM   30  H2  UNL     1     -11.985   5.031  64.990  1.00  0.00     0.000 HD 
ENDBRANCH  23  25
ENDBRANCH  19  23
ENDBRANCH  18  19
ENDBRANCH  17  18
ENDBRANCH  16  17
ENDBRANCH  15  16
ENDBRANCH  12  15
ENDBRANCH   5  10
TORSDOF 8
ENDMDL
MODEL       92
REMARK 921   NORMALIZED FREE ENERGY PREDICTED BY IDOCK:   -5.01 KCAL/MOL
REMARK 922        TOTAL FREE ENERGY PREDICTED BY IDOCK:   -8.54 KCAL/MOL
REMARK 923 INTER-LIGAND FREE ENERGY PREDICTED BY IDOCK:   -7.63 KCAL/MOL
REMARK 924 INTRA-LIGAND FREE ENERGY PREDICTED BY IDOCK:   -0.90 KCAL/MOL
REMARK 927      BINDING AFFINITY PREDICTED BY RF-SCORE:    0.00 PKD
ROOT
HETATM    1  N   UNL     1     -14.045   8.864  73.197  1.00  0.00    -1.225 NA 
HETATM    2  C   UNL     1     -13.193   8.759  72.149  1.00  0.00    -0.414 C  
HETATM    3  H2  UNL     1     -15.037   9.093  73.130  1.00  0.00     0.000 HD 
HETATM    4  H1  UNL     1     -13.540   8.679  74.063  1.00  0.00     0.000 HD 
HETATM    5  N   UNL     1     -11.957   8.447  72.338  1.00  0.00    -0.389 NA 
HETATM    6  N   UNL     1     -13.865   9.006  70.996  1.00  0.00    -0.574 NA 
HETATM    7  H2  UNL     1     -14.856   9.234  70.929  1.00  0.00     0.000 HD 
HETATM    8  H1  UNL     1     -13.223   8.926  70.207  1.00  0.00     0.000 HD 
HETATM    9  H   UNL     1     -11.604   8.265  73.277  1.00  0.00     0.000 HD 
ENDROOT
BRANCH   5  10
HETATM   10  C   UNL     1     -11.135   8.366  71.261  1.00  0.00    -0.255 A  
HETATM   11  N   UNL     1     -11.449   8.116  69.998  1.00  0.00    -0.015 NA 
HETATM   12  C   UNL     1     -10.315   8.137  69.190  1.00  0.00    -0.220 A  
HETATM   13  S   UNL     1      -9.446   8.645  71.521  1.00  0.00    -0.273 SA 
HETATM   14  C   UNL     1      -9.136   8.385  69.863  1.00  0.00    -0.146 A  
BRANCH  12  15
HETATM   15  C   UNL     1     -10.468   7.889  67.721  1.00  0.00    -0.212 C  
BRANCH  15  16
HETATM   16  S   UNL     1      -8.904   8.242  66.844  1.00  0.00    -0.145 SA 
BRANCH  16  17
HETATM   17  C   UNL     1      -9.457   9.535  65.678  1.00  0.00    -0.261 C  
BRANCH  17  18
HETATM   18  C   UNL     1      -9.350  10.963  66.200  1.00  0.00    -0.211 C  
BRANCH  18  19
HETATM   19  C   UNL     1     -10.687  11.703  66.187  1.00  0.00    -0.278 C  
HETATM   20  H2  UNL     1     -11.423  10.548  67.779  1.00  0.00     0.000 HD 
HETATM   21  N   UNL     1     -11.616  11.300  67.117  1.00  0.00    -0.513 NA 
HETATM   22  H1  UNL     1     -12.509  11.794  67.108  1.00  0.00     0.000 HD 
BRANCH  19  23
HETATM   23  N   UNL     1     -10.800  12.640  65.305  1.00  0.00    -0.281 N  
HETATM   24  H   UNL     1      -9.999  12.879  64.720  1.00  0.00     0.000 HD 
BRANCH  23  25
HETATM   25  S   UNL     1     -12.187  13.438  65.118  1.00  0.00    -0.461 S  
HETATM   26  O   UNL     1     -13.229  12.512  64.743  1.00  0.00    -0.839 OA 
HETATM   27  O   UNL     1     -11.938  14.640  64.358  1.00  0.00    -0.457 OA 
HETATM   28  N   UNL     1     -12.589  13.956  66.659  1.00  0.00    -0.463 N  
HETATM   29  H1  UNL     1     -13.466  14.461  66.540  1.00  0.00     0.000 HD 
HETATM   30  H2  UNL     1     -12.071  13.802  67.524  1.00  0.00     0.000 HD 
ENDBRANCH  23  25
ENDBRANCH  19  23
ENDBRANCH  18  19
ENDBRANCH  17  18
ENDBRANCH  16  17
ENDBRANCH  15  16
ENDBRANCH  12  15
ENDBRANCH   5  10
TORSDOF 8
ENDMDL
MODEL       93
REMARK 921   NORMALIZED FREE ENERGY PREDICTED BY IDOCK:   -5.01 KCAL/MOL
REMARK 922        TOTAL FREE ENERGY PREDICTED BY IDOCK:   -8.54 KCAL/MOL
REMARK 923 INTER-LIGAND FREE ENERGY PREDICTED BY IDOCK:   -7.06 KCAL/MOL
REMARK 924 INTRA-LIGAND FREE ENERGY PREDICTED BY IDOCK:   -1.47 KCAL/MOL
REMARK 927      BINDING AFFINITY PREDICTED BY RF-SCORE:    0.00 PKD
ROOT
HETATM    1  N   UNL     1     -11.782  16.285  63.645  1.00  0.00    -1.294 NA 
HETATM    2  C   UNL     1     -11.430  15.202  64.380  1.00  0.00    -0.235 C  
HETATM    3  H2  UNL     1     -11.283  17.174  63.628  1.00  0.00     0.000 HD 
HETATM    4  H1  UNL     1     -12.624  16.071  63.112  1.00  0.00     0.000 HD 
HETATM    5  N   UNL     1     -12.119  14.116  64.317  1.00  0.00    -0.577 NA 
HETATM    6  N   UNL     1     -10.309  15.486  65.091  1.00  0.00    -0.379 NA 
HETATM    7  H2  UNL     1      -9.810  16.375  65.074  1.00  0.00     0.000 HD 
HETATM    8  H1  UNL     1     -10.044  14.671  65.643  1.00  0.00     0.000 HD 
HETATM    9  H   UNL     1     -12.934  14.050  63.707  1.00  0.00     0.000 HD 
ENDROOT
BRANCH   5  10
HETATM   10  C   UNL     1     -11.738  13.059  65.081  1.00  0.00    -0.343 A  
HETATM   11  N   UNL     1     -11.957  12.850  66.370  1.00  0.00    -0.414 NA 
HETATM   12  C   UNL     1     -11.417  11.632  66.777  1.00  0.00    -0.225 A  
HETATM   13  S   UNL     1     -10.869  11.781  64.301  1.00  0.00    -0.377 SA 
HETATM   14  C   UNL     1     -10.766  10.934  65.779  1.00  0.00    -0.109 A  
BRANCH  12  15
HETATM   15  C   UNL     1     -11.574  11.209  68.204  1.00  0.00    -0.280 C  
BRANCH  15  16
HETATM   16  S   UNL     1     -10.864  12.463  69.328  1.00  0.00     0.070 SA 
BRANCH  16  17
HETATM   17  C   UNL     1     -12.274  12.741  70.456  1.00  0.00    -0.307 C  
BRANCH  17  18
HETATM   18  C   UNL     1     -12.854  14.150  70.427  1.00  0.00    -0.256 C  
BRANCH  18  19
HETATM   19  C   UNL     1     -11.896  15.200  70.988  1.00  0.00    -0.333 C  
HETATM   20  H2  UNL     1     -11.376  13.965  72.605  1.00  0.00     0.000 HD 
HETATM   21  N   UNL     1     -11.235  14.865  72.146  1.00  0.00    -0.372 NA 
HETATM   22  H1  UNL     1     -10.595  15.565  72.521  1.00  0.00     0.000 HD 
BRANCH  19  23
HETATM   23  N   UNL     1     -11.800  16.293  70.306  1.00  0.00    -0.386 N  
HETATM   24  H   UNL     1     -12.474  17.043  70.462  1.00  0.00     0.000 HD 
BRANCH  23  25
HETATM   25  S   UNL     1     -10.632  16.488  69.214  1.00  0.00    -0.337 S  
HETATM   26  O   UNL     1      -9.506  15.654  69.558  1.00  0.00    -0.265 OA 
HETATM   27  O   UNL     1     -10.471  17.898  68.945  1.00  0.00    -0.322 OA 
HETATM   28  N   UNL     1     -11.256  15.831  67.806  1.00  0.00    -0.320 N  
HETATM   29  H1  UNL     1     -10.517  15.954  67.115  1.00  0.00     0.000 HD 
HETATM   30  H2  UNL     1     -12.172  15.402  67.669  1.00  0.00     0.000 HD 
ENDBRANCH  23  25
ENDBRANCH  19  23
ENDBRANCH  18  19
ENDBRANCH  17  18
ENDBRANCH  16  17
ENDBRANCH  15  16
ENDBRANCH  12  15
ENDBRANCH   5  10
TORSDOF 8
ENDMDL
MODEL       94
REMARK 921   NORMALIZED FREE ENERGY PREDICTED BY IDOCK:   -5.01 KCAL/MOL
REMARK 922        TOTAL FREE ENERGY PREDICTED BY IDOCK:   -8.54 KCAL/MOL
REMARK 923 INTER-LIGAND FREE ENERGY PREDICTED BY IDOCK:   -7.45 KCAL/MOL
REMARK 924 INTRA-LIGAND FREE ENERGY PREDICTED BY IDOCK:   -1.09 KCAL/MOL
REMARK 927      BINDING AFFINITY PREDICTED BY RF-SCORE:    0.00 PKD
ROOT
HETATM    1  N   UNL     1      -7.601  20.536  65.965  1.00  0.00    -0.518 NA 
HETATM    2  C   UNL     1      -8.169  19.312  66.081  1.00  0.00    -0.282 C  
HETATM    3  H2  UNL     1      -6.674  20.723  65.583  1.00  0.00     0.000 HD 
HETATM    4  H1  UNL     1      -8.245  21.242  66.320  1.00  0.00     0.000 HD 
HETATM    5  N   UNL     1      -9.356  19.184  66.563  1.00  0.00    -0.336 NA 
HETATM    6  N   UNL     1      -7.311  18.372  65.609  1.00  0.00    -0.536 NA 
HETATM    7  H2  UNL     1      -6.385  18.559  65.226  1.00  0.00     0.000 HD 
HETATM    8  H1  UNL     1      -7.739  17.450  65.696  1.00  0.00     0.000 HD 
HETATM    9  H   UNL     1      -9.891  20.002  66.856  1.00  0.00     0.000 HD 
ENDROOT
BRANCH   5  10
HETATM   10  C   UNL     1      -9.882  17.936  66.674  1.00  0.00    -0.342 A  
HETATM   11  N   UNL     1      -9.999  17.003  65.743  1.00  0.00    -0.566 NA 
HETATM   12  C   UNL     1     -10.577  15.848  66.263  1.00  0.00    -0.298 A  
HETATM   13  S   UNL     1     -10.466  17.450  68.231  1.00  0.00    -0.377 SA 
HETATM   14  C   UNL     1     -10.918  15.931  67.598  1.00  0.00    -0.298 A  
BRANCH  12  15
HETATM   15  C   UNL     1     -10.782  14.670  65.363  1.00  0.00    -0.369 C  
BRANCH  15  16
HETATM   16  S   UNL     1     -12.106  13.589  66.009  1.00  0.00    -0.455 SA 
BRANCH  16  17
HETATM   17  C   UNL     1     -11.130  12.134  66.528  1.00  0.00    -0.307 C  
BRANCH  17  18
HETATM   18  C   UNL     1     -10.541  12.221  67.931  1.00  0.00    -0.232 C  
BRANCH  18  19
HETATM   19  C   UNL     1     -11.039  11.109  68.855  1.00  0.00    -0.237 C  
HETATM   20  H2  UNL     1     -12.974  11.203  68.043  1.00  0.00     0.000 HD 
HETATM   21  N   UNL     1     -12.360  10.751  68.721  1.00  0.00    -0.792 NA 
HETATM   22  H1  UNL     1     -12.693  10.010  69.338  1.00  0.00     0.000 HD 
BRANCH  19  23
HETATM   23  N   UNL     1     -10.159  10.614  69.660  1.00  0.00    -0.420 N  
HETATM   24  H   UNL     1      -9.331  11.160  69.898  1.00  0.00     0.000 HD 
BRANCH  23  25
HETATM   25  S   UNL     1     -10.351   9.145  70.295  1.00  0.00    -0.232 S  
HETATM   26  O   UNL     1     -11.458   9.161  71.221  1.00  0.00    -0.282 OA 
HETATM   27  O   UNL     1      -9.059   8.625  70.674  1.00  0.00    -0.148 OA 
HETATM   28  N   UNL     1     -10.860   8.194  69.014  1.00  0.00    -0.421 N  
HETATM   29  H1  UNL     1     -10.981   7.265  69.415  1.00  0.00     0.000 HD 
HETATM   30  H2  UNL     1     -11.014   8.480  68.047  1.00  0.00     0.000 HD 
ENDBRANCH  23  25
ENDBRANCH  19  23
ENDBRANCH  18  19
ENDBRANCH  17  18
ENDBRANCH  16  17
ENDBRANCH  15  16
ENDBRANCH  12  15
ENDBRANCH   5  10
TORSDOF 8
ENDMDL
MODEL       95
REMARK 921   NORMALIZED FREE ENERGY PREDICTED BY IDOCK:   -5.01 KCAL/MOL
REMARK 922        TOTAL FREE ENERGY PREDICTED BY IDOCK:   -8.53 KCAL/MOL
REMARK 923 INTER-LIGAND FREE ENERGY PREDICTED BY IDOCK:   -6.72 KCAL/MOL
REMARK 924 INTRA-LIGAND FREE ENERGY PREDICTED BY IDOCK:   -1.81 KCAL/MOL
REMARK 927      BINDING AFFINITY PREDICTED BY RF-SCORE:    0.00 PKD
ROOT
HETATM    1  N   UNL     1     -10.724  17.334  69.344  1.00  0.00    -0.354 NA 
HETATM    2  C   UNL     1     -11.175  16.229  69.985  1.00  0.00    -0.319 C  
HETATM    3  H2  UNL     1      -9.752  17.516  69.095  1.00  0.00     0.000 HD 
HETATM    4  H1  UNL     1     -11.509  17.955  69.149  1.00  0.00     0.000 HD 
HETATM    5  N   UNL     1     -12.430  16.086  70.239  1.00  0.00    -0.468 NA 
HETATM    6  N   UNL     1     -10.131  15.402  70.244  1.00  0.00    -0.448 NA 
HETATM    7  H2  UNL     1      -9.159  15.584  69.995  1.00  0.00     0.000 HD 
HETATM    8  H1  UNL     1     -10.470  14.570  70.727  1.00  0.00     0.000 HD 
HETATM    9  H   UNL     1     -13.104  16.795  69.953  1.00  0.00     0.000 HD 
ENDROOT
BRANCH   5  10
HETATM   10  C   UNL     1     -12.836  14.969  70.896  1.00  0.00    -0.391 A  
HETATM   11  N   UNL     1     -12.447  13.716  70.716  1.00  0.00    -0.359 NA 
HETATM   12  C   UNL     1     -13.090  12.860  71.607  1.00  0.00    -0.335 A  
HETATM   13  S   UNL     1     -14.000  15.165  72.164  1.00  0.00    -0.579 SA 
HETATM   14  C   UNL     1     -13.989  13.483  72.449  1.00  0.00    -0.536 A  
BRANCH  12  15
HETATM   15  C   UNL     1     -12.770  11.399  71.567  1.00  0.00    -0.357 C  
BRANCH  15  16
HETATM   16  S   UNL     1     -12.517  10.842  69.845  1.00  0.00    -0.106 SA 
BRANCH  16  17
HETATM   17  C   UNL     1     -10.738  11.201  69.634  1.00  0.00    -0.089 C  
BRANCH  17  18
HETATM   18  C   UNL     1     -10.181  10.908  68.246  1.00  0.00    -0.191 C  
BRANCH  18  19
HETATM   19  C   UNL     1     -10.571  11.964  67.213  1.00  0.00    -0.228 C  
HETATM   20  H2  UNL     1     -12.237  10.846  66.592  1.00  0.00     0.000 HD 
HETATM   21  N   UNL     1     -11.694  11.701  66.465  1.00  0.00    -0.471 NA 
HETATM   22  H1  UNL     1     -11.954  12.405  65.775  1.00  0.00     0.000 HD 
BRANCH  19  23
HETATM   23  N   UNL     1      -9.806  13.004  67.158  1.00  0.00    -0.226 N  
HETATM   24  H   UNL     1      -8.818  12.913  67.396  1.00  0.00     0.000 HD 
BRANCH  23  25
HETATM   25  S   UNL     1     -10.390  14.440  66.720  1.00  0.00    -0.276 S  
HETATM   26  O   UNL     1     -10.740  14.411  65.320  1.00  0.00    -0.327 OA 
HETATM   27  O   UNL     1      -9.545  15.476  67.264  1.00  0.00    -0.211 OA 
HETATM   28  N   UNL     1     -11.846  14.572  67.537  1.00  0.00    -0.452 N  
HETATM   29  H1  UNL     1     -12.215  15.481  67.260  1.00  0.00     0.000 HD 
HETATM   30  H2  UNL     1     -12.269  13.894  68.172  1.00  0.00     0.000 HD 
ENDBRANCH  23  25
ENDBRANCH  19  23
ENDBRANCH  18  19
ENDBRANCH  17  18
ENDBRANCH  16  17
ENDBRANCH  15  16
ENDBRANCH  12  15
ENDBRANCH   5  10
TORSDOF 8
ENDMDL
MODEL       96
REMARK 921   NORMALIZED FREE ENERGY PREDICTED BY IDOCK:   -5.00 KCAL/MOL
REMARK 922        TOTAL FREE ENERGY PREDICTED BY IDOCK:   -8.52 KCAL/MOL
REMARK 923 INTER-LIGAND FREE ENERGY PREDICTED BY IDOCK:   -7.50 KCAL/MOL
REMARK 924 INTRA-LIGAND FREE ENERGY PREDICTED BY IDOCK:   -1.01 KCAL/MOL
REMARK 927      BINDING AFFINITY PREDICTED BY RF-SCORE:    0.00 PKD
ROOT
HETATM    1  N   UNL     1     -11.967  16.160  63.783  1.00  0.00    -1.338 NA 
HETATM    2  C   UNL     1     -11.413  15.043  64.313  1.00  0.00    -0.128 C  
HETATM    3  H2  UNL     1     -11.575  17.099  63.844  1.00  0.00     0.000 HD 
HETATM    4  H1  UNL     1     -12.838  15.914  63.314  1.00  0.00     0.000 HD 
HETATM    5  N   UNL     1     -11.982  13.896  64.165  1.00  0.00    -0.564 NA 
HETATM    6  N   UNL     1     -10.254  15.369  64.937  1.00  0.00    -0.441 NA 
HETATM    7  H2  UNL     1      -9.861  16.308  64.998  1.00  0.00     0.000 HD 
HETATM    8  H1  UNL     1      -9.836  14.528  65.336  1.00  0.00     0.000 HD 
HETATM    9  H   UNL     1     -12.851  13.809  63.639  1.00  0.00     0.000 HD 
ENDROOT
BRANCH   5  10
HETATM   10  C   UNL     1     -11.398  12.805  64.724  1.00  0.00    -0.309 A  
HETATM   11  N   UNL     1     -11.486  12.368  65.971  1.00  0.00    -0.363 NA 
HETATM   12  C   UNL     1     -10.751  11.199  66.143  1.00  0.00    -0.225 A  
HETATM   13  S   UNL     1     -10.420  11.808  63.700  1.00  0.00    -0.479 SA 
HETATM   14  C   UNL     1     -10.086  10.769  65.012  1.00  0.00    -0.313 A  
BRANCH  12  15
HETATM   15  C   UNL     1     -10.737  10.542  67.488  1.00  0.00    -0.276 C  
BRANCH  15  16
HETATM   16  S   UNL     1     -11.073  11.764  68.804  1.00  0.00    -0.260 SA 
BRANCH  16  17
HETATM   17  C   UNL     1     -12.370  10.891  69.751  1.00  0.00    -0.256 C  
BRANCH  17  18
HETATM   18  C   UNL     1     -11.959  10.448  71.150  1.00  0.00    -0.460 C  
BRANCH  18  19
HETATM   19  C   UNL     1     -11.262   9.087  71.162  1.00  0.00    -0.305 C  
HETATM   20  H2  UNL     1     -12.123   8.550  69.324  1.00  0.00     0.000 HD 
HETATM   21  N   UNL     1     -11.509   8.267  70.088  1.00  0.00    -0.465 NA 
HETATM   22  H1  UNL     1     -11.045   7.358  70.096  1.00  0.00     0.000 HD 
BRANCH  19  23
HETATM   23  N   UNL     1     -10.504   8.856  72.182  1.00  0.00    -0.317 N  
HETATM   24  H   UNL     1     -10.908   8.854  73.119  1.00  0.00     0.000 HD 
BRANCH  23  25
HETATM   25  S   UNL     1      -8.930   8.570  71.995  1.00  0.00    -0.220 S  
HETATM   26  O   UNL     1      -8.278   8.597  73.283  1.00  0.00    -0.411 OA 
HETATM   27  O   UNL     1      -8.439   9.351  70.886  1.00  0.00    -0.246 OA 
HETATM   28  N   UNL     1      -8.847   6.974  71.492  1.00  0.00    -0.128 N  
HETATM   29  H1  UNL     1      -7.850   6.793  71.374  1.00  0.00     0.000 HD 
HETATM   30  H2  UNL     1      -9.620   6.327  71.338  1.00  0.00     0.000 HD 
ENDBRANCH  23  25
ENDBRANCH  19  23
ENDBRANCH  18  19
ENDBRANCH  17  18
ENDBRANCH  16  17
ENDBRANCH  15  16
ENDBRANCH  12  15
ENDBRANCH   5  10
TORSDOF 8
ENDMDL
MODEL       97
REMARK 921   NORMALIZED FREE ENERGY PREDICTED BY IDOCK:   -4.96 KCAL/MOL
REMARK 922        TOTAL FREE ENERGY PREDICTED BY IDOCK:   -8.46 KCAL/MOL
REMARK 923 INTER-LIGAND FREE ENERGY PREDICTED BY IDOCK:   -6.76 KCAL/MOL
REMARK 924 INTRA-LIGAND FREE ENERGY PREDICTED BY IDOCK:   -1.70 KCAL/MOL
REMARK 927      BINDING AFFINITY PREDICTED BY RF-SCORE:    0.00 PKD
ROOT
HETATM    1  N   UNL     1      -9.398  11.933  62.658  1.00  0.00    -0.463 NA 
HETATM    2  C   UNL     1      -9.954  11.770  63.882  1.00  0.00    -0.331 C  
HETATM    3  H2  UNL     1      -9.394  11.236  61.914  1.00  0.00     0.000 HD 
HETATM    4  H1  UNL     1      -8.983  12.862  62.597  1.00  0.00     0.000 HD 
HETATM    5  N   UNL     1      -9.921  12.722  64.749  1.00  0.00    -0.516 NA 
HETATM    6  N   UNL     1     -10.506  10.533  63.964  1.00  0.00    -0.384 NA 
HETATM    7  H2  UNL     1     -10.503   9.836  63.219  1.00  0.00     0.000 HD 
HETATM    8  H1  UNL     1     -10.926  10.410  64.885  1.00  0.00     0.000 HD 
HETATM    9  H   UNL     1      -9.484  13.616  64.525  1.00  0.00     0.000 HD 
ENDROOT
BRANCH   5  10
HETATM   10  C   UNL     1     -10.479  12.510  65.969  1.00  0.00    -0.258 A  
HETATM   11  N   UNL     1     -10.176  11.586  66.868  1.00  0.00    -0.212 NA 
HETATM   12  C   UNL     1     -10.971  11.714  68.003  1.00  0.00    -0.224 A  
HETATM   13  S   UNL     1     -11.744  13.583  66.467  1.00  0.00    -0.393 SA 
HETATM   14  C   UNL     1     -11.897  12.737  67.940  1.00  0.00    -0.339 A  
BRANCH  12  15
HETATM   15  C   UNL     1     -10.768  10.765  69.142  1.00  0.00    -0.227 C  
BRANCH  15  16
HETATM   16  S   UNL     1      -9.010  10.285  69.274  1.00  0.00    -0.161 SA 
BRANCH  16  17
HETATM   17  C   UNL     1      -9.131   8.483  69.000  1.00  0.00    -0.146 C  
BRANCH  17  18
HETATM   18  C   UNL     1     -10.490   7.995  68.513  1.00  0.00    -0.200 C  
BRANCH  18  19
HETATM   19  C   UNL     1     -10.504   7.665  67.021  1.00  0.00    -0.349 C  
HETATM   20  H2  UNL     1      -9.465   9.428  66.548  1.00  0.00     0.000 HD 
HETATM   21  N   UNL     1      -9.899   8.577  66.189  1.00  0.00    -0.447 NA 
HETATM   22  H1  UNL     1      -9.909   8.358  65.193  1.00  0.00     0.000 HD 
BRANCH  19  23
HETATM   23  N   UNL     1     -11.077   6.553  66.698  1.00  0.00    -0.680 N  
HETATM   24  H   UNL     1     -12.095   6.489  66.716  1.00  0.00     0.000 HD 
BRANCH  23  25
HETATM   25  S   UNL     1     -10.207   5.267  66.268  1.00  0.00    -0.210 S  
HETATM   26  O   UNL     1     -10.015   4.410  67.413  1.00  0.00    -0.170 OA 
HETATM   27  O   UNL     1      -9.095   5.703  65.458  1.00  0.00    -0.144 OA 
HETATM   28  N   UNL     1     -11.206   4.407  65.234  1.00  0.00    -0.905 N  
HETATM   29  H1  UNL     1     -10.655   3.594  64.962  1.00  0.00     0.000 HD 
HETATM   30  H2  UNL     1     -12.154   4.645  64.942  1.00  0.00     0.000 HD 
ENDBRANCH  23  25
ENDBRANCH  19  23
ENDBRANCH  18  19
ENDBRANCH  17  18
ENDBRANCH  16  17
ENDBRANCH  15  16
ENDBRANCH  12  15
ENDBRANCH   5  10
TORSDOF 8
ENDMDL
MODEL       98
REMARK 921   NORMALIZED FREE ENERGY PREDICTED BY IDOCK:   -4.96 KCAL/MOL
REMARK 922        TOTAL FREE ENERGY PREDICTED BY IDOCK:   -8.46 KCAL/MOL
REMARK 923 INTER-LIGAND FREE ENERGY PREDICTED BY IDOCK:   -6.62 KCAL/MOL
REMARK 924 INTRA-LIGAND FREE ENERGY PREDICTED BY IDOCK:   -1.84 KCAL/MOL
REMARK 927      BINDING AFFINITY PREDICTED BY RF-SCORE:    0.00 PKD
ROOT
HETATM    1  N   UNL     1     -11.112   5.614  66.014  1.00  0.00    -0.701 NA 
HETATM    2  C   UNL     1     -10.806   6.354  67.107  1.00  0.00    -0.393 C  
HETATM    3  H2  UNL     1     -11.316   5.987  65.088  1.00  0.00     0.000 HD 
HETATM    4  H1  UNL     1     -11.104   4.626  66.264  1.00  0.00     0.000 HD 
HETATM    5  N   UNL     1     -10.545   5.784  68.232  1.00  0.00    -0.225 NA 
HETATM    6  N   UNL     1     -10.815   7.670  66.776  1.00  0.00    -0.479 NA 
HETATM    7  H2  UNL     1     -11.020   8.043  65.849  1.00  0.00     0.000 HD 
HETATM    8  H1  UNL     1     -10.584   8.227  67.598  1.00  0.00     0.000 HD 
HETATM    9  H   UNL     1     -10.554   4.768  68.316  1.00  0.00     0.000 HD 
ENDROOT
BRANCH   5  10
HETATM   10  C   UNL     1     -10.256   6.565  69.305  1.00  0.00    -0.187 A  
HETATM   11  N   UNL     1     -11.087   7.248  70.078  1.00  0.00    -0.260 NA 
HETATM   12  C   UNL     1     -10.397   7.912  71.088  1.00  0.00    -0.200 A  
HETATM   13  S   UNL     1      -8.595   6.694  69.777  1.00  0.00    -0.137 SA 
HETATM   14  C   UNL     1      -9.028   7.739  71.055  1.00  0.00    -0.142 A  
BRANCH  12  15
HETATM   15  C   UNL     1     -11.168   8.731  72.076  1.00  0.00    -0.373 C  
BRANCH  15  16
HETATM   16  S   UNL     1     -12.960   8.635  71.732  1.00  0.00    -0.376 SA 
BRANCH  16  17
HETATM   17  C   UNL     1     -13.233  10.248  70.919  1.00  0.00    -0.277 C  
BRANCH  17  18
HETATM   18  C   UNL     1     -11.982  11.097  70.734  1.00  0.00    -0.415 C  
BRANCH  18  19
HETATM   19  C   UNL     1     -11.498  11.137  69.284  1.00  0.00    -0.294 C  
HETATM   20  H2  UNL     1     -12.272   9.223  68.898  1.00  0.00     0.000 HD 
HETATM   21  N   UNL     1     -11.773  10.029  68.519  1.00  0.00    -0.556 NA 
HETATM   22  H1  UNL     1     -11.450  10.055  67.552  1.00  0.00     0.000 HD 
BRANCH  19  23
HETATM   23  N   UNL     1     -10.888  12.218  68.927  1.00  0.00    -0.300 N  
HETATM   24  H   UNL     1     -10.416  12.785  69.631  1.00  0.00     0.000 HD 
BRANCH  23  25
HETATM   25  S   UNL     1     -10.863  12.684  67.385  1.00  0.00    -0.250 S  
HETATM   26  O   UNL     1     -10.325  14.020  67.293  1.00  0.00    -0.260 OA 
HETATM   27  O   UNL     1     -12.121  12.335  66.769  1.00  0.00    -0.593 OA 
HETATM   28  N   UNL     1      -9.720  11.696  66.663  1.00  0.00    -0.198 N  
HETATM   29  H1  UNL     1      -9.704  11.991  65.687  1.00  0.00     0.000 HD 
HETATM   30  H2  UNL     1      -9.163  10.962  67.102  1.00  0.00     0.000 HD 
ENDBRANCH  23  25
ENDBRANCH  19  23
ENDBRANCH  18  19
ENDBRANCH  17  18
ENDBRANCH  16  17
ENDBRANCH  15  16
ENDBRANCH  12  15
ENDBRANCH   5  10
TORSDOF 8
ENDMDL
MODEL       99
REMARK 921   NORMALIZED FREE ENERGY PREDICTED BY IDOCK:   -4.96 KCAL/MOL
REMARK 922        TOTAL FREE ENERGY PREDICTED BY IDOCK:   -8.45 KCAL/MOL
REMARK 923 INTER-LIGAND FREE ENERGY PREDICTED BY IDOCK:   -7.37 KCAL/MOL
REMARK 924 INTRA-LIGAND FREE ENERGY PREDICTED BY IDOCK:   -1.08 KCAL/MOL
REMARK 927      BINDING AFFINITY PREDICTED BY RF-SCORE:    0.00 PKD
ROOT
HETATM    1  N   UNL     1     -10.202   4.919  69.751  1.00  0.00    -0.253 NA 
HETATM    2  C   UNL     1     -10.955   6.029  69.943  1.00  0.00    -0.388 C  
HETATM    3  H2  UNL     1      -9.931   4.540  68.844  1.00  0.00     0.000 HD 
HETATM    4  H1  UNL     1      -9.948   4.523  70.655  1.00  0.00     0.000 HD 
HETATM    5  N   UNL     1     -11.228   6.437  71.134  1.00  0.00    -0.289 NA 
HETATM    6  N   UNL     1     -11.292   6.557  68.739  1.00  0.00    -0.590 NA 
HETATM    7  H2  UNL     1     -11.022   6.178  67.832  1.00  0.00     0.000 HD 
HETATM    8  H1  UNL     1     -11.859   7.393  68.884  1.00  0.00     0.000 HD 
HETATM    9  H   UNL     1     -10.874   5.938  71.950  1.00  0.00     0.000 HD 
ENDROOT
BRANCH   5  10
HETATM   10  C   UNL     1     -11.997   7.547  71.280  1.00  0.00    -0.307 A  
HETATM   11  N   UNL     1     -11.672   8.813  71.065  1.00  0.00    -0.284 NA 
HETATM   12  C   UNL     1     -12.753   9.654  71.314  1.00  0.00    -0.352 A  
HETATM   13  S   UNL     1     -13.637   7.321  71.790  1.00  0.00    -0.225 SA 
HETATM   14  C   UNL     1     -13.895   9.007  71.743  1.00  0.00    -0.399 A  
BRANCH  12  15
HETATM   15  C   UNL     1     -12.586  11.128  71.113  1.00  0.00    -0.409 C  
BRANCH  15  16
HETATM   16  S   UNL     1     -11.606  11.465  69.608  1.00  0.00    -0.349 SA 
BRANCH  16  17
HETATM   17  C   UNL     1     -12.146  13.169  69.230  1.00  0.00    -0.220 C  
BRANCH  17  18
HETATM   18  C   UNL     1     -11.041  14.218  69.266  1.00  0.00    -0.297 C  
BRANCH  18  19
HETATM   19  C   UNL     1     -11.131  15.136  70.485  1.00  0.00    -0.262 C  
HETATM   20  H2  UNL     1     -10.374  16.768  69.403  1.00  0.00     0.000 HD 
HETATM   21  N   UNL     1     -10.720  16.435  70.302  1.00  0.00    -0.215 NA 
HETATM   22  H1  UNL     1     -10.780  17.048  71.116  1.00  0.00     0.000 HD 
BRANCH  19  23
HETATM   23  N   UNL     1     -11.596  14.593  71.562  1.00  0.00    -0.488 N  
HETATM   24  H   UNL     1     -11.087  13.824  71.997  1.00  0.00     0.000 HD 
BRANCH  23  25
HETATM   25  S   UNL     1     -12.969  15.114  72.225  1.00  0.00    -0.391 S  
HETATM   26  O   UNL     1     -13.493  14.100  73.109  1.00  0.00    -0.619 OA 
HETATM   27  O   UNL     1     -13.787  15.716  71.200  1.00  0.00    -0.583 OA 
HETATM   28  N   UNL     1     -12.503  16.374  73.226  1.00  0.00    -0.452 N  
HETATM   29  H1  UNL     1     -13.372  16.703  73.646  1.00  0.00     0.000 HD 
HETATM   30  H2  UNL     1     -11.561  16.732  73.381  1.00  0.00     0.000 HD 
ENDBRANCH  23  25
ENDBRANCH  19  23
ENDBRANCH  18  19
ENDBRANCH  17  18
ENDBRANCH  16  17
ENDBRANCH  15  16
ENDBRANCH  12  15
ENDBRANCH   5  10
TORSDOF 8
ENDMDL
MODEL      100
REMARK 921   NORMALIZED FREE ENERGY PREDICTED BY IDOCK:   -4.92 KCAL/MOL
REMARK 922        TOTAL FREE ENERGY PREDICTED BY IDOCK:   -8.40 KCAL/MOL
REMARK 923 INTER-LIGAND FREE ENERGY PREDICTED BY IDOCK:   -7.57 KCAL/MOL
REMARK 924 INTRA-LIGAND FREE ENERGY PREDICTED BY IDOCK:   -0.83 KCAL/MOL
REMARK 927      BINDING AFFINITY PREDICTED BY RF-SCORE:    0.00 PKD
ROOT
HETATM    1  N   UNL     1      -5.435  20.042  69.441  1.00  0.00    -0.219 NA 
HETATM    2  C   UNL     1      -6.539  19.412  68.971  1.00  0.00    -0.312 C  
HETATM    3  H2  UNL     1      -4.566  19.584  69.712  1.00  0.00     0.000 HD 
HETATM    4  H1  UNL     1      -5.611  21.045  69.482  1.00  0.00     0.000 HD 
HETATM    5  N   UNL     1      -7.586  20.086  68.638  1.00  0.00    -0.202 NA 
HETATM    6  N   UNL     1      -6.307  18.077  68.917  1.00  0.00    -0.215 NA 
HETATM    7  H2  UNL     1      -5.437  17.619  69.188  1.00  0.00     0.000 HD 
HETATM    8  H1  UNL     1      -7.137  17.603  68.562  1.00  0.00     0.000 HD 
HETATM    9  H   UNL     1      -7.596  21.103  68.714  1.00  0.00     0.000 HD 
ENDROOT
BRANCH   5  10
HETATM   10  C   UNL     1      -8.674  19.414  68.184  1.00  0.00    -0.328 A  
HETATM   11  N   UNL     1      -9.216  18.301  68.657  1.00  0.00    -0.311 NA 
HETATM   12  C   UNL     1     -10.340  17.941  67.919  1.00  0.00    -0.389 A  
HETATM   13  S   UNL     1      -9.513  20.076  66.821  1.00  0.00    -0.421 SA 
HETATM   14  C   UNL     1     -10.628  18.785  66.866  1.00  0.00    -0.409 A  
BRANCH  12  15
HETATM   15  C   UNL     1     -11.101  16.713  68.311  1.00  0.00    -0.295 C  
BRANCH  15  16
HETATM   16  S   UNL     1      -9.969  15.434  68.960  1.00  0.00    -0.243 SA 
BRANCH  16  17
HETATM   17  C   UNL     1     -10.694  13.932  68.213  1.00  0.00    -0.251 C  
BRANCH  17  18
HETATM   18  C   UNL     1      -9.840  13.271  67.138  1.00  0.00    -0.237 C  
BRANCH  18  19
HETATM   19  C   UNL     1     -10.037  13.894  65.756  1.00  0.00    -0.320 C  
HETATM   20  H2  UNL     1      -8.878  15.569  66.267  1.00  0.00     0.000 HD 
HETATM   21  N   UNL     1      -9.430  15.108  65.543  1.00  0.00    -0.410 NA 
HETATM   22  H1  UNL     1      -9.561  15.525  64.621  1.00  0.00     0.000 HD 
BRANCH  19  23
HETATM   23  N   UNL     1     -10.749  13.205  64.927  1.00  0.00    -0.328 N  
HETATM   24  H   UNL     1     -10.440  12.271  64.654  1.00  0.00     0.000 HD 
BRANCH  23  25
HETATM   25  S   UNL     1     -12.117  13.798  64.318  1.00  0.00    -0.410 S  
HETATM   26  O   UNL     1     -13.151  13.758  65.325  1.00  0.00    -0.756 OA 
HETATM   27  O   UNL     1     -12.326  13.243  63.002  1.00  0.00    -0.589 OA 
HETATM   28  N   UNL     1     -11.801  15.425  64.074  1.00  0.00    -0.927 N  
HETATM   29  H1  UNL     1     -12.667  15.800  63.688  1.00  0.00     0.000 HD 
HETATM   30  H2  UNL     1     -10.935  15.928  64.267  1.00  0.00     0.000 HD 
ENDBRANCH  23  25
ENDBRANCH  19  23
ENDBRANCH  18  19
ENDBRANCH  17  18
ENDBRANCH  16  17
ENDBRANCH  15  16
ENDBRANCH  12  15
ENDBRANCH   5  10
TORSDOF 8
ENDMDL
MODEL      101
REMARK 921   NORMALIZED FREE ENERGY PREDICTED BY IDOCK:   -4.92 KCAL/MOL
REMARK 922        TOTAL FREE ENERGY PREDICTED BY IDOCK:   -8.40 KCAL/MOL
REMARK 923 INTER-LIGAND FREE ENERGY PREDICTED BY IDOCK:   -7.05 KCAL/MOL
REMARK 924 INTRA-LIGAND FREE ENERGY PREDICTED BY IDOCK:   -1.35 KCAL/MOL
REMARK 927      BINDING AFFINITY PREDICTED BY RF-SCORE:    0.00 PKD
ROOT
HETATM    1  N   UNL     1     -12.642  11.419  62.896  1.00  0.00    -0.847 NA 
HETATM    2  C   UNL     1     -11.850  12.335  63.503  1.00  0.00    -0.514 C  
HETATM    3  H2  UNL     1     -12.317  10.565  62.444  1.00  0.00     0.000 HD 
HETATM    4  H1  UNL     1     -13.615  11.718  62.961  1.00  0.00     0.000 HD 
HETATM    5  N   UNL     1     -12.362  13.377  64.062  1.00  0.00    -0.649 NA 
HETATM    6  N   UNL     1     -10.555  11.938  63.416  1.00  0.00    -0.561 NA 
HETATM    7  H2  UNL     1     -10.230  11.084  62.965  1.00  0.00     0.000 HD 
HETATM    8  H1  UNL     1      -9.959  12.627  63.874  1.00  0.00     0.000 HD 
HETATM    9  H   UNL     1     -13.372  13.523  64.065  1.00  0.00     0.000 HD 
ENDROOT
BRANCH   5  10
HETATM   10  C   UNL     1     -11.530  14.276  64.648  1.00  0.00    -0.385 A  
HETATM   11  N   UNL     1     -10.481  14.048  65.424  1.00  0.00    -0.331 NA 
HETATM   12  C   UNL     1      -9.878  15.242  65.810  1.00  0.00    -0.361 A  
HETATM   13  S   UNL     1     -11.828  15.955  64.346  1.00  0.00     0.117 SA 
HETATM   14  C   UNL     1     -10.500  16.378  65.332  1.00  0.00    -0.311 A  
BRANCH  12  15
HETATM   15  C   UNL     1      -8.663  15.192  66.682  1.00  0.00    -0.272 C  
BRANCH  15  16
HETATM   16  S   UNL     1      -9.037  14.344  68.257  1.00  0.00    -0.196 SA 
BRANCH  16  17
HETATM   17  C   UNL     1      -8.183  12.751  67.993  1.00  0.00    -0.168 C  
BRANCH  17  18
HETATM   18  C   UNL     1      -9.075  11.614  67.509  1.00  0.00    -0.172 C  
BRANCH  18  19
HETATM   19  C   UNL     1     -10.431  11.581  68.214  1.00  0.00    -0.197 C  
HETATM   20  H2  UNL     1     -11.457  11.916  66.413  1.00  0.00     0.000 HD 
HETATM   21  N   UNL     1     -11.537  11.765  67.419  1.00  0.00    -0.521 NA 
HETATM   22  H1  UNL     1     -12.442  11.744  67.889  1.00  0.00     0.000 HD 
BRANCH  19  23
HETATM   23  N   UNL     1     -10.395  11.372  69.489  1.00  0.00    -0.438 N  
HETATM   24  H   UNL     1     -10.277  12.162  70.124  1.00  0.00     0.000 HD 
BRANCH  23  25
HETATM   25  S   UNL     1     -10.533   9.883  70.088  1.00  0.00    -0.290 S  
HETATM   26  O   UNL     1     -11.495   9.883  71.164  1.00  0.00    -0.350 OA 
HETATM   27  O   UNL     1      -9.214   9.321  70.257  1.00  0.00    -0.198 OA 
HETATM   28  N   UNL     1     -11.245   8.996  68.859  1.00  0.00    -0.409 N  
HETATM   29  H1  UNL     1     -11.332   8.054  69.238  1.00  0.00     0.000 HD 
HETATM   30  H2  UNL     1     -11.528   9.326  67.935  1.00  0.00     0.000 HD 
ENDBRANCH  23  25
ENDBRANCH  19  23
ENDBRANCH  18  19
ENDBRANCH  17  18
ENDBRANCH  16  17
ENDBRANCH  15  16
ENDBRANCH  12  15
ENDBRANCH   5  10
TORSDOF 8
ENDMDL
MODEL      102
REMARK 921   NORMALIZED FREE ENERGY PREDICTED BY IDOCK:   -4.92 KCAL/MOL
REMARK 922        TOTAL FREE ENERGY PREDICTED BY IDOCK:   -8.39 KCAL/MOL
REMARK 923 INTER-LIGAND FREE ENERGY PREDICTED BY IDOCK:   -7.31 KCAL/MOL
REMARK 924 INTRA-LIGAND FREE ENERGY PREDICTED BY IDOCK:   -1.09 KCAL/MOL
REMARK 927      BINDING AFFINITY PREDICTED BY RF-SCORE:    0.00 PKD
ROOT
HETATM    1  N   UNL     1     -10.151  10.611  62.419  1.00  0.00    -0.744 NA 
HETATM    2  C   UNL     1     -10.305  11.398  63.511  1.00  0.00    -0.423 C  
HETATM    3  H2  UNL     1      -9.736   9.679  62.417  1.00  0.00     0.000 HD 
HETATM    4  H1  UNL     1     -10.516  11.095  61.599  1.00  0.00     0.000 HD 
HETATM    5  N   UNL     1     -10.859  12.557  63.410  1.00  0.00    -0.578 NA 
HETATM    6  N   UNL     1      -9.819  10.753  64.602  1.00  0.00    -0.279 NA 
HETATM    7  H2  UNL     1      -9.405   9.822  64.600  1.00  0.00     0.000 HD 
HETATM    8  H1  UNL     1      -9.935  11.346  65.424  1.00  0.00     0.000 HD 
HETATM    9  H   UNL     1     -11.200  12.895  62.511  1.00  0.00     0.000 HD 
ENDROOT
BRANCH   5  10
HETATM   10  C   UNL     1     -10.980  13.318  64.528  1.00  0.00    -0.382 A  
HETATM   11  N   UNL     1     -10.049  14.020  65.155  1.00  0.00    -0.347 NA 
HETATM   12  C   UNL     1     -10.581  14.681  66.259  1.00  0.00    -0.306 A  
HETATM   13  S   UNL     1     -12.551  13.436  65.249  1.00  0.00    -0.417 SA 
HETATM   14  C   UNL     1     -11.926  14.451  66.470  1.00  0.00    -0.386 A  
BRANCH  12  15
HETATM   15  C   UNL     1      -9.682  15.541  67.092  1.00  0.00    -0.222 C  
BRANCH  15  16
HETATM   16  S   UNL     1     -10.563  16.144  68.575  1.00  0.00    -0.301 SA 
BRANCH  16  17
HETATM   17  C   UNL     1     -10.897  17.873  68.088  1.00  0.00    -0.164 C  
BRANCH  17  18
HETATM   18  C   UNL     1     -10.128  18.359  66.865  1.00  0.00    -0.385 C  
BRANCH  18  19
HETATM   19  C   UNL     1      -9.247  19.573  67.158  1.00  0.00    -0.316 C  
HETATM   20  H2  UNL     1      -9.554  20.352  65.233  1.00  0.00     0.000 HD 
HETATM   21  N   UNL     1      -9.100  20.481  66.137  1.00  0.00    -0.584 NA 
HETATM   22  H1  UNL     1      -8.512  21.291  66.333  1.00  0.00     0.000 HD 
BRANCH  19  23
HETATM   23  N   UNL     1      -8.739  19.622  68.345  1.00  0.00    -0.335 N  
HETATM   24  H   UNL     1      -9.344  19.817  69.143  1.00  0.00     0.000 HD 
BRANCH  23  25
HETATM   25  S   UNL     1      -7.164  19.378  68.583  1.00  0.00    -0.350 S  
HETATM   26  O   UNL     1      -6.774  19.947  69.851  1.00  0.00    -0.346 OA 
HETATM   27  O   UNL     1      -6.453  19.690  67.366  1.00  0.00    -0.194 OA 
HETATM   28  N   UNL     1      -7.017  17.721  68.778  1.00  0.00    -0.249 N  
HETATM   29  H1  UNL     1      -6.021  17.568  68.928  1.00  0.00     0.000 HD 
HETATM   30  H2  UNL     1      -7.759  17.022  68.752  1.00  0.00     0.000 HD 
ENDBRANCH  23  25
ENDBRANCH  19  23
ENDBRANCH  18  19
ENDBRANCH  17  18
ENDBRANCH  16  17
ENDBRANCH  15  16
ENDBRANCH  12  15
ENDBRANCH   5  10
TORSDOF 8
ENDMDL
MODEL      103
REMARK 921   NORMALIZED FREE ENERGY PREDICTED BY IDOCK:   -4.92 KCAL/MOL
REMARK 922        TOTAL FREE ENERGY PREDICTED BY IDOCK:   -8.39 KCAL/MOL
REMARK 923 INTER-LIGAND FREE ENERGY PREDICTED BY IDOCK:   -6.61 KCAL/MOL
REMARK 924 INTRA-LIGAND FREE ENERGY PREDICTED BY IDOCK:   -1.78 KCAL/MOL
REMARK 927      BINDING AFFINITY PREDICTED BY RF-SCORE:    0.00 PKD
ROOT
HETATM    1  N   UNL     1     -11.891  16.226  71.516  1.00  0.00    -0.649 NA 
HETATM    2  C   UNL     1     -11.721  16.216  70.171  1.00  0.00    -0.181 C  
HETATM    3  H2  UNL     1     -12.597  15.693  72.025  1.00  0.00     0.000 HD 
HETATM    4  H1  UNL     1     -11.203  16.847  71.939  1.00  0.00     0.000 HD 
HETATM    5  N   UNL     1     -10.785  16.913  69.625  1.00  0.00    -0.347 NA 
HETATM    6  N   UNL     1     -12.637  15.389  69.608  1.00  0.00    -0.617 NA 
HETATM    7  H2  UNL     1     -13.343  14.856  70.117  1.00  0.00     0.000 HD 
HETATM    8  H1  UNL     1     -12.509  15.381  68.596  1.00  0.00     0.000 HD 
HETATM    9  H   UNL     1     -10.152  17.473  70.195  1.00  0.00     0.000 HD 
ENDROOT
BRANCH   5  10
HETATM   10  C   UNL     1     -10.660  16.885  68.273  1.00  0.00    -0.363 A  
HETATM   11  N   UNL     1     -10.685  15.838  67.462  1.00  0.00    -0.313 NA 
HETATM   12  C   UNL     1     -10.540  16.232  66.134  1.00  0.00    -0.267 A  
HETATM   13  S   UNL     1     -10.464  18.400  67.457  1.00  0.00    -0.414 SA 
HETATM   14  C   UNL     1     -10.381  17.592  65.956  1.00  0.00    -0.304 A  
BRANCH  12  15
HETATM   15  C   UNL     1     -10.556  15.189  65.062  1.00  0.00    -0.413 C  
BRANCH  15  16
HETATM   16  S   UNL     1     -12.059  14.157  65.192  1.00  0.00    -0.434 SA 
BRANCH  16  17
HETATM   17  C   UNL     1     -11.330  12.563  65.706  1.00  0.00    -0.336 C  
BRANCH  17  18
HETATM   18  C   UNL     1     -11.593  12.171  67.155  1.00  0.00    -0.405 C  
BRANCH  18  19
HETATM   19  C   UNL     1     -10.337  12.225  68.024  1.00  0.00    -0.214 C  
HETATM   20  H2  UNL     1     -11.137  13.761  69.211  1.00  0.00     0.000 HD 
HETATM   21  N   UNL     1     -10.340  13.147  69.043  1.00  0.00    -0.436 NA 
HETATM   22  H1  UNL     1      -9.501  13.183  69.623  1.00  0.00     0.000 HD 
BRANCH  19  23
HETATM   23  N   UNL     1      -9.404  11.387  67.713  1.00  0.00    -0.159 N  
HETATM   24  H   UNL     1      -9.585  10.385  67.781  1.00  0.00     0.000 HD 
BRANCH  23  25
HETATM   25  S   UNL     1      -7.960  11.902  67.218  1.00  0.00    -0.177 S  
HETATM   26  O   UNL     1      -6.925  11.224  67.963  1.00  0.00    -0.066 OA 
HETATM   27  O   UNL     1      -7.987  13.341  67.106  1.00  0.00    -0.154 OA 
HETATM   28  N   UNL     1      -7.821  11.331  65.650  1.00  0.00    -0.362 N  
HETATM   29  H1  UNL     1      -6.907  11.657  65.337  1.00  0.00     0.000 HD 
HETATM   30  H2  UNL     1      -8.501  10.780  65.124  1.00  0.00     0.000 HD 
ENDBRANCH  23  25
ENDBRANCH  19  23
ENDBRANCH  18  19
ENDBRANCH  17  18
ENDBRANCH  16  17
ENDBRANCH  15  16
ENDBRANCH  12  15
ENDBRANCH   5  10
TORSDOF 8
ENDMDL
MODEL      104
REMARK 921   NORMALIZED FREE ENERGY PREDICTED BY IDOCK:   -4.90 KCAL/MOL
REMARK 922        TOTAL FREE ENERGY PREDICTED BY IDOCK:   -8.36 KCAL/MOL
REMARK 923 INTER-LIGAND FREE ENERGY PREDICTED BY IDOCK:   -7.45 KCAL/MOL
REMARK 924 INTRA-LIGAND FREE ENERGY PREDICTED BY IDOCK:   -0.92 KCAL/MOL
REMARK 927      BINDING AFFINITY PREDICTED BY RF-SCORE:    0.00 PKD
ROOT
HETATM    1  N   UNL     1     -13.069  14.011  65.233  1.00  0.00    -0.765 NA 
HETATM    2  C   UNL     1     -12.385  13.359  66.205  1.00  0.00    -0.380 C  
HETATM    3  H2  UNL     1     -13.449  14.954  65.311  1.00  0.00     0.000 HD 
HETATM    4  H1  UNL     1     -13.145  13.410  64.413  1.00  0.00     0.000 HD 
HETATM    5  N   UNL     1     -11.930  12.171  66.001  1.00  0.00    -0.585 NA 
HETATM    6  N   UNL     1     -12.284  14.158  67.297  1.00  0.00    -0.573 NA 
HETATM    7  H2  UNL     1     -12.663  15.101  67.374  1.00  0.00     0.000 HD 
HETATM    8  H1  UNL     1     -11.768  13.668  68.028  1.00  0.00     0.000 HD 
HETATM    9  H   UNL     1     -12.069  11.707  65.103  1.00  0.00     0.000 HD 
ENDROOT
BRANCH   5  10
HETATM   10  C   UNL     1     -11.262  11.550  67.007  1.00  0.00    -0.300 A  
HETATM   11  N   UNL     1     -11.720  11.161  68.187  1.00  0.00    -0.547 NA 
HETATM   12  C   UNL     1     -10.719  10.541  68.931  1.00  0.00    -0.220 A  
HETATM   13  S   UNL     1      -9.592  11.174  66.745  1.00  0.00    -0.195 SA 
HETATM   14  C   UNL     1      -9.491  10.488  68.304  1.00  0.00    -0.155 A  
BRANCH  12  15
HETATM   15  C   UNL     1     -11.047  10.018  70.294  1.00  0.00    -0.318 C  
BRANCH  15  16
HETATM   16  S   UNL     1     -12.576  10.792  70.929  1.00  0.00    -0.417 SA 
BRANCH  16  17
HETATM   17  C   UNL     1     -13.192   9.469  72.029  1.00  0.00    -0.452 C  
BRANCH  17  18
HETATM   18  C   UNL     1     -13.045   8.055  71.480  1.00  0.00    -0.322 C  
BRANCH  18  19
HETATM   19  C   UNL     1     -11.947   7.255  72.182  1.00  0.00    -0.269 C  
HETATM   20  H2  UNL     1     -11.722   8.728  73.662  1.00  0.00     0.000 HD 
HETATM   21  N   UNL     1     -11.407   7.823  73.311  1.00  0.00    -0.587 NA 
HETATM   22  H1  UNL     1     -10.674   7.289  73.780  1.00  0.00     0.000 HD 
BRANCH  19  23
HETATM   23  N   UNL     1     -11.648   6.120  71.642  1.00  0.00    -0.285 N  
HETATM   24  H   UNL     1     -12.091   5.268  71.986  1.00  0.00     0.000 HD 
BRANCH  23  25
HETATM   25  S   UNL     1     -10.588   6.032  70.432  1.00  0.00    -0.291 S  
HETATM   26  O   UNL     1      -9.459   6.886  70.717  1.00  0.00    -0.165 OA 
HETATM   27  O   UNL     1     -11.298   6.116  69.178  1.00  0.00    -0.399 OA 
HETATM   28  N   UNL     1      -9.990   4.470  70.507  1.00  0.00    -0.223 N  
HETATM   29  H1  UNL     1      -9.319   4.414  69.741  1.00  0.00     0.000 HD 
HETATM   30  H2  UNL     1     -10.241   3.736  71.170  1.00  0.00     0.000 HD 
ENDBRANCH  23  25
ENDBRANCH  19  23
ENDBRANCH  18  19
ENDBRANCH  17  18
ENDBRANCH  16  17
ENDBRANCH  15  16
ENDBRANCH  12  15
ENDBRANCH   5  10
TORSDOF 8
ENDMDL
MODEL      105
REMARK 921   NORMALIZED FREE ENERGY PREDICTED BY IDOCK:   -4.89 KCAL/MOL
REMARK 922        TOTAL FREE ENERGY PREDICTED BY IDOCK:   -8.35 KCAL/MOL
REMARK 923 INTER-LIGAND FREE ENERGY PREDICTED BY IDOCK:   -6.71 KCAL/MOL
REMARK 924 INTRA-LIGAND FREE ENERGY PREDICTED BY IDOCK:   -1.64 KCAL/MOL
REMARK 927      BINDING AFFINITY PREDICTED BY RF-SCORE:    0.00 PKD
ROOT
HETATM    1  N   UNL     1     -13.695  15.359  70.794  1.00  0.00    -0.845 NA 
HETATM    2  C   UNL     1     -12.612  14.958  70.086  1.00  0.00    -0.264 C  
HETATM    3  H2  UNL     1     -13.918  15.071  71.746  1.00  0.00     0.000 HD 
HETATM    4  H1  UNL     1     -14.253  15.996  70.225  1.00  0.00     0.000 HD 
HETATM    5  N   UNL     1     -12.410  15.396  68.892  1.00  0.00    -0.608 NA 
HETATM    6  N   UNL     1     -11.869  14.111  70.843  1.00  0.00    -0.488 NA 
HETATM    7  H2  UNL     1     -12.092  13.822  71.796  1.00  0.00     0.000 HD 
HETATM    8  H1  UNL     1     -11.053  13.809  70.311  1.00  0.00     0.000 HD 
HETATM    9  H   UNL     1     -13.057  16.059  68.464  1.00  0.00     0.000 HD 
ENDROOT
BRANCH   5  10
HETATM   10  C   UNL     1     -11.319  14.957  68.214  1.00  0.00    -0.310 A  
HETATM   11  N   UNL     1     -10.042  15.050  68.553  1.00  0.00    -0.219 NA 
HETATM   12  C   UNL     1      -9.226  14.457  67.594  1.00  0.00    -0.196 A  
HETATM   13  S   UNL     1     -11.586  14.137  66.712  1.00  0.00    -0.410 SA 
HETATM   14  C   UNL     1      -9.904  13.934  66.511  1.00  0.00    -0.290 A  
BRANCH  12  15
HETATM   15  C   UNL     1      -7.745  14.449  67.806  1.00  0.00    -0.161 C  
BRANCH  15  16
HETATM   16  S   UNL     1      -7.313  15.311  69.358  1.00  0.00    -0.214 SA 
BRANCH  16  17
HETATM   17  C   UNL     1      -6.420  16.763  68.700  1.00  0.00    -0.165 C  
BRANCH  17  18
HETATM   18  C   UNL     1      -6.688  17.074  67.232  1.00  0.00    -0.195 C  
BRANCH  18  19
HETATM   19  C   UNL     1      -7.584  18.296  67.037  1.00  0.00    -0.219 C  
HETATM   20  H2  UNL     1      -6.957  18.528  65.046  1.00  0.00     0.000 HD 
HETATM   21  N   UNL     1      -7.549  18.886  65.796  1.00  0.00    -0.483 NA 
HETATM   22  H1  UNL     1      -8.147  19.702  65.665  1.00  0.00     0.000 HD 
BRANCH  19  23
HETATM   23  N   UNL     1      -8.291  18.642  68.061  1.00  0.00    -0.270 N  
HETATM   24  H   UNL     1      -7.834  18.790  68.961  1.00  0.00     0.000 HD 
BRANCH  23  25
HETATM   25  S   UNL     1      -9.885  18.842  67.938  1.00  0.00    -0.359 S  
HETATM   26  O   UNL     1     -10.173  20.210  67.577  1.00  0.00    -0.402 OA 
HETATM   27  O   UNL     1     -10.527  18.209  69.066  1.00  0.00    -0.249 OA 
HETATM   28  N   UNL     1     -10.324  17.931  66.602  1.00  0.00    -0.365 N  
HETATM   29  H1  UNL     1     -11.332  18.058  66.524  1.00  0.00     0.000 HD 
HETATM   30  H2  UNL     1      -9.717  17.374  66.001  1.00  0.00     0.000 HD 
ENDBRANCH  23  25
ENDBRANCH  19  23
ENDBRANCH  18  19
ENDBRANCH  17  18
ENDBRANCH  16  17
ENDBRANCH  15  16
ENDBRANCH  12  15
ENDBRANCH   5  10
TORSDOF 8
ENDMDL
MODEL      106
REMARK 921   NORMALIZED FREE ENERGY PREDICTED BY IDOCK:   -4.88 KCAL/MOL
REMARK 922        TOTAL FREE ENERGY PREDICTED BY IDOCK:   -8.34 KCAL/MOL
REMARK 923 INTER-LIGAND FREE ENERGY PREDICTED BY IDOCK:   -7.11 KCAL/MOL
REMARK 924 INTRA-LIGAND FREE ENERGY PREDICTED BY IDOCK:   -1.22 KCAL/MOL
REMARK 927      BINDING AFFINITY PREDICTED BY RF-SCORE:    0.00 PKD
ROOT
HETATM    1  N   UNL     1     -13.030  11.431  62.732  1.00  0.00    -0.515 NA 
HETATM    2  C   UNL     1     -12.102  12.170  63.388  1.00  0.00    -0.507 C  
HETATM    3  H2  UNL     1     -12.828  10.652  62.106  1.00  0.00     0.000 HD 
HETATM    4  H1  UNL     1     -13.961  11.776  62.964  1.00  0.00     0.000 HD 
HETATM    5  N   UNL     1     -12.462  13.125  64.174  1.00  0.00    -0.631 NA 
HETATM    6  N   UNL     1     -10.863  11.711  63.081  1.00  0.00    -0.680 NA 
HETATM    7  H2  UNL     1     -10.661  10.932  62.454  1.00  0.00     0.000 HD 
HETATM    8  H1  UNL     1     -10.164  12.267  63.575  1.00  0.00     0.000 HD 
HETATM    9  H   UNL     1     -13.449  13.334  64.322  1.00  0.00     0.000 HD 
ENDROOT
BRANCH   5  10
HETATM   10  C   UNL     1     -11.498  13.849  64.800  1.00  0.00    -0.362 A  
HETATM   11  N   UNL     1     -10.629  13.450  65.717  1.00  0.00    -0.278 NA 
HETATM   12  C   UNL     1      -9.791  14.495  66.097  1.00  0.00    -0.318 A  
HETATM   13  S   UNL     1     -11.332  15.514  64.354  1.00  0.00    -0.139 SA 
HETATM   14  C   UNL     1     -10.054  15.696  65.470  1.00  0.00    -0.362 A  
BRANCH  12  15
HETATM   15  C   UNL     1      -8.728  14.236  67.118  1.00  0.00    -0.227 C  
BRANCH  15  16
HETATM   16  S   UNL     1      -7.843  15.781  67.531  1.00  0.00    -0.175 SA 
BRANCH  16  17
HETATM   17  C   UNL     1      -8.581  16.167  69.157  1.00  0.00    -0.235 C  
BRANCH  17  18
HETATM   18  C   UNL     1      -9.917  16.899  69.102  1.00  0.00    -0.239 C  
BRANCH  18  19
HETATM   19  C   UNL     1      -9.816  18.272  68.437  1.00  0.00    -0.369 C  
HETATM   20  H2  UNL     1     -11.625  17.988  67.410  1.00  0.00     0.000 HD 
HETATM   21  N   UNL     1     -10.840  18.615  67.588  1.00  0.00    -0.376 NA 
HETATM   22  H1  UNL     1     -10.773  19.531  67.144  1.00  0.00     0.000 HD 
BRANCH  19  23
HETATM   23  N   UNL     1      -8.777  18.972  68.754  1.00  0.00    -0.343 N  
HETATM   24  H   UNL     1      -8.481  19.019  69.729  1.00  0.00     0.000 HD 
BRANCH  23  25
HETATM   25  S   UNL     1      -7.944  19.773  67.631  1.00  0.00    -0.296 S  
HETATM   26  O   UNL     1      -7.850  18.969  66.436  1.00  0.00    -0.258 OA 
HETATM   27  O   UNL     1      -6.773  20.356  68.242  1.00  0.00    -0.293 OA 
HETATM   28  N   UNL     1      -8.926  21.066  67.218  1.00  0.00    -0.512 N  
HETATM   29  H1  UNL     1      -8.399  21.572  66.507  1.00  0.00     0.000 HD 
HETATM   30  H2  UNL     1      -9.847  21.295  67.593  1.00  0.00     0.000 HD 
ENDBRANCH  23  25
ENDBRANCH  19  23
ENDBRANCH  18  19
ENDBRANCH  17  18
ENDBRANCH  16  17
ENDBRANCH  15  16
ENDBRANCH  12  15
ENDBRANCH   5  10
TORSDOF 8
ENDMDL
MODEL      107
REMARK 921   NORMALIZED FREE ENERGY PREDICTED BY IDOCK:   -4.85 KCAL/MOL
REMARK 922        TOTAL FREE ENERGY PREDICTED BY IDOCK:   -8.30 KCAL/MOL
REMARK 923 INTER-LIGAND FREE ENERGY PREDICTED BY IDOCK:   -6.37 KCAL/MOL
REMARK 924 INTRA-LIGAND FREE ENERGY PREDICTED BY IDOCK:   -1.93 KCAL/MOL
REMARK 927      BINDING AFFINITY PREDICTED BY RF-SCORE:    0.00 PKD
ROOT
HETATM    1  N   UNL     1      -8.696   8.188  67.086  1.00  0.00    -0.126 NA 
HETATM    2  C   UNL     1      -9.493   9.133  66.530  1.00  0.00    -0.208 C  
HETATM    3  H2  UNL     1      -9.014   7.421  67.677  1.00  0.00     0.000 HD 
HETATM    4  H1  UNL     1      -7.727   8.366  66.821  1.00  0.00     0.000 HD 
HETATM    5  N   UNL     1      -8.992  10.054  65.782  1.00  0.00    -0.150 NA 
HETATM    6  N   UNL     1     -10.782   8.897  66.883  1.00  0.00    -0.243 NA 
HETATM    7  H2  UNL     1     -11.100   8.129  67.474  1.00  0.00     0.000 HD 
HETATM    8  H1  UNL     1     -11.382   9.607  66.464  1.00  0.00     0.000 HD 
HETATM    9  H   UNL     1      -7.992  10.082  65.588  1.00  0.00     0.000 HD 
ENDROOT
BRANCH   5  10
HETATM   10  C   UNL     1      -9.826  10.988  65.256  1.00  0.00    -0.259 A  
HETATM   11  N   UNL     1     -10.400  12.018  65.860  1.00  0.00    -0.236 NA 
HETATM   12  C   UNL     1     -11.173  12.753  64.966  1.00  0.00    -0.298 A  
HETATM   13  S   UNL     1     -10.197  10.870  63.569  1.00  0.00    -0.252 SA 
HETATM   14  C   UNL     1     -11.194  12.251  63.680  1.00  0.00    -0.466 A  
BRANCH  12  15
HETATM   15  C   UNL     1     -11.893  13.969  65.459  1.00  0.00    -0.365 C  
BRANCH  15  16
HETATM   16  S   UNL     1     -10.722  15.347  65.723  1.00  0.00    -0.362 SA 
BRANCH  16  17
HETATM   17  C   UNL     1     -10.899  15.599  67.524  1.00  0.00    -0.316 C  
BRANCH  17  18
HETATM   18  C   UNL     1     -11.947  14.721  68.198  1.00  0.00    -0.265 C  
BRANCH  18  19
HETATM   19  C   UNL     1     -11.392  13.939  69.389  1.00  0.00    -0.258 C  
HETATM   20  H2  UNL     1     -11.977  15.439  70.737  1.00  0.00     0.000 HD 
HETATM   21  N   UNL     1     -11.529  14.530  70.622  1.00  0.00    -0.476 NA 
HETATM   22  H1  UNL     1     -11.158  14.009  71.417  1.00  0.00     0.000 HD 
BRANCH  19  23
HETATM   23  N   UNL     1     -10.858  12.797  69.109  1.00  0.00    -0.427 N  
HETATM   24  H   UNL     1      -9.980  12.765  68.592  1.00  0.00     0.000 HD 
BRANCH  23  25
HETATM   25  S   UNL     1     -11.561  11.421  69.566  1.00  0.00    -0.361 S  
HETATM   26  O   UNL     1     -12.276  10.850  68.450  1.00  0.00    -0.540 OA 
HETATM   27  O   UNL     1     -12.198  11.621  70.846  1.00  0.00    -0.364 OA 
HETATM   28  N   UNL     1     -10.287  10.372  69.858  1.00  0.00    -0.398 N  
HETATM   29  H1  UNL     1     -10.732   9.502  70.147  1.00  0.00     0.000 HD 
HETATM   30  H2  UNL     1      -9.289  10.562  69.766  1.00  0.00     0.000 HD 
ENDBRANCH  23  25
ENDBRANCH  19  23
ENDBRANCH  18  19
ENDBRANCH  17  18
ENDBRANCH  16  17
ENDBRANCH  15  16
ENDBRANCH  12  15
ENDBRANCH   5  10
TORSDOF 8
ENDMDL
MODEL      108
REMARK 921   NORMALIZED FREE ENERGY PREDICTED BY IDOCK:   -4.84 KCAL/MOL
REMARK 922        TOTAL FREE ENERGY PREDICTED BY IDOCK:   -8.28 KCAL/MOL
REMARK 923 INTER-LIGAND FREE ENERGY PREDICTED BY IDOCK:   -7.49 KCAL/MOL
REMARK 924 INTRA-LIGAND FREE ENERGY PREDICTED BY IDOCK:   -0.79 KCAL/MOL
REMARK 927      BINDING AFFINITY PREDICTED BY RF-SCORE:    0.00 PKD
ROOT
HETATM    1  N   UNL     1      -9.923   2.864  64.962  1.00  0.00    -0.371 NA 
HETATM    2  C   UNL     1     -10.229   4.064  65.512  1.00  0.00    -0.088 C  
HETATM    3  H2  UNL     1     -10.460   2.394  64.234  1.00  0.00     0.000 HD 
HETATM    4  H1  UNL     1      -9.072   2.504  65.392  1.00  0.00     0.000 HD 
HETATM    5  N   UNL     1      -9.473   4.581  66.418  1.00  0.00    -0.157 NA 
HETATM    6  N   UNL     1     -11.363   4.543  64.941  1.00  0.00    -1.065 NA 
HETATM    7  H2  UNL     1     -11.900   4.074  64.212  1.00  0.00     0.000 HD 
HETATM    8  H1  UNL     1     -11.593   5.447  65.354  1.00  0.00     0.000 HD 
HETATM    9  H   UNL     1      -8.629   4.102  66.728  1.00  0.00     0.000 HD 
ENDROOT
BRANCH   5  10
HETATM   10  C   UNL     1      -9.826   5.780  66.951  1.00  0.00    -0.157 A  
HETATM   11  N   UNL     1      -9.753   6.982  66.401  1.00  0.00    -0.120 NA 
HETATM   12  C   UNL     1     -10.232   7.958  67.272  1.00  0.00    -0.273 A  
HETATM   13  S   UNL     1     -10.485   5.779  68.552  1.00  0.00    -0.219 SA 
HETATM   14  C   UNL     1     -10.646   7.477  68.498  1.00  0.00    -0.136 A  
BRANCH  12  15
HETATM   15  C   UNL     1     -10.244   9.386  66.824  1.00  0.00    -0.250 C  
BRANCH  15  16
HETATM   16  S   UNL     1      -9.096   9.632  65.424  1.00  0.00    -0.232 SA 
BRANCH  16  17
HETATM   17  C   UNL     1      -9.620  11.283  64.845  1.00  0.00    -0.232 C  
BRANCH  17  18
HETATM   18  C   UNL     1     -10.529  11.280  63.621  1.00  0.00    -0.464 C  
BRANCH  18  19
HETATM   19  C   UNL     1     -11.902  11.890  63.899  1.00  0.00    -0.411 C  
HETATM   20  H2  UNL     1     -12.693  11.101  62.121  1.00  0.00     0.000 HD 
HETATM   21  N   UNL     1     -12.876  11.654  62.958  1.00  0.00    -0.889 NA 
HETATM   22  H1  UNL     1     -13.793  12.062  63.143  1.00  0.00     0.000 HD 
BRANCH  19  23
HETATM   23  N   UNL     1     -12.005  12.560  64.999  1.00  0.00    -0.408 N  
HETATM   24  H   UNL     1     -12.113  12.062  65.882  1.00  0.00     0.000 HD 
BRANCH  23  25
HETATM   25  S   UNL     1     -11.967  14.171  64.995  1.00  0.00    -0.430 S  
HETATM   26  O   UNL     1     -12.297  14.665  66.310  1.00  0.00    -0.259 OA 
HETATM   27  O   UNL     1     -12.646  14.654  63.816  1.00  0.00    -0.820 OA 
HETATM   28  N   UNL     1     -10.352  14.554  64.771  1.00  0.00    -0.510 N  
HETATM   29  H1  UNL     1     -10.327  15.573  64.768  1.00  0.00     0.000 HD 
HETATM   30  H2  UNL     1      -9.567  13.911  64.662  1.00  0.00     0.000 HD 
ENDBRANCH  23  25
ENDBRANCH  19  23
ENDBRANCH  18  19
ENDBRANCH  17  18
ENDBRANCH  16  17
ENDBRANCH  15  16
ENDBRANCH  12  15
ENDBRANCH   5  10
TORSDOF 8
ENDMDL
MODEL      109
REMARK 921   NORMALIZED FREE ENERGY PREDICTED BY IDOCK:   -4.83 KCAL/MOL
REMARK 922        TOTAL FREE ENERGY PREDICTED BY IDOCK:   -8.26 KCAL/MOL
REMARK 923 INTER-LIGAND FREE ENERGY PREDICTED BY IDOCK:   -7.03 KCAL/MOL
REMARK 924 INTRA-LIGAND FREE ENERGY PREDICTED BY IDOCK:   -1.24 KCAL/MOL
REMARK 927      BINDING AFFINITY PREDICTED BY RF-SCORE:    0.00 PKD
ROOT
HETATM    1  N   UNL     1     -12.435  11.081  70.065  1.00  0.00    -0.285 NA 
HETATM    2  C   UNL     1     -11.399  11.056  69.193  1.00  0.00    -0.280 C  
HETATM    3  H2  UNL     1     -13.404  11.287  69.824  1.00  0.00     0.000 HD 
HETATM    4  H1  UNL     1     -12.094  10.863  71.001  1.00  0.00     0.000 HD 
HETATM    5  N   UNL     1     -10.210  10.767  69.596  1.00  0.00    -0.436 NA 
HETATM    6  N   UNL     1     -11.853  11.347  67.947  1.00  0.00    -0.632 NA 
HETATM    7  H2  UNL     1     -12.822  11.552  67.706  1.00  0.00     0.000 HD 
HETATM    8  H1  UNL     1     -11.073  11.327  67.290  1.00  0.00     0.000 HD 
HETATM    9  H   UNL     1     -10.032  10.543  70.575  1.00  0.00     0.000 HD 
ENDROOT
BRANCH   5  10
HETATM   10  C   UNL     1      -9.199  10.766  68.690  1.00  0.00    -0.184 A  
HETATM   11  N   UNL     1      -9.267  10.627  67.374  1.00  0.00    -0.143 NA 
HETATM   12  C   UNL     1      -8.002  10.702  66.798  1.00  0.00    -0.132 A  
HETATM   13  S   UNL     1      -7.590  11.001  69.287  1.00  0.00    -0.040 SA 
HETATM   14  C   UNL     1      -6.972  10.877  67.701  1.00  0.00    -0.082 A  
BRANCH  12  15
HETATM   15  C   UNL     1      -7.873  10.579  65.312  1.00  0.00    -0.100 C  
BRANCH  15  16
HETATM   16  S   UNL     1      -9.078   9.370  64.660  1.00  0.00    -0.105 SA 
BRANCH  16  17
HETATM   17  C   UNL     1      -9.507  10.150  63.064  1.00  0.00    -0.254 C  
BRANCH  17  18
HETATM   18  C   UNL     1      -9.788  11.647  63.133  1.00  0.00    -0.407 C  
BRANCH  18  19
HETATM   19  C   UNL     1     -11.140  11.970  63.769  1.00  0.00    -0.439 C  
HETATM   20  H2  UNL     1     -12.182  11.139  62.146  1.00  0.00     0.000 HD 
HETATM   21  N   UNL     1     -12.253  11.602  63.052  1.00  0.00    -0.951 NA 
HETATM   22  H1  UNL     1     -13.156  11.818  63.476  1.00  0.00     0.000 HD 
BRANCH  19  23
HETATM   23  N   UNL     1     -11.092  12.549  64.923  1.00  0.00    -0.290 N  
HETATM   24  H   UNL     1     -10.768  12.024  65.735  1.00  0.00     0.000 HD 
BRANCH  23  25
HETATM   25  S   UNL     1     -11.537  14.087  65.096  1.00  0.00    -0.360 S  
HETATM   26  O   UNL     1     -10.363  14.924  65.173  1.00  0.00    -0.382 OA 
HETATM   27  O   UNL     1     -12.584  14.164  66.088  1.00  0.00    -0.465 OA 
HETATM   28  N   UNL     1     -12.267  14.483  63.642  1.00  0.00    -1.062 N  
HETATM   29  H1  UNL     1     -12.549  15.456  63.752  1.00  0.00     0.000 HD 
HETATM   30  H2  UNL     1     -12.400  13.883  62.827  1.00  0.00     0.000 HD 
ENDBRANCH  23  25
ENDBRANCH  19  23
ENDBRANCH  18  19
ENDBRANCH  17  18
ENDBRANCH  16  17
ENDBRANCH  15  16
ENDBRANCH  12  15
ENDBRANCH   5  10
TORSDOF 8
ENDMDL
MODEL      110
REMARK 921   NORMALIZED FREE ENERGY PREDICTED BY IDOCK:   -4.82 KCAL/MOL
REMARK 922        TOTAL FREE ENERGY PREDICTED BY IDOCK:   -8.26 KCAL/MOL
REMARK 923 INTER-LIGAND FREE ENERGY PREDICTED BY IDOCK:   -5.88 KCAL/MOL
REMARK 924 INTRA-LIGAND FREE ENERGY PREDICTED BY IDOCK:   -2.38 KCAL/MOL
REMARK 927      BINDING AFFINITY PREDICTED BY RF-SCORE:    0.00 PKD
ROOT
HETATM    1  N   UNL     1     -11.931  12.810  70.176  1.00  0.00    -0.461 NA 
HETATM    2  C   UNL     1     -12.123  11.469  70.177  1.00  0.00    -0.351 C  
HETATM    3  H2  UNL     1     -11.949  13.407  69.350  1.00  0.00     0.000 HD 
HETATM    4  H1  UNL     1     -11.765  13.128  71.130  1.00  0.00     0.000 HD 
HETATM    5  N   UNL     1     -12.098  10.805  71.281  1.00  0.00    -0.306 NA 
HETATM    6  N   UNL     1     -12.344  11.045  68.907  1.00  0.00    -0.711 NA 
HETATM    7  H2  UNL     1     -12.362  11.642  68.081  1.00  0.00     0.000 HD 
HETATM    8  H1  UNL     1     -12.489  10.035  68.909  1.00  0.00     0.000 HD 
HETATM    9  H   UNL     1     -11.943  11.278  72.171  1.00  0.00     0.000 HD 
ENDROOT
BRANCH   5  10
HETATM   10  C   UNL     1     -12.283   9.460  71.235  1.00  0.00    -0.345 A  
HETATM   11  N   UNL     1     -11.466   8.529  70.765  1.00  0.00    -0.268 NA 
HETATM   12  C   UNL     1     -12.017   7.260  70.917  1.00  0.00    -0.305 A  
HETATM   13  S   UNL     1     -13.759   8.832  71.888  1.00  0.00    -0.455 SA 
HETATM   14  C   UNL     1     -13.273   7.246  71.488  1.00  0.00    -0.379 A  
BRANCH  12  15
HETATM   15  C   UNL     1     -11.234   6.070  70.457  1.00  0.00    -0.292 C  
BRANCH  15  16
HETATM   16  S   UNL     1      -9.449   6.318  70.758  1.00  0.00    -0.172 SA 
BRANCH  16  17
HETATM   17  C   UNL     1      -8.823   6.376  69.042  1.00  0.00    -0.129 C  
BRANCH  17  18
HETATM   18  C   UNL     1      -9.894   6.539  67.970  1.00  0.00    -0.129 C  
BRANCH  18  19
HETATM   19  C   UNL     1      -9.808   7.879  67.241  1.00  0.00    -0.195 C  
HETATM   20  H2  UNL     1      -9.168   6.956  65.468  1.00  0.00     0.000 HD 
HETATM   21  N   UNL     1      -9.401   7.835  65.930  1.00  0.00    -0.402 NA 
HETATM   22  H1  UNL     1      -9.343   8.730  65.443  1.00  0.00     0.000 HD 
BRANCH  19  23
HETATM   23  N   UNL     1     -10.139   8.917  67.937  1.00  0.00    -0.194 N  
HETATM   24  H   UNL     1     -11.058   8.954  68.378  1.00  0.00     0.000 HD 
BRANCH  23  25
HETATM   25  S   UNL     1      -9.120  10.152  68.116  1.00  0.00    -0.129 S  
HETATM   26  O   UNL     1      -9.762  11.373  67.689  1.00  0.00    -0.169 OA 
HETATM   27  O   UNL     1      -7.822   9.767  67.615  1.00  0.00    -0.094 OA 
HETATM   28  N   UNL     1      -8.933  10.308  69.774  1.00  0.00    -0.391 N  
HETATM   29  H1  UNL     1      -8.289  11.090  69.887  1.00  0.00     0.000 HD 
HETATM   30  H2  UNL     1      -9.368   9.746  70.506  1.00  0.00     0.000 HD 
ENDBRANCH  23  25
ENDBRANCH  19  23
ENDBRANCH  18  19
ENDBRANCH  17  18
ENDBRANCH  16  17
ENDBRANCH  15  16
ENDBRANCH  12  15
ENDBRANCH   5  10
TORSDOF 8
ENDMDL
MODEL      111
REMARK 921   NORMALIZED FREE ENERGY PREDICTED BY IDOCK:   -4.82 KCAL/MOL
REMARK 922        TOTAL FREE ENERGY PREDICTED BY IDOCK:   -8.25 KCAL/MOL
REMARK 923 INTER-LIGAND FREE ENERGY PREDICTED BY IDOCK:   -6.72 KCAL/MOL
REMARK 924 INTRA-LIGAND FREE ENERGY PREDICTED BY IDOCK:   -1.54 KCAL/MOL
REMARK 927      BINDING AFFINITY PREDICTED BY RF-SCORE:    0.00 PKD
ROOT
HETATM    1  N   UNL     1     -12.165  15.608  68.712  1.00  0.00    -0.554 NA 
HETATM    2  C   UNL     1     -11.761  14.562  67.952  1.00  0.00    -0.351 C  
HETATM    3  H2  UNL     1     -12.377  15.565  69.709  1.00  0.00     0.000 HD 
HETATM    4  H1  UNL     1     -12.224  16.444  68.132  1.00  0.00     0.000 HD 
HETATM    5  N   UNL     1     -11.500  14.724  66.700  1.00  0.00    -0.354 NA 
HETATM    6  N   UNL     1     -11.682  13.449  68.724  1.00  0.00    -0.318 NA 
HETATM    7  H2  UNL     1     -11.894  13.406  69.720  1.00  0.00     0.000 HD 
HETATM    8  H1  UNL     1     -11.377  12.661  68.151  1.00  0.00     0.000 HD 
HETATM    9  H   UNL     1     -11.584  15.643  66.265  1.00  0.00     0.000 HD 
ENDROOT
BRANCH   5  10
HETATM   10  C   UNL     1     -11.111  13.646  65.973  1.00  0.00    -0.293 A  
HETATM   11  N   UNL     1     -10.270  12.680  66.311  1.00  0.00    -0.246 NA 
HETATM   12  C   UNL     1     -10.150  11.742  65.289  1.00  0.00    -0.262 A  
HETATM   13  S   UNL     1     -11.800  13.454  64.395  1.00  0.00    -0.429 SA 
HETATM   14  C   UNL     1     -10.896  12.026  64.162  1.00  0.00    -0.352 A  
BRANCH  12  15
HETATM   15  C   UNL     1      -9.251  10.563  65.489  1.00  0.00    -0.188 C  
BRANCH  15  16
HETATM   16  S   UNL     1      -7.996  10.920  66.768  1.00  0.00    -0.149 SA 
BRANCH  16  17
HETATM   17  C   UNL     1      -8.603   9.872  68.136  1.00  0.00    -0.118 C  
BRANCH  17  18
HETATM   18  C   UNL     1      -9.636  10.529  69.043  1.00  0.00    -0.213 C  
BRANCH  18  19
HETATM   19  C   UNL     1     -11.002   9.846  68.981  1.00  0.00    -0.190 C  
HETATM   20  H2  UNL     1     -11.877  11.517  68.058  1.00  0.00     0.000 HD 
HETATM   21  N   UNL     1     -12.023  10.573  68.416  1.00  0.00    -0.788 NA 
HETATM   22  H1  UNL     1     -12.935  10.117  68.375  1.00  0.00     0.000 HD 
BRANCH  19  23
HETATM   23  N   UNL     1     -11.051   8.647  69.459  1.00  0.00    -0.438 N  
HETATM   24  H   UNL     1     -10.634   7.878  68.933  1.00  0.00     0.000 HD 
BRANCH  23  25
HETATM   25  S   UNL     1     -11.759   8.348  70.875  1.00  0.00    -0.199 S  
HETATM   26  O   UNL     1     -10.975   8.930  71.939  1.00  0.00    -0.336 OA 
HETATM   27  O   UNL     1     -12.171   6.965  70.912  1.00  0.00    -0.381 OA 
HETATM   28  N   UNL     1     -13.177   9.238  70.835  1.00  0.00    -0.556 N  
HETATM   29  H1  UNL     1     -13.625   9.049  71.731  1.00  0.00     0.000 HD 
HETATM   30  H2  UNL     1     -13.517   9.836  70.081  1.00  0.00     0.000 HD 
ENDBRANCH  23  25
ENDBRANCH  19  23
ENDBRANCH  18  19
ENDBRANCH  17  18
ENDBRANCH  16  17
ENDBRANCH  15  16
ENDBRANCH  12  15
ENDBRANCH   5  10
TORSDOF 8
ENDMDL
MODEL      112
REMARK 921   NORMALIZED FREE ENERGY PREDICTED BY IDOCK:   -4.81 KCAL/MOL
REMARK 922        TOTAL FREE ENERGY PREDICTED BY IDOCK:   -8.23 KCAL/MOL
REMARK 923 INTER-LIGAND FREE ENERGY PREDICTED BY IDOCK:   -6.06 KCAL/MOL
REMARK 924 INTRA-LIGAND FREE ENERGY PREDICTED BY IDOCK:   -2.17 KCAL/MOL
REMARK 927      BINDING AFFINITY PREDICTED BY RF-SCORE:    0.00 PKD
ROOT
HETATM    1  N   UNL     1     -11.691  11.742  62.959  1.00  0.00    -0.811 NA 
HETATM    2  C   UNL     1     -10.546  11.473  63.632  1.00  0.00    -0.429 C  
HETATM    3  H2  UNL     1     -12.006  12.671  62.679  1.00  0.00     0.000 HD 
HETATM    4  H1  UNL     1     -12.189  10.871  62.778  1.00  0.00     0.000 HD 
HETATM    5  N   UNL     1     -10.229  10.260  63.925  1.00  0.00    -0.463 NA 
HETATM    6  N   UNL     1      -9.883  12.632  63.873  1.00  0.00    -0.675 NA 
HETATM    7  H2  UNL     1     -10.198  13.561  63.593  1.00  0.00     0.000 HD 
HETATM    8  H1  UNL     1      -9.021  12.430  64.379  1.00  0.00     0.000 HD 
HETATM    9  H   UNL     1     -10.828   9.482  63.648  1.00  0.00     0.000 HD 
ENDROOT
BRANCH   5  10
HETATM   10  C   UNL     1      -9.078  10.037  64.611  1.00  0.00    -0.237 A  
HETATM   11  N   UNL     1      -8.834  10.227  65.899  1.00  0.00    -0.153 NA 
HETATM   12  C   UNL     1      -7.530   9.859  66.219  1.00  0.00    -0.102 A  
HETATM   13  S   UNL     1      -7.733   9.394  63.730  1.00  0.00    -0.128 SA 
HETATM   14  C   UNL     1      -6.784   9.408  65.148  1.00  0.00    -0.080 A  
BRANCH  12  15
HETATM   15  C   UNL     1      -7.066   9.989  67.636  1.00  0.00    -0.087 C  
BRANCH  15  16
HETATM   16  S   UNL     1      -7.977  11.323  68.491  1.00  0.00    -0.150 SA 
BRANCH  16  17
HETATM   17  C   UNL     1      -9.429  10.400  69.104  1.00  0.00    -0.208 C  
BRANCH  17  18
HETATM   18  C   UNL     1     -10.663  11.249  69.384  1.00  0.00    -0.188 C  
BRANCH  18  19
HETATM   19  C   UNL     1     -11.329  11.769  68.110  1.00  0.00    -0.284 C  
HETATM   20  H2  UNL     1     -11.185   9.890  67.184  1.00  0.00     0.000 HD 
HETATM   21  N   UNL     1     -11.492  10.858  67.093  1.00  0.00    -0.406 NA 
HETATM   22  H1  UNL     1     -11.936  11.205  66.243  1.00  0.00     0.000 HD 
BRANCH  19  23
HETATM   23  N   UNL     1     -11.679  13.012  68.128  1.00  0.00    -0.334 N  
HETATM   24  H   UNL     1     -12.291  13.351  68.871  1.00  0.00     0.000 HD 
BRANCH  23  25
HETATM   25  S   UNL     1     -11.164  14.034  66.994  1.00  0.00    -0.326 S  
HETATM   26  O   UNL     1      -9.860  13.623  66.531  1.00  0.00    -0.276 OA 
HETATM   27  O   UNL     1     -11.417  15.386  67.430  1.00  0.00    -0.303 OA 
HETATM   28  N   UNL     1     -12.193  13.780  65.697  1.00  0.00    -0.424 N  
HETATM   29  H1  UNL     1     -11.867  14.426  64.980  1.00  0.00     0.000 HD 
HETATM   30  H2  UNL     1     -12.973  13.124  65.638  1.00  0.00     0.000 HD 
ENDBRANCH  23  25
ENDBRANCH  19  23
ENDBRANCH  18  19
ENDBRANCH  17  18
ENDBRANCH  16  17
ENDBRANCH  15  16
ENDBRANCH  12  15
ENDBRANCH   5  10
TORSDOF 8
ENDMDL
MODEL      113
REMARK 921   NORMALIZED FREE ENERGY PREDICTED BY IDOCK:   -4.80 KCAL/MOL
REMARK 922        TOTAL FREE ENERGY PREDICTED BY IDOCK:   -8.22 KCAL/MOL
REMARK 923 INTER-LIGAND FREE ENERGY PREDICTED BY IDOCK:   -7.27 KCAL/MOL
REMARK 924 INTRA-LIGAND FREE ENERGY PREDICTED BY IDOCK:   -0.96 KCAL/MOL
REMARK 927      BINDING AFFINITY PREDICTED BY RF-SCORE:    0.00 PKD
ROOT
HETATM    1  N   UNL     1     -12.591  14.323  63.381  1.00  0.00    -1.004 NA 
HETATM    2  C   UNL     1     -12.034  13.160  63.798  1.00  0.00    -0.508 C  
HETATM    3  H2  UNL     1     -13.546  14.623  63.575  1.00  0.00     0.000 HD 
HETATM    4  H1  UNL     1     -11.905  14.852  62.843  1.00  0.00     0.000 HD 
HETATM    5  N   UNL     1     -10.808  12.882  63.513  1.00  0.00    -0.528 NA 
HETATM    6  N   UNL     1     -12.946  12.456  64.514  1.00  0.00    -0.810 NA 
HETATM    7  H2  UNL     1     -13.901  12.756  64.709  1.00  0.00     0.000 HD 
HETATM    8  H1  UNL     1     -12.527  11.581  64.829  1.00  0.00     0.000 HD 
HETATM    9  H   UNL     1     -10.236  13.536  62.979  1.00  0.00     0.000 HD 
ENDROOT
BRANCH   5  10
HETATM   10  C   UNL     1     -10.295  11.699  63.939  1.00  0.00    -0.369 A  
HETATM   11  N   UNL     1     -10.527  11.058  65.075  1.00  0.00    -0.291 NA 
HETATM   12  C   UNL     1      -9.818   9.862  65.126  1.00  0.00    -0.278 A  
HETATM   13  S   UNL     1      -9.205  10.872  62.878  1.00  0.00    -0.359 SA 
HETATM   14  C   UNL     1      -9.027   9.618  64.021  1.00  0.00    -0.223 A  
BRANCH  12  15
HETATM   15  C   UNL     1      -9.961   8.985  66.330  1.00  0.00    -0.300 C  
BRANCH  15  16
HETATM   16  S   UNL     1      -8.464   7.961  66.562  1.00  0.00    -0.140 SA 
BRANCH  16  17
HETATM   17  C   UNL     1      -9.010   6.871  67.923  1.00  0.00    -0.121 C  
BRANCH  17  18
HETATM   18  C   UNL     1      -9.126   7.548  69.284  1.00  0.00    -0.138 C  
BRANCH  18  19
HETATM   19  C   UNL     1     -10.496   7.349  69.932  1.00  0.00    -0.231 C  
HETATM   20  H2  UNL     1     -11.276   6.481  68.187  1.00  0.00     0.000 HD 
HETATM   21  N   UNL     1     -11.462   6.766  69.149  1.00  0.00    -0.593 NA 
HETATM   22  H1  UNL     1     -12.377   6.633  69.581  1.00  0.00     0.000 HD 
BRANCH  19  23
HETATM   23  N   UNL     1     -10.598   7.744  71.159  1.00  0.00    -0.216 N  
HETATM   24  H   UNL     1     -10.169   8.626  71.440  1.00  0.00     0.000 HD 
BRANCH  23  25
HETATM   25  S   UNL     1     -11.392   6.863  72.249  1.00  0.00    -0.275 S  
HETATM   26  O   UNL     1     -12.798   6.842  71.920  1.00  0.00    -0.338 OA 
HETATM   27  O   UNL     1     -10.932   7.222  73.569  1.00  0.00    -0.345 OA 
HETATM   28  N   UNL     1     -10.857   5.296  71.997  1.00  0.00    -0.199 N  
HETATM   29  H1  UNL     1     -11.359   4.738  72.687  1.00  0.00     0.000 HD 
HETATM   30  H2  UNL     1     -10.178   4.971  71.307  1.00  0.00     0.000 HD 
ENDBRANCH  23  25
ENDBRANCH  19  23
ENDBRANCH  18  19
ENDBRANCH  17  18
ENDBRANCH  16  17
ENDBRANCH  15  16
ENDBRANCH  12  15
ENDBRANCH   5  10
TORSDOF 8
ENDMDL
MODEL      114
REMARK 921   NORMALIZED FREE ENERGY PREDICTED BY IDOCK:   -4.79 KCAL/MOL
REMARK 922        TOTAL FREE ENERGY PREDICTED BY IDOCK:   -8.20 KCAL/MOL
REMARK 923 INTER-LIGAND FREE ENERGY PREDICTED BY IDOCK:   -7.02 KCAL/MOL
REMARK 924 INTRA-LIGAND FREE ENERGY PREDICTED BY IDOCK:   -1.18 KCAL/MOL
REMARK 927      BINDING AFFINITY PREDICTED BY RF-SCORE:    0.00 PKD
ROOT
HETATM    1  N   UNL     1      -6.870   8.421  74.553  1.00  0.00    -0.160 NA 
HETATM    2  C   UNL     1      -7.947   8.096  73.797  1.00  0.00    -0.209 C  
HETATM    3  H2  UNL     1      -6.072   8.972  74.238  1.00  0.00     0.000 HD 
HETATM    4  H1  UNL     1      -6.983   8.028  75.487  1.00  0.00     0.000 HD 
HETATM    5  N   UNL     1      -8.914   7.408  74.296  1.00  0.00    -0.338 NA 
HETATM    6  N   UNL     1      -7.797   8.618  72.554  1.00  0.00    -0.363 NA 
HETATM    7  H2  UNL     1      -6.999   9.169  72.238  1.00  0.00     0.000 HD 
HETATM    8  H1  UNL     1      -8.607   8.374  71.984  1.00  0.00     0.000 HD 
HETATM    9  H   UNL     1      -8.891   7.106  75.270  1.00  0.00     0.000 HD 
ENDROOT
BRANCH   5  10
HETATM   10  C   UNL     1      -9.967   7.093  73.499  1.00  0.00    -0.302 A  
HETATM   11  N   UNL     1     -10.797   7.908  72.865  1.00  0.00    -0.389 NA 
HETATM   12  C   UNL     1     -11.738   7.190  72.131  1.00  0.00    -0.284 A  
HETATM   13  S   UNL     1     -10.289   5.414  73.225  1.00  0.00    -0.225 SA 
HETATM   14  C   UNL     1     -11.620   5.819  72.237  1.00  0.00    -0.241 A  
BRANCH  12  15
HETATM   15  C   UNL     1     -12.759   7.938  71.332  1.00  0.00    -0.292 C  
BRANCH  15  16
HETATM   16  S   UNL     1     -13.665   9.119  72.392  1.00  0.00    -0.423 SA 
BRANCH  16  17
HETATM   17  C   UNL     1     -13.134  10.706  71.659  1.00  0.00    -0.450 C  
BRANCH  17  18
HETATM   18  C   UNL     1     -11.911  10.620  70.753  1.00  0.00    -0.459 C  
BRANCH  18  19
HETATM   19  C   UNL     1     -11.955  11.619  69.597  1.00  0.00    -0.324 C  
HETATM   20  H2  UNL     1     -12.364  10.100  68.206  1.00  0.00     0.000 HD 
HETATM   21  N   UNL     1     -12.212  11.098  68.351  1.00  0.00    -0.726 NA 
HETATM   22  H1  UNL     1     -12.241  11.765  67.579  1.00  0.00     0.000 HD 
BRANCH  19  23
HETATM   23  N   UNL     1     -11.756  12.855  69.917  1.00  0.00    -0.485 N  
HETATM   24  H   UNL     1     -12.045  13.189  70.837  1.00  0.00     0.000 HD 
BRANCH  23  25
HETATM   25  S   UNL     1     -11.058  13.875  68.884  1.00  0.00    -0.273 S  
HETATM   26  O   UNL     1     -10.090  13.164  68.083  1.00  0.00    -0.225 OA 
HETATM   27  O   UNL     1     -10.710  15.088  69.585  1.00  0.00    -0.252 OA 
HETATM   28  N   UNL     1     -12.280  14.304  67.822  1.00  0.00    -0.598 N  
HETATM   29  H1  UNL     1     -11.838  14.950  67.169  1.00  0.00     0.000 HD 
HETATM   30  H2  UNL     1     -13.250  13.990  67.828  1.00  0.00     0.000 HD 
ENDBRANCH  23  25
ENDBRANCH  19  23
ENDBRANCH  18  19
ENDBRANCH  17  18
ENDBRANCH  16  17
ENDBRANCH  15  16
ENDBRANCH  12  15
ENDBRANCH   5  10
TORSDOF 8
ENDMDL
MODEL      115
REMARK 921   NORMALIZED FREE ENERGY PREDICTED BY IDOCK:   -4.78 KCAL/MOL
REMARK 922        TOTAL FREE ENERGY PREDICTED BY IDOCK:   -8.19 KCAL/MOL
REMARK 923 INTER-LIGAND FREE ENERGY PREDICTED BY IDOCK:   -6.68 KCAL/MOL
REMARK 924 INTRA-LIGAND FREE ENERGY PREDICTED BY IDOCK:   -1.51 KCAL/MOL
REMARK 927      BINDING AFFINITY PREDICTED BY RF-SCORE:    0.00 PKD
ROOT
HETATM    1  N   UNL     1     -11.742  16.217  63.849  1.00  0.00    -1.518 NA 
HETATM    2  C   UNL     1     -11.056  16.079  65.009  1.00  0.00    -0.336 C  
HETATM    3  H2  UNL     1     -12.391  15.532  63.462  1.00  0.00     0.000 HD 
HETATM    4  H1  UNL     1     -11.508  17.113  63.423  1.00  0.00     0.000 HD 
HETATM    5  N   UNL     1     -10.271  17.014  65.422  1.00  0.00    -0.617 NA 
HETATM    6  N   UNL     1     -11.368  14.887  65.576  1.00  0.00    -0.350 NA 
HETATM    7  H2  UNL     1     -12.016  14.201  65.190  1.00  0.00     0.000 HD 
HETATM    8  H1  UNL     1     -10.852  14.783  66.450  1.00  0.00     0.000 HD 
HETATM    9  H   UNL     1     -10.161  17.876  64.887  1.00  0.00     0.000 HD 
ENDROOT
BRANCH   5  10
HETATM   10  C   UNL     1      -9.593  16.828  66.583  1.00  0.00    -0.258 A  
HETATM   11  N   UNL     1      -8.919  15.761  66.985  1.00  0.00    -0.211 NA 
HETATM   12  C   UNL     1      -8.348  15.975  68.237  1.00  0.00    -0.164 A  
HETATM   13  S   UNL     1      -9.558  18.144  67.708  1.00  0.00    -0.295 SA 
HETATM   14  C   UNL     1      -8.619  17.212  68.786  1.00  0.00    -0.236 A  
BRANCH  12  15
HETATM   15  C   UNL     1      -7.532  14.884  68.857  1.00  0.00    -0.137 C  
BRANCH  15  16
HETATM   16  S   UNL     1      -6.938  13.719  67.580  1.00  0.00    -0.155 SA 
BRANCH  16  17
HETATM   17  C   UNL     1      -8.169  12.380  67.749  1.00  0.00    -0.163 C  
BRANCH  17  18
HETATM   18  C   UNL     1      -8.021  11.238  66.750  1.00  0.00    -0.159 C  
BRANCH  18  19
HETATM   19  C   UNL     1      -9.261  11.047  65.877  1.00  0.00    -0.199 C  
HETATM   20  H2  UNL     1      -9.524   9.077  66.557  1.00  0.00     0.000 HD 
HETATM   21  N   UNL     1      -9.876   9.820  65.952  1.00  0.00    -0.268 NA 
HETATM   22  H1  UNL     1     -10.703   9.691  65.370  1.00  0.00     0.000 HD 
BRANCH  19  23
HETATM   23  N   UNL     1      -9.608  12.067  65.165  1.00  0.00    -0.420 N  
HETATM   24  H   UNL     1      -9.068  12.931  65.228  1.00  0.00     0.000 HD 
BRANCH  23  25
HETATM   25  S   UNL     1     -10.879  11.995  64.178  1.00  0.00    -0.392 S  
HETATM   26  O   UNL     1     -10.952  13.205  63.395  1.00  0.00    -0.094 OA 
HETATM   27  O   UNL     1     -12.019  11.505  64.916  1.00  0.00    -0.015 OA 
HETATM   28  N   UNL     1     -10.498  10.784  63.085  1.00  0.00    -0.690 N  
HETATM   29  H1  UNL     1     -11.303  10.738  62.461  1.00  0.00     0.000 HD 
HETATM   30  H2  UNL     1      -9.650  10.218  63.051  1.00  0.00     0.000 HD 
ENDBRANCH  23  25
ENDBRANCH  19  23
ENDBRANCH  18  19
ENDBRANCH  17  18
ENDBRANCH  16  17
ENDBRANCH  15  16
ENDBRANCH  12  15
ENDBRANCH   5  10
TORSDOF 8
ENDMDL
MODEL      116
REMARK 921   NORMALIZED FREE ENERGY PREDICTED BY IDOCK:   -4.76 KCAL/MOL
REMARK 922        TOTAL FREE ENERGY PREDICTED BY IDOCK:   -8.17 KCAL/MOL
REMARK 923 INTER-LIGAND FREE ENERGY PREDICTED BY IDOCK:   -7.30 KCAL/MOL
REMARK 924 INTRA-LIGAND FREE ENERGY PREDICTED BY IDOCK:   -0.87 KCAL/MOL
REMARK 927      BINDING AFFINITY PREDICTED BY RF-SCORE:    0.00 PKD
ROOT
HETATM    1  N   UNL     1     -10.212  19.519  65.981  1.00  0.00    -0.470 NA 
HETATM    2  C   UNL     1     -10.225  18.300  66.574  1.00  0.00    -0.394 C  
HETATM    3  H2  UNL     1     -10.421  20.402  66.446  1.00  0.00     0.000 HD 
HETATM    4  H1  UNL     1      -9.961  19.414  64.999  1.00  0.00     0.000 HD 
HETATM    5  N   UNL     1      -9.927  17.242  65.902  1.00  0.00    -0.539 NA 
HETATM    6  N   UNL     1     -10.559  18.439  67.881  1.00  0.00    -0.384 NA 
HETATM    7  H2  UNL     1     -10.769  19.323  68.345  1.00  0.00     0.000 HD 
HETATM    8  H1  UNL     1     -10.568  17.522  68.327  1.00  0.00     0.000 HD 
HETATM    9  H   UNL     1      -9.668  17.306  64.917  1.00  0.00     0.000 HD 
ENDROOT
BRANCH   5  10
HETATM   10  C   UNL     1      -9.966  16.040  66.532  1.00  0.00    -0.279 A  
HETATM   11  N   UNL     1     -11.020  15.374  66.978  1.00  0.00    -0.321 NA 
HETATM   12  C   UNL     1     -10.639  14.164  67.552  1.00  0.00    -0.257 A  
HETATM   13  S   UNL     1      -8.461  15.221  66.784  1.00  0.00    -0.220 SA 
HETATM   14  C   UNL     1      -9.278  13.935  67.553  1.00  0.00    -0.205 A  
BRANCH  12  15
HETATM   15  C   UNL     1     -11.695  13.259  68.104  1.00  0.00    -0.362 C  
BRANCH  15  16
HETATM   16  S   UNL     1     -12.271  13.860  69.731  1.00  0.00    -0.294 SA 
BRANCH  16  17
HETATM   17  C   UNL     1     -12.174  12.321  70.712  1.00  0.00    -0.260 C  
BRANCH  17  18
HETATM   18  C   UNL     1     -12.495  11.045  69.942  1.00  0.00    -0.286 C  
BRANCH  18  19
HETATM   19  C   UNL     1     -11.659   9.849  70.399  1.00  0.00    -0.282 C  
HETATM   20  H2  UNL     1      -9.893  10.984  70.378  1.00  0.00     0.000 HD 
HETATM   21  N   UNL     1     -10.312  10.071  70.557  1.00  0.00    -0.394 NA 
HETATM   22  H1  UNL     1      -9.754   9.273  70.861  1.00  0.00     0.000 HD 
BRANCH  19  23
HETATM   23  N   UNL     1     -12.313   8.753  70.599  1.00  0.00    -0.482 N  
HETATM   24  H   UNL     1     -12.795   8.306  69.819  1.00  0.00     0.000 HD 
BRANCH  23  25
HETATM   25  S   UNL     1     -12.378   8.083  72.063  1.00  0.00    -0.323 S  
HETATM   26  O   UNL     1     -11.171   8.395  72.790  1.00  0.00    -0.339 OA 
HETATM   27  O   UNL     1     -12.853   6.726  71.937  1.00  0.00    -0.338 OA 
HETATM   28  N   UNL     1     -13.598   8.914  72.854  1.00  0.00    -0.872 N  
HETATM   29  H1  UNL     1     -13.639   8.490  73.781  1.00  0.00     0.000 HD 
HETATM   30  H2  UNL     1     -14.172   9.675  72.491  1.00  0.00     0.000 HD 
ENDBRANCH  23  25
ENDBRANCH  19  23
ENDBRANCH  18  19
ENDBRANCH  17  18
ENDBRANCH  16  17
ENDBRANCH  15  16
ENDBRANCH  12  15
ENDBRANCH   5  10
TORSDOF 8
ENDMDL
MODEL      117
REMARK 921   NORMALIZED FREE ENERGY PREDICTED BY IDOCK:   -4.76 KCAL/MOL
REMARK 922        TOTAL FREE ENERGY PREDICTED BY IDOCK:   -8.16 KCAL/MOL
REMARK 923 INTER-LIGAND FREE ENERGY PREDICTED BY IDOCK:   -6.38 KCAL/MOL
REMARK 924 INTRA-LIGAND FREE ENERGY PREDICTED BY IDOCK:   -1.78 KCAL/MOL
REMARK 927      BINDING AFFINITY PREDICTED BY RF-SCORE:    0.00 PKD
ROOT
HETATM    1  N   UNL     1     -12.286  13.997  68.795  1.00  0.00    -0.521 NA 
HETATM    2  C   UNL     1     -11.933  13.163  67.787  1.00  0.00    -0.307 C  
HETATM    3  H2  UNL     1     -12.615  13.705  69.715  1.00  0.00     0.000 HD 
HETATM    4  H1  UNL     1     -12.170  14.963  68.490  1.00  0.00     0.000 HD 
HETATM    5  N   UNL     1     -11.511  13.633  66.665  1.00  0.00    -0.329 NA 
HETATM    6  N   UNL     1     -12.088  11.877  68.193  1.00  0.00    -0.486 NA 
HETATM    7  H2  UNL     1     -12.418  11.585  69.113  1.00  0.00     0.000 HD 
HETATM    8  H1  UNL     1     -11.822  11.249  67.435  1.00  0.00     0.000 HD 
HETATM    9  H   UNL     1     -11.426  14.639  66.520  1.00  0.00     0.000 HD 
ENDROOT
BRANCH   5  10
HETATM   10  C   UNL     1     -11.182  12.761  65.678  1.00  0.00    -0.301 A  
HETATM   11  N   UNL     1     -10.333  11.745  65.721  1.00  0.00    -0.244 NA 
HETATM   12  C   UNL     1     -10.290  11.079  64.499  1.00  0.00    -0.354 A  
HETATM   13  S   UNL     1     -11.971  12.950  64.148  1.00  0.00    -0.458 SA 
HETATM   14  C   UNL     1     -11.102  11.621  63.523  1.00  0.00    -0.393 A  
BRANCH  12  15
HETATM   15  C   UNL     1      -9.394   9.889  64.353  1.00  0.00    -0.265 C  
BRANCH  15  16
HETATM   16  S   UNL     1      -8.457   9.596  65.895  1.00  0.00    -0.132 SA 
BRANCH  16  17
HETATM   17  C   UNL     1      -9.150   7.986  66.410  1.00  0.00    -0.183 C  
BRANCH  17  18
HETATM   18  C   UNL     1     -10.511   8.059  67.092  1.00  0.00    -0.408 C  
BRANCH  18  19
HETATM   19  C   UNL     1     -10.410   8.139  68.615  1.00  0.00    -0.200 C  
HETATM   20  H2  UNL     1      -9.407   6.297  68.717  1.00  0.00     0.000 HD 
HETATM   21  N   UNL     1      -9.784   7.088  69.240  1.00  0.00    -0.157 NA 
HETATM   22  H1  UNL     1      -9.716   7.141  70.257  1.00  0.00     0.000 HD 
BRANCH  19  23
HETATM   23  N   UNL     1     -10.917   9.198  69.155  1.00  0.00    -0.424 N  
HETATM   24  H   UNL     1     -11.029  10.043  68.595  1.00  0.00     0.000 HD 
BRANCH  23  25
HETATM   25  S   UNL     1     -11.376   9.200  70.699  1.00  0.00    -0.268 S  
HETATM   26  O   UNL     1     -12.099   7.985  70.990  1.00  0.00    -0.292 OA 
HETATM   27  O   UNL     1     -11.922  10.497  71.025  1.00  0.00    -0.343 OA 
HETATM   28  N   UNL     1      -9.948   9.083  71.565  1.00  0.00    -0.319 N  
HETATM   29  H1  UNL     1     -10.238   9.085  72.542  1.00  0.00     0.000 HD 
HETATM   30  H2  UNL     1      -8.998   9.024  71.197  1.00  0.00     0.000 HD 
ENDBRANCH  23  25
ENDBRANCH  19  23
ENDBRANCH  18  19
ENDBRANCH  17  18
ENDBRANCH  16  17
ENDBRANCH  15  16
ENDBRANCH  12  15
ENDBRANCH   5  10
TORSDOF 8
ENDMDL
MODEL      118
REMARK 921   NORMALIZED FREE ENERGY PREDICTED BY IDOCK:   -4.75 KCAL/MOL
REMARK 922        TOTAL FREE ENERGY PREDICTED BY IDOCK:   -8.15 KCAL/MOL
REMARK 923 INTER-LIGAND FREE ENERGY PREDICTED BY IDOCK:   -6.58 KCAL/MOL
REMARK 924 INTRA-LIGAND FREE ENERGY PREDICTED BY IDOCK:   -1.57 KCAL/MOL
REMARK 927      BINDING AFFINITY PREDICTED BY RF-SCORE:    0.00 PKD
ROOT
HETATM    1  N   UNL     1     -11.286   5.706  66.284  1.00  0.00    -0.749 NA 
HETATM    2  C   UNL     1     -10.742   6.668  67.067  1.00  0.00    -0.366 C  
HETATM    3  H2  UNL     1     -11.329   5.729  65.265  1.00  0.00     0.000 HD 
HETATM    4  H1  UNL     1     -11.645   4.955  66.872  1.00  0.00     0.000 HD 
HETATM    5  N   UNL     1     -10.721   6.536  68.349  1.00  0.00    -0.252 NA 
HETATM    6  N   UNL     1     -10.264   7.668  66.284  1.00  0.00    -0.445 NA 
HETATM    7  H2  UNL     1     -10.307   7.691  65.266  1.00  0.00     0.000 HD 
HETATM    8  H1  UNL     1      -9.854   8.393  66.874  1.00  0.00     0.000 HD 
HETATM    9  H   UNL     1     -11.104   5.701  68.793  1.00  0.00     0.000 HD 
ENDROOT
BRANCH   5  10
HETATM   10  C   UNL     1     -10.178   7.531  69.096  1.00  0.00    -0.202 A  
HETATM   11  N   UNL     1      -9.277   8.435  68.741  1.00  0.00    -0.143 NA 
HETATM   12  C   UNL     1      -8.993   9.298  69.796  1.00  0.00    -0.172 A  
HETATM   13  S   UNL     1     -10.726   7.693  70.731  1.00  0.00    -0.229 SA 
HETATM   14  C   UNL     1      -9.676   9.019  70.962  1.00  0.00    -0.278 A  
BRANCH  12  15
HETATM   15  C   UNL     1      -8.004  10.401  69.585  1.00  0.00    -0.118 C  
BRANCH  15  16
HETATM   16  S   UNL     1      -7.645  10.610  67.805  1.00  0.00    -0.096 SA 
BRANCH  16  17
HETATM   17  C   UNL     1      -8.494  12.194  67.474  1.00  0.00    -0.169 C  
BRANCH  17  18
HETATM   18  C   UNL     1      -9.989  12.197  67.771  1.00  0.00    -0.198 C  
BRANCH  18  19
HETATM   19  C   UNL     1     -10.778  11.252  66.865  1.00  0.00    -0.273 C  
HETATM   20  H2  UNL     1     -11.687  10.317  68.510  1.00  0.00     0.000 HD 
HETATM   21  N   UNL     1     -11.605  10.353  67.494  1.00  0.00    -0.503 NA 
HETATM   22  H1  UNL     1     -12.131   9.721  66.890  1.00  0.00     0.000 HD 
BRANCH  19  23
HETATM   23  N   UNL     1     -10.591  11.407  65.596  1.00  0.00    -0.260 N  
HETATM   24  H   UNL     1      -9.946  10.788  65.104  1.00  0.00     0.000 HD 
BRANCH  23  25
HETATM   25  S   UNL     1     -11.360  12.563  64.780  1.00  0.00    -0.327 S  
HETATM   26  O   UNL     1     -10.449  13.648  64.504  1.00  0.00    -0.430 OA 
HETATM   27  O   UNL     1     -12.645  12.797  65.396  1.00  0.00    -0.607 OA 
HETATM   28  N   UNL     1     -11.695  11.877  63.289  1.00  0.00    -0.758 N  
HETATM   29  H1  UNL     1     -12.183  12.609  62.773  1.00  0.00     0.000 HD 
HETATM   30  H2  UNL     1     -11.464  10.937  62.969  1.00  0.00     0.000 HD 
ENDBRANCH  23  25
ENDBRANCH  19  23
ENDBRANCH  18  19
ENDBRANCH  17  18
ENDBRANCH  16  17
ENDBRANCH  15  16
ENDBRANCH  12  15
ENDBRANCH   5  10
TORSDOF 8
ENDMDL
MODEL      119
REMARK 921   NORMALIZED FREE ENERGY PREDICTED BY IDOCK:   -4.73 KCAL/MOL
REMARK 922        TOTAL FREE ENERGY PREDICTED BY IDOCK:   -8.11 KCAL/MOL
REMARK 923 INTER-LIGAND FREE ENERGY PREDICTED BY IDOCK:   -6.40 KCAL/MOL
REMARK 924 INTRA-LIGAND FREE ENERGY PREDICTED BY IDOCK:   -1.71 KCAL/MOL
REMARK 927      BINDING AFFINITY PREDICTED BY RF-SCORE:    0.00 PKD
ROOT
HETATM    1  N   UNL     1      -9.819  10.202  67.498  1.00  0.00    -0.172 NA 
HETATM    2  C   UNL     1     -10.435  10.884  68.494  1.00  0.00    -0.188 C  
HETATM    3  H2  UNL     1      -8.934  10.464  67.064  1.00  0.00     0.000 HD 
HETATM    4  H1  UNL     1     -10.379   9.387  67.251  1.00  0.00     0.000 HD 
HETATM    5  N   UNL     1     -11.546  10.459  68.989  1.00  0.00    -0.468 NA 
HETATM    6  N   UNL     1      -9.690  11.969  68.823  1.00  0.00    -0.404 NA 
HETATM    7  H2  UNL     1      -8.805  12.231  68.389  1.00  0.00     0.000 HD 
HETATM    8  H1  UNL     1     -10.153  12.482  69.574  1.00  0.00     0.000 HD 
HETATM    9  H   UNL     1     -11.974   9.599  68.646  1.00  0.00     0.000 HD 
ENDROOT
BRANCH   5  10
HETATM   10  C   UNL     1     -12.135  11.181  69.977  1.00  0.00    -0.359 A  
HETATM   11  N   UNL     1     -12.338  12.489  70.037  1.00  0.00    -0.148 NA 
HETATM   12  C   UNL     1     -12.994  12.838  71.214  1.00  0.00    -0.220 A  
HETATM   13  S   UNL     1     -12.740  10.314  71.349  1.00  0.00    -0.480 SA 
HETATM   14  C   UNL     1     -13.265  11.776  72.054  1.00  0.00    -0.355 A  
BRANCH  12  15
HETATM   15  C   UNL     1     -13.326  14.276  71.461  1.00  0.00    -0.354 C  
BRANCH  15  16
HETATM   16  S   UNL     1     -11.881  15.161  72.147  1.00  0.00    -0.408 SA 
BRANCH  16  17
HETATM   17  C   UNL     1     -10.942  15.509  70.619  1.00  0.00    -0.342 C  
BRANCH  17  18
HETATM   18  C   UNL     1     -11.794  15.849  69.402  1.00  0.00    -0.325 C  
BRANCH  18  19
HETATM   19  C   UNL     1     -10.980  15.941  68.112  1.00  0.00    -0.335 C  
HETATM   20  H2  UNL     1     -10.875  18.034  68.242  1.00  0.00     0.000 HD 
HETATM   21  N   UNL     1     -10.616  17.203  67.709  1.00  0.00    -0.364 NA 
HETATM   22  H1  UNL     1     -10.072  17.265  66.848  1.00  0.00     0.000 HD 
BRANCH  19  23
HETATM   23  N   UNL     1     -10.710  14.815  67.539  1.00  0.00    -0.264 N  
HETATM   24  H   UNL     1     -11.339  14.022  67.667  1.00  0.00     0.000 HD 
BRANCH  23  25
HETATM   25  S   UNL     1      -9.394  14.645  66.625  1.00  0.00    -0.276 S  
HETATM   26  O   UNL     1      -8.242  14.442  67.471  1.00  0.00    -0.161 OA 
HETATM   27  O   UNL     1      -9.404  15.657  65.595  1.00  0.00    -0.301 OA 
HETATM   28  N   UNL     1      -9.618  13.190  65.826  1.00  0.00    -0.478 N  
HETATM   29  H1  UNL     1      -8.785  13.083  65.248  1.00  0.00     0.000 HD 
HETATM   30  H2  UNL     1     -10.411  12.552  65.902  1.00  0.00     0.000 HD 
ENDBRANCH  23  25
ENDBRANCH  19  23
ENDBRANCH  18  19
ENDBRANCH  17  18
ENDBRANCH  16  17
ENDBRANCH  15  16
ENDBRANCH  12  15
ENDBRANCH   5  10
TORSDOF 8
ENDMDL
MODEL      120
REMARK 921   NORMALIZED FREE ENERGY PREDICTED BY IDOCK:   -4.72 KCAL/MOL
REMARK 922        TOTAL FREE ENERGY PREDICTED BY IDOCK:   -8.10 KCAL/MOL
REMARK 923 INTER-LIGAND FREE ENERGY PREDICTED BY IDOCK:   -7.14 KCAL/MOL
REMARK 924 INTRA-LIGAND FREE ENERGY PREDICTED BY IDOCK:   -0.95 KCAL/MOL
REMARK 927      BINDING AFFINITY PREDICTED BY RF-SCORE:    0.00 PKD
ROOT
HETATM    1  N   UNL     1      -8.804   9.325  62.412  1.00  0.00    -0.272 NA 
HETATM    2  C   UNL     1      -9.505  10.104  63.271  1.00  0.00    -0.257 C  
HETATM    3  H2  UNL     1      -8.242   8.516  62.674  1.00  0.00     0.000 HD 
HETATM    4  H1  UNL     1      -8.927   9.674  61.462  1.00  0.00     0.000 HD 
HETATM    5  N   UNL     1     -10.202  11.096  62.835  1.00  0.00    -0.683 NA 
HETATM    6  N   UNL     1      -9.342   9.639  64.535  1.00  0.00    -0.409 NA 
HETATM    7  H2  UNL     1      -8.779   8.830  64.797  1.00  0.00     0.000 HD 
HETATM    8  H1  UNL     1      -9.870  10.225  65.181  1.00  0.00     0.000 HD 
HETATM    9  H   UNL     1     -10.245  11.305  61.838  1.00  0.00     0.000 HD 
ENDROOT
BRANCH   5  10
HETATM   10  C   UNL     1     -10.878  11.859  63.733  1.00  0.00    -0.418 A  
HETATM   11  N   UNL     1     -10.395  12.606  64.713  1.00  0.00    -0.309 NA 
HETATM   12  C   UNL     1     -11.419  13.250  65.401  1.00  0.00    -0.304 A  
HETATM   13  S   UNL     1     -12.604  11.909  63.599  1.00  0.00    -0.303 SA 
HETATM   14  C   UNL     1     -12.688  12.960  64.941  1.00  0.00    -0.403 A  
BRANCH  12  15
HETATM   15  C   UNL     1     -11.071  14.155  66.541  1.00  0.00    -0.318 C  
BRANCH  15  16
HETATM   16  S   UNL     1      -9.910  15.457  65.996  1.00  0.00    -0.354 SA 
BRANCH  16  17
HETATM   17  C   UNL     1      -8.529  15.186  67.162  1.00  0.00    -0.212 C  
BRANCH  17  18
HETATM   18  C   UNL     1      -7.333  16.112  66.971  1.00  0.00    -0.266 C  
BRANCH  18  19
HETATM   19  C   UNL     1      -7.740  17.547  66.634  1.00  0.00    -0.254 C  
HETATM   20  H2  UNL     1      -6.611  17.527  64.864  1.00  0.00     0.000 HD 
HETATM   21  N   UNL     1      -7.228  18.068  65.470  1.00  0.00    -0.507 NA 
HETATM   22  H1  UNL     1      -7.498  19.025  65.245  1.00  0.00     0.000 HD 
BRANCH  19  23
HETATM   23  N   UNL     1      -8.533  18.117  67.479  1.00  0.00    -0.246 N  
HETATM   24  H   UNL     1      -8.629  17.731  68.418  1.00  0.00     0.000 HD 
BRANCH  23  25
HETATM   25  S   UNL     1      -9.374  19.429  67.070  1.00  0.00    -0.342 S  
HETATM   26  O   UNL     1     -10.196  19.136  65.920  1.00  0.00    -0.462 OA 
HETATM   27  O   UNL     1      -8.497  20.576  67.097  1.00  0.00    -0.336 OA 
HETATM   28  N   UNL     1     -10.448  19.655  68.335  1.00  0.00    -0.489 N  
HETATM   29  H1  UNL     1     -10.979  20.485  68.076  1.00  0.00     0.000 HD 
HETATM   30  H2  UNL     1     -10.547  19.088  69.178  1.00  0.00     0.000 HD 
ENDBRANCH  23  25
ENDBRANCH  19  23
ENDBRANCH  18  19
ENDBRANCH  17  18
ENDBRANCH  16  17
ENDBRANCH  15  16
ENDBRANCH  12  15
ENDBRANCH   5  10
TORSDOF 8
ENDMDL
MODEL      121
REMARK 921   NORMALIZED FREE ENERGY PREDICTED BY IDOCK:   -4.71 KCAL/MOL
REMARK 922        TOTAL FREE ENERGY PREDICTED BY IDOCK:   -8.09 KCAL/MOL
REMARK 923 INTER-LIGAND FREE ENERGY PREDICTED BY IDOCK:   -5.98 KCAL/MOL
REMARK 924 INTRA-LIGAND FREE ENERGY PREDICTED BY IDOCK:   -2.11 KCAL/MOL
REMARK 927      BINDING AFFINITY PREDICTED BY RF-SCORE:    0.00 PKD
ROOT
HETATM    1  N   UNL     1     -12.374  14.576  67.760  1.00  0.00    -0.595 NA 
HETATM    2  C   UNL     1     -11.578  13.669  67.144  1.00  0.00    -0.361 C  
HETATM    3  H2  UNL     1     -12.047  15.372  68.307  1.00  0.00     0.000 HD 
HETATM    4  H1  UNL     1     -13.350  14.338  67.592  1.00  0.00     0.000 HD 
HETATM    5  N   UNL     1     -12.092  12.705  66.460  1.00  0.00    -0.552 NA 
HETATM    6  N   UNL     1     -10.278  13.985  67.368  1.00  0.00    -0.247 NA 
HETATM    7  H2  UNL     1      -9.951  14.781  67.915  1.00  0.00     0.000 HD 
HETATM    8  H1  UNL     1      -9.679  13.302  66.904  1.00  0.00     0.000 HD 
HETATM    9  H   UNL     1     -13.103  12.616  66.363  1.00  0.00     0.000 HD 
ENDROOT
BRANCH   5  10
HETATM   10  C   UNL     1     -11.257  11.811  65.870  1.00  0.00    -0.290 A  
HETATM   11  N   UNL     1     -10.576  10.823  66.429  1.00  0.00    -0.232 NA 
HETATM   12  C   UNL     1      -9.846  10.118  65.476  1.00  0.00    -0.298 A  
HETATM   13  S   UNL     1     -11.046  11.925  64.155  1.00  0.00    -0.402 SA 
HETATM   14  C   UNL     1      -9.968  10.602  64.189  1.00  0.00    -0.342 A  
BRANCH  12  15
HETATM   15  C   UNL     1      -9.018   8.950  65.913  1.00  0.00    -0.200 C  
BRANCH  15  16
HETATM   16  S   UNL     1      -7.239   9.303  65.687  1.00  0.00    -0.091 SA 
BRANCH  16  17
HETATM   17  C   UNL     1      -6.880  10.223  67.224  1.00  0.00    -0.081 C  
BRANCH  17  18
HETATM   18  C   UNL     1      -7.458   9.609  68.493  1.00  0.00    -0.079 C  
BRANCH  18  19
HETATM   19  C   UNL     1      -8.457  10.527  69.197  1.00  0.00    -0.147 C  
HETATM   20  H2  UNL     1      -7.945  12.148  67.964  1.00  0.00     0.000 HD 
HETATM   21  N   UNL     1      -8.527  11.820  68.735  1.00  0.00    -0.345 NA 
HETATM   22  H1  UNL     1      -9.193  12.433  69.205  1.00  0.00     0.000 HD 
BRANCH  19  23
HETATM   23  N   UNL     1      -9.139   9.986  70.151  1.00  0.00    -0.379 N  
HETATM   24  H   UNL     1      -8.651   9.557  70.938  1.00  0.00     0.000 HD 
BRANCH  23  25
HETATM   25  S   UNL     1     -10.750   9.980  70.117  1.00  0.00    -0.316 S  
HETATM   26  O   UNL     1     -11.228  11.265  69.667  1.00  0.00    -0.257 OA 
HETATM   27  O   UNL     1     -11.243   9.376  71.332  1.00  0.00    -0.330 OA 
HETATM   28  N   UNL     1     -11.142   8.908  68.891  1.00  0.00    -0.433 N  
HETATM   29  H1  UNL     1     -12.161   8.904  68.870  1.00  0.00     0.000 HD 
HETATM   30  H2  UNL     1     -10.504   8.377  68.298  1.00  0.00     0.000 HD 
ENDBRANCH  23  25
ENDBRANCH  19  23
ENDBRANCH  18  19
ENDBRANCH  17  18
ENDBRANCH  16  17
ENDBRANCH  15  16
ENDBRANCH  12  15
ENDBRANCH   5  10
TORSDOF 8
ENDMDL
MODEL      122
REMARK 921   NORMALIZED FREE ENERGY PREDICTED BY IDOCK:   -4.70 KCAL/MOL
REMARK 922        TOTAL FREE ENERGY PREDICTED BY IDOCK:   -8.08 KCAL/MOL
REMARK 923 INTER-LIGAND FREE ENERGY PREDICTED BY IDOCK:   -7.36 KCAL/MOL
REMARK 924 INTRA-LIGAND FREE ENERGY PREDICTED BY IDOCK:   -0.72 KCAL/MOL
REMARK 927      BINDING AFFINITY PREDICTED BY RF-SCORE:    0.00 PKD
ROOT
HETATM    1  N   UNL     1      -6.582  21.004  64.551  1.00  0.00    -0.534 NA 
HETATM    2  C   UNL     1      -7.223  19.963  65.136  1.00  0.00    -0.002 C  
HETATM    3  H2  UNL     1      -5.655  20.964  64.128  1.00  0.00     0.000 HD 
HETATM    4  H1  UNL     1      -7.173  21.834  64.600  1.00  0.00     0.000 HD 
HETATM    5  N   UNL     1      -8.404  20.113  65.627  1.00  0.00    -0.497 NA 
HETATM    6  N   UNL     1      -6.437  18.858  65.070  1.00  0.00    -0.491 NA 
HETATM    7  H2  UNL     1      -5.511  18.818  64.647  1.00  0.00     0.000 HD 
HETATM    8  H1  UNL     1      -6.920  18.074  65.509  1.00  0.00     0.000 HD 
HETATM    9  H   UNL     1      -8.880  21.014  65.575  1.00  0.00     0.000 HD 
ENDROOT
BRANCH   5  10
HETATM   10  C   UNL     1      -9.003  19.046  66.216  1.00  0.00    -0.279 A  
HETATM   11  N   UNL     1      -8.785  17.756  66.007  1.00  0.00    -0.514 NA 
HETATM   12  C   UNL     1      -9.595  16.975  66.827  1.00  0.00    -0.264 A  
HETATM   13  S   UNL     1     -10.201  19.368  67.425  1.00  0.00    -0.453 SA 
HETATM   14  C   UNL     1     -10.446  17.693  67.643  1.00  0.00    -0.372 A  
BRANCH  12  15
HETATM   15  C   UNL     1      -9.484  15.484  66.747  1.00  0.00    -0.237 C  
BRANCH  15  16
HETATM   16  S   UNL     1     -10.526  14.834  65.394  1.00  0.00    -0.410 SA 
BRANCH  16  17
HETATM   17  C   UNL     1     -10.593  13.064  65.843  1.00  0.00    -0.275 C  
BRANCH  17  18
HETATM   18  C   UNL     1     -11.767  12.669  66.731  1.00  0.00    -0.460 C  
BRANCH  18  19
HETATM   19  C   UNL     1     -11.329  12.157  68.103  1.00  0.00    -0.293 C  
HETATM   20  H2  UNL     1      -9.655  13.424  68.121  1.00  0.00     0.000 HD 
HETATM   21  N   UNL     1     -10.183  12.710  68.623  1.00  0.00    -0.366 NA 
HETATM   22  H1  UNL     1      -9.890  12.369  69.539  1.00  0.00     0.000 HD 
BRANCH  19  23
HETATM   23  N   UNL     1     -12.091  11.260  68.636  1.00  0.00    -0.263 N  
HETATM   24  H   UNL     1     -12.709  10.707  68.041  1.00  0.00     0.000 HD 
BRANCH  23  25
HETATM   25  S   UNL     1     -12.079  11.002  70.226  1.00  0.00    -0.384 S  
HETATM   26  O   UNL     1     -12.421  12.223  70.916  1.00  0.00    -0.371 OA 
HETATM   27  O   UNL     1     -10.898  10.247  70.571  1.00  0.00    -0.301 OA 
HETATM   28  N   UNL     1     -13.368   9.966  70.496  1.00  0.00    -0.595 N  
HETATM   29  H1  UNL     1     -13.360   9.803  71.502  1.00  0.00     0.000 HD 
HETATM   30  H2  UNL     1     -14.016   9.584  69.807  1.00  0.00     0.000 HD 
ENDBRANCH  23  25
ENDBRANCH  19  23
ENDBRANCH  18  19
ENDBRANCH  17  18
ENDBRANCH  16  17
ENDBRANCH  15  16
ENDBRANCH  12  15
ENDBRANCH   5  10
TORSDOF 8
ENDMDL
MODEL      123
REMARK 921   NORMALIZED FREE ENERGY PREDICTED BY IDOCK:   -4.69 KCAL/MOL
REMARK 922        TOTAL FREE ENERGY PREDICTED BY IDOCK:   -8.06 KCAL/MOL
REMARK 923 INTER-LIGAND FREE ENERGY PREDICTED BY IDOCK:   -6.05 KCAL/MOL
REMARK 924 INTRA-LIGAND FREE ENERGY PREDICTED BY IDOCK:   -2.01 KCAL/MOL
REMARK 927      BINDING AFFINITY PREDICTED BY RF-SCORE:    0.00 PKD
ROOT
HETATM    1  N   UNL     1     -13.110  12.300  63.907  1.00  0.00    -0.761 NA 
HETATM    2  C   UNL     1     -12.081  11.904  64.694  1.00  0.00    -0.137 C  
HETATM    3  H2  UNL     1     -13.170  12.161  62.899  1.00  0.00     0.000 HD 
HETATM    4  H1  UNL     1     -13.816  12.759  64.482  1.00  0.00     0.000 HD 
HETATM    5  N   UNL     1     -12.110  12.112  65.965  1.00  0.00    -0.586 NA 
HETATM    6  N   UNL     1     -11.141  11.293  63.930  1.00  0.00    -0.498 NA 
HETATM    7  H2  UNL     1     -11.200  11.154  62.922  1.00  0.00     0.000 HD 
HETATM    8  H1  UNL     1     -10.366  10.993  64.522  1.00  0.00     0.000 HD 
HETATM    9  H   UNL     1     -12.912  12.569  66.400  1.00  0.00     0.000 HD 
ENDROOT
BRANCH   5  10
HETATM   10  C   UNL     1     -11.051  11.710  66.714  1.00  0.00    -0.309 A  
HETATM   11  N   UNL     1      -9.760  11.904  66.491  1.00  0.00    -0.205 NA 
HETATM   12  C   UNL     1      -8.989  11.349  67.509  1.00  0.00    -0.150 A  
HETATM   13  S   UNL     1     -11.388  10.846  68.177  1.00  0.00    -0.299 SA 
HETATM   14  C   UNL     1      -9.716  10.711  68.494  1.00  0.00    -0.174 A  
BRANCH  12  15
HETATM   15  C   UNL     1      -7.499  11.477  67.443  1.00  0.00    -0.127 C  
BRANCH  15  16
HETATM   16  S   UNL     1      -6.919  12.807  68.554  1.00  0.00    -0.100 SA 
BRANCH  16  17
HETATM   17  C   UNL     1      -7.401  14.283  67.592  1.00  0.00    -0.176 C  
BRANCH  17  18
HETATM   18  C   UNL     1      -8.521  15.115  68.205  1.00  0.00    -0.152 C  
BRANCH  18  19
HETATM   19  C   UNL     1      -9.200  16.037  67.192  1.00  0.00    -0.207 C  
HETATM   20  H2  UNL     1      -7.408  17.065  66.819  1.00  0.00     0.000 HD 
HETATM   21  N   UNL     1      -8.400  16.983  66.597  1.00  0.00    -0.227 NA 
HETATM   22  H1  UNL     1      -8.853  17.599  65.922  1.00  0.00     0.000 HD 
BRANCH  19  23
HETATM   23  N   UNL     1     -10.459  15.822  66.995  1.00  0.00    -0.304 N  
HETATM   24  H   UNL     1     -11.098  15.816  67.790  1.00  0.00     0.000 HD 
BRANCH  23  25
HETATM   25  S   UNL     1     -11.032  15.563  65.512  1.00  0.00    -0.296 S  
HETATM   26  O   UNL     1     -10.860  16.754  64.714  1.00  0.00    -0.745 OA 
HETATM   27  O   UNL     1     -12.311  14.901  65.612  1.00  0.00    -0.075 OA 
HETATM   28  N   UNL     1      -9.991  14.432  64.848  1.00  0.00    -0.517 N  
HETATM   29  H1  UNL     1     -10.354  14.268  63.909  1.00  0.00     0.000 HD 
HETATM   30  H2  UNL     1      -9.176  14.001  65.285  1.00  0.00     0.000 HD 
ENDBRANCH  23  25
ENDBRANCH  19  23
ENDBRANCH  18  19
ENDBRANCH  17  18
ENDBRANCH  16  17
ENDBRANCH  15  16
ENDBRANCH  12  15
ENDBRANCH   5  10
TORSDOF 8
ENDMDL
MODEL      124
REMARK 921   NORMALIZED FREE ENERGY PREDICTED BY IDOCK:   -4.68 KCAL/MOL
REMARK 922        TOTAL FREE ENERGY PREDICTED BY IDOCK:   -8.05 KCAL/MOL
REMARK 923 INTER-LIGAND FREE ENERGY PREDICTED BY IDOCK:   -7.14 KCAL/MOL
REMARK 924 INTRA-LIGAND FREE ENERGY PREDICTED BY IDOCK:   -0.91 KCAL/MOL
REMARK 927      BINDING AFFINITY PREDICTED BY RF-SCORE:    0.00 PKD
ROOT
HETATM    1  N   UNL     1     -10.415   2.718  64.366  1.00  0.00    -0.395 NA 
HETATM    2  C   UNL     1     -10.358   3.982  64.851  1.00  0.00    -0.183 C  
HETATM    3  H2  UNL     1     -11.251   2.265  63.998  1.00  0.00     0.000 HD 
HETATM    4  H1  UNL     1      -9.491   2.292  64.427  1.00  0.00     0.000 HD 
HETATM    5  N   UNL     1      -9.245   4.470  65.278  1.00  0.00    -0.150 NA 
HETATM    6  N   UNL     1     -11.587   4.551  64.770  1.00  0.00    -0.946 NA 
HETATM    7  H2  UNL     1     -12.423   4.097  64.402  1.00  0.00     0.000 HD 
HETATM    8  H1  UNL     1     -11.544   5.502  65.135  1.00  0.00     0.000 HD 
HETATM    9  H   UNL     1      -8.388   3.917  65.249  1.00  0.00     0.000 HD 
ENDROOT
BRANCH   5  10
HETATM   10  C   UNL     1      -9.236   5.737  65.768  1.00  0.00    -0.070 A  
HETATM   11  N   UNL     1      -9.927   6.236  66.782  1.00  0.00    -0.164 NA 
HETATM   12  C   UNL     1      -9.620   7.579  66.981  1.00  0.00    -0.170 A  
HETATM   13  S   UNL     1      -8.176   6.879  65.013  1.00  0.00    -0.050 SA 
HETATM   14  C   UNL     1      -8.704   8.095  66.087  1.00  0.00    -0.156 A  
BRANCH  12  15
HETATM   15  C   UNL     1     -10.293   8.319  68.095  1.00  0.00    -0.202 C  
BRANCH  15  16
HETATM   16  S   UNL     1      -9.756  10.066  68.123  1.00  0.00    -0.142 SA 
BRANCH  16  17
HETATM   17  C   UNL     1     -11.039  10.829  67.070  1.00  0.00    -0.174 C  
BRANCH  17  18
HETATM   18  C   UNL     1     -11.733  12.043  67.677  1.00  0.00    -0.365 C  
BRANCH  18  19
HETATM   19  C   UNL     1     -11.810  13.228  66.714  1.00  0.00    -0.394 C  
HETATM   20  H2  UNL     1     -12.721  14.441  68.166  1.00  0.00     0.000 HD 
HETATM   21  N   UNL     1     -12.373  14.379  67.209  1.00  0.00    -0.594 NA 
HETATM   22  H1  UNL     1     -12.426  15.170  66.566  1.00  0.00     0.000 HD 
BRANCH  19  23
HETATM   23  N   UNL     1     -11.326  13.022  65.534  1.00  0.00    -0.295 N  
HETATM   24  H   UNL     1     -10.345  12.763  65.431  1.00  0.00     0.000 HD 
BRANCH  23  25
HETATM   25  S   UNL     1     -12.250  13.171  64.223  1.00  0.00    -0.388 S  
HETATM   26  O   UNL     1     -12.420  14.569  63.908  1.00  0.00    -0.814 OA 
HETATM   27  O   UNL     1     -13.382  12.283  64.343  1.00  0.00    -0.786 OA 
HETATM   28  N   UNL     1     -11.320  12.547  62.977  1.00  0.00    -0.706 N  
HETATM   29  H1  UNL     1     -11.905  12.641  62.148  1.00  0.00     0.000 HD 
HETATM   30  H2  UNL     1     -10.378  12.159  63.035  1.00  0.00     0.000 HD 
ENDBRANCH  23  25
ENDBRANCH  19  23
ENDBRANCH  18  19
ENDBRANCH  17  18
ENDBRANCH  16  17
ENDBRANCH  15  16
ENDBRANCH  12  15
ENDBRANCH   5  10
TORSDOF 8
ENDMDL
MODEL      125
REMARK 921   NORMALIZED FREE ENERGY PREDICTED BY IDOCK:   -4.67 KCAL/MOL
REMARK 922        TOTAL FREE ENERGY PREDICTED BY IDOCK:   -8.03 KCAL/MOL
REMARK 923 INTER-LIGAND FREE ENERGY PREDICTED BY IDOCK:   -6.91 KCAL/MOL
REMARK 924 INTRA-LIGAND FREE ENERGY PREDICTED BY IDOCK:   -1.12 KCAL/MOL
REMARK 927      BINDING AFFINITY PREDICTED BY RF-SCORE:    0.00 PKD
ROOT
HETATM    1  N   UNL     1     -13.768  15.226  70.662  1.00  0.00    -0.772 NA 
HETATM    2  C   UNL     1     -12.574  14.939  70.087  1.00  0.00    -0.264 C  
HETATM    3  H2  UNL     1     -14.149  14.769  71.490  1.00  0.00     0.000 HD 
HETATM    4  H1  UNL     1     -14.225  15.970  70.136  1.00  0.00     0.000 HD 
HETATM    5  N   UNL     1     -12.174  15.589  69.049  1.00  0.00    -0.611 NA 
HETATM    6  N   UNL     1     -11.965  13.949  70.787  1.00  0.00    -0.479 NA 
HETATM    7  H2  UNL     1     -12.346  13.492  71.615  1.00  0.00     0.000 HD 
HETATM    8  H1  UNL     1     -11.067  13.733  70.355  1.00  0.00     0.000 HD 
HETATM    9  H   UNL     1     -12.744  16.334  68.649  1.00  0.00     0.000 HD 
ENDROOT
BRANCH   5  10
HETATM   10  C   UNL     1     -10.978  15.259  68.498  1.00  0.00    -0.266 A  
HETATM   11  N   UNL     1      -9.765  15.396  69.012  1.00  0.00    -0.224 NA 
HETATM   12  C   UNL     1      -8.794  14.919  68.135  1.00  0.00    -0.174 A  
HETATM   13  S   UNL     1     -10.994  14.537  66.924  1.00  0.00    -0.323 SA 
HETATM   14  C   UNL     1      -9.291  14.440  66.939  1.00  0.00    -0.256 A  
BRANCH  12  15
HETATM   15  C   UNL     1      -7.356  14.976  68.544  1.00  0.00    -0.117 C  
BRANCH  15  16
HETATM   16  S   UNL     1      -6.642  16.614  68.159  1.00  0.00    -0.148 SA 
BRANCH  16  17
HETATM   17  C   UNL     1      -7.496  17.652  69.397  1.00  0.00     0.137 C  
BRANCH  17  18
HETATM   18  C   UNL     1      -8.015  18.986  68.872  1.00  0.00    -0.323 C  
BRANCH  18  19
HETATM   19  C   UNL     1      -9.520  18.976  68.608  1.00  0.00    -0.405 C  
HETATM   20  H2  UNL     1      -9.871  20.365  70.143  1.00  0.00     0.000 HD 
HETATM   21  N   UNL     1     -10.285  19.788  69.411  1.00  0.00    -0.611 NA 
HETATM   22  H1  UNL     1     -11.290  19.781  69.235  1.00  0.00     0.000 HD 
BRANCH  19  23
HETATM   23  N   UNL     1      -9.915  18.210  67.646  1.00  0.00    -0.322 N  
HETATM   24  H   UNL     1     -10.322  17.300  67.863  1.00  0.00     0.000 HD 
BRANCH  23  25
HETATM   25  S   UNL     1      -9.773  18.671  66.108  1.00  0.00    -0.154 S  
HETATM   26  O   UNL     1     -10.781  18.013  65.312  1.00  0.00    -0.625 OA 
HETATM   27  O   UNL     1      -8.378  18.638  65.735  1.00  0.00    -0.462 OA 
HETATM   28  N   UNL     1     -10.199  20.290  66.111  1.00  0.00    -0.508 N  
HETATM   29  H1  UNL     1     -10.109  20.582  65.139  1.00  0.00     0.000 HD 
HETATM   30  H2  UNL     1     -10.486  20.859  66.909  1.00  0.00     0.000 HD 
ENDBRANCH  23  25
ENDBRANCH  19  23
ENDBRANCH  18  19
ENDBRANCH  17  18
ENDBRANCH  16  17
ENDBRANCH  15  16
ENDBRANCH  12  15
ENDBRANCH   5  10
TORSDOF 8
ENDMDL
MODEL      126
REMARK 921   NORMALIZED FREE ENERGY PREDICTED BY IDOCK:   -4.67 KCAL/MOL
REMARK 922        TOTAL FREE ENERGY PREDICTED BY IDOCK:   -8.02 KCAL/MOL
REMARK 923 INTER-LIGAND FREE ENERGY PREDICTED BY IDOCK:   -6.19 KCAL/MOL
REMARK 924 INTRA-LIGAND FREE ENERGY PREDICTED BY IDOCK:   -1.83 KCAL/MOL
REMARK 927      BINDING AFFINITY PREDICTED BY RF-SCORE:    0.00 PKD
ROOT
HETATM    1  N   UNL     1      -7.032   8.718  74.566  1.00  0.00    -0.353 NA 
HETATM    2  C   UNL     1      -8.076   8.283  73.820  1.00  0.00    -0.192 C  
HETATM    3  H2  UNL     1      -6.239   9.254  74.214  1.00  0.00     0.000 HD 
HETATM    4  H1  UNL     1      -7.164   8.426  75.533  1.00  0.00     0.000 HD 
HETATM    5  N   UNL     1      -9.042   7.626  74.364  1.00  0.00    -0.431 NA 
HETATM    6  N   UNL     1      -7.901   8.671  72.531  1.00  0.00    -0.363 NA 
HETATM    7  H2  UNL     1      -7.108   9.207  72.180  1.00  0.00     0.000 HD 
HETATM    8  H1  UNL     1      -8.687   8.344  71.970  1.00  0.00     0.000 HD 
HETATM    9  H   UNL     1      -9.040   7.432  75.365  1.00  0.00     0.000 HD 
ENDROOT
BRANCH   5  10
HETATM   10  C   UNL     1     -10.061   7.197  73.576  1.00  0.00    -0.331 A  
HETATM   11  N   UNL     1     -10.963   7.917  72.926  1.00  0.00    -0.400 NA 
HETATM   12  C   UNL     1     -11.833   7.098  72.211  1.00  0.00    -0.239 A  
HETATM   13  S   UNL     1     -10.227   5.489  73.343  1.00  0.00    -0.220 SA 
HETATM   14  C   UNL     1     -11.590   5.747  72.349  1.00  0.00    -0.264 A  
BRANCH  12  15
HETATM   15  C   UNL     1     -12.918   7.730  71.397  1.00  0.00    -0.288 C  
BRANCH  15  16
HETATM   16  S   UNL     1     -13.891   8.895  72.415  1.00  0.00    -0.403 SA 
BRANCH  16  17
HETATM   17  C   UNL     1     -13.017  10.461  72.062  1.00  0.00    -0.396 C  
BRANCH  17  18
HETATM   18  C   UNL     1     -12.835  10.778  70.583  1.00  0.00    -0.377 C  
BRANCH  18  19
HETATM   19  C   UNL     1     -11.368  10.942  70.186  1.00  0.00    -0.284 C  
HETATM   20  H2  UNL     1     -11.744  12.803  69.288  1.00  0.00     0.000 HD 
HETATM   21  N   UNL     1     -11.044  12.095  69.511  1.00  0.00    -0.458 NA 
HETATM   22  H1  UNL     1     -10.065  12.205  69.246  1.00  0.00     0.000 HD 
BRANCH  19  23
HETATM   23  N   UNL     1     -10.582   9.979  70.536  1.00  0.00    -0.362 N  
HETATM   24  H   UNL     1     -10.710   9.530  71.443  1.00  0.00     0.000 HD 
BRANCH  23  25
HETATM   25  S   UNL     1      -9.402   9.476  69.561  1.00  0.00    -0.203 S  
HETATM   26  O   UNL     1      -9.686   9.890  68.207  1.00  0.00    -0.142 OA 
HETATM   27  O   UNL     1      -9.083   8.104  69.879  1.00  0.00    -0.149 OA 
HETATM   28  N   UNL     1      -8.062  10.368  70.024  1.00  0.00    -0.338 N  
HETATM   29  H1  UNL     1      -7.316  10.050  69.406  1.00  0.00     0.000 HD 
HETATM   30  H2  UNL     1      -8.005  11.073  70.759  1.00  0.00     0.000 HD 
ENDBRANCH  23  25
ENDBRANCH  19  23
ENDBRANCH  18  19
ENDBRANCH  17  18
ENDBRANCH  16  17
ENDBRANCH  15  16
ENDBRANCH  12  15
ENDBRANCH   5  10
TORSDOF 8
ENDMDL
MODEL      127
REMARK 921   NORMALIZED FREE ENERGY PREDICTED BY IDOCK:   -4.66 KCAL/MOL
REMARK 922        TOTAL FREE ENERGY PREDICTED BY IDOCK:   -8.02 KCAL/MOL
REMARK 923 INTER-LIGAND FREE ENERGY PREDICTED BY IDOCK:   -7.19 KCAL/MOL
REMARK 924 INTRA-LIGAND FREE ENERGY PREDICTED BY IDOCK:   -0.84 KCAL/MOL
REMARK 927      BINDING AFFINITY PREDICTED BY RF-SCORE:    0.00 PKD
ROOT
HETATM    1  N   UNL     1     -12.064   5.518  72.902  1.00  0.00    -0.510 NA 
HETATM    2  C   UNL     1     -11.895   6.469  71.952  1.00  0.00    -0.334 C  
HETATM    3  H2  UNL     1     -12.805   5.508  73.602  1.00  0.00     0.000 HD 
HETATM    4  H1  UNL     1     -11.333   4.813  72.808  1.00  0.00     0.000 HD 
HETATM    5  N   UNL     1     -10.933   6.380  71.100  1.00  0.00    -0.263 NA 
HETATM    6  N   UNL     1     -12.867   7.407  72.078  1.00  0.00    -0.494 NA 
HETATM    7  H2  UNL     1     -13.608   7.398  72.778  1.00  0.00     0.000 HD 
HETATM    8  H1  UNL     1     -12.740   8.123  71.362  1.00  0.00     0.000 HD 
HETATM    9  H   UNL     1     -10.290   5.588  71.120  1.00  0.00     0.000 HD 
ENDROOT
BRANCH   5  10
HETATM   10  C   UNL     1     -10.793   7.363  70.174  1.00  0.00    -0.256 A  
HETATM   11  N   UNL     1     -10.750   8.674  70.359  1.00  0.00    -0.220 NA 
HETATM   12  C   UNL     1     -10.577   9.343  69.150  1.00  0.00    -0.218 A  
HETATM   13  S   UNL     1     -10.617   6.883  68.519  1.00  0.00    -0.206 SA 
HETATM   14  C   UNL     1     -10.512   8.519  68.044  1.00  0.00    -0.191 A  
BRANCH  12  15
HETATM   15  C   UNL     1     -10.491  10.837  69.154  1.00  0.00    -0.218 C  
BRANCH  15  16
HETATM   16  S   UNL     1      -9.388  11.421  67.819  1.00  0.00    -0.166 SA 
BRANCH  16  17
HETATM   17  C   UNL     1      -9.770  13.208  67.825  1.00  0.00    -0.218 C  
BRANCH  17  18
HETATM   18  C   UNL     1      -9.398  13.951  66.548  1.00  0.00    -0.264 C  
BRANCH  18  19
HETATM   19  C   UNL     1     -10.617  14.464  65.782  1.00  0.00    -0.318 C  
HETATM   20  H2  UNL     1      -9.753  16.362  65.535  1.00  0.00     0.000 HD 
HETATM   21  N   UNL     1     -10.563  15.769  65.353  1.00  0.00    -0.398 NA 
HETATM   22  H1  UNL     1     -11.377  16.112  64.842  1.00  0.00     0.000 HD 
BRANCH  19  23
HETATM   23  N   UNL     1     -11.571  13.610  65.609  1.00  0.00    -0.320 N  
HETATM   24  H   UNL     1     -11.897  13.054  66.400  1.00  0.00     0.000 HD 
BRANCH  23  25
HETATM   25  S   UNL     1     -12.252  13.409  64.163  1.00  0.00    -0.373 S  
HETATM   26  O   UNL     1     -12.537  14.699  63.581  1.00  0.00    -0.773 OA 
HETATM   27  O   UNL     1     -13.264  12.385  64.259  1.00  0.00    -0.769 OA 
HETATM   28  N   UNL     1     -11.039  12.755  63.212  1.00  0.00    -0.677 N  
HETATM   29  H1  UNL     1     -11.470  12.628  62.297  1.00  0.00     0.000 HD 
HETATM   30  H2  UNL     1     -10.081  12.532  63.487  1.00  0.00     0.000 HD 
ENDBRANCH  23  25
ENDBRANCH  19  23
ENDBRANCH  18  19
ENDBRANCH  17  18
ENDBRANCH  16  17
ENDBRANCH  15  16
ENDBRANCH  12  15
ENDBRANCH   5  10
TORSDOF 8
ENDMDL
MODEL      128
REMARK 921   NORMALIZED FREE ENERGY PREDICTED BY IDOCK:   -4.66 KCAL/MOL
REMARK 922        TOTAL FREE ENERGY PREDICTED BY IDOCK:   -8.02 KCAL/MOL
REMARK 923 INTER-LIGAND FREE ENERGY PREDICTED BY IDOCK:   -6.40 KCAL/MOL
REMARK 924 INTRA-LIGAND FREE ENERGY PREDICTED BY IDOCK:   -1.62 KCAL/MOL
REMARK 927      BINDING AFFINITY PREDICTED BY RF-SCORE:    0.00 PKD
ROOT
HETATM    1  N   UNL     1      -5.194  14.801  67.725  1.00  0.00    -0.299 NA 
HETATM    2  C   UNL     1      -6.460  15.092  67.338  1.00  0.00    -0.016 C  
HETATM    3  H2  UNL     1      -4.820  13.862  67.859  1.00  0.00     0.000 HD 
HETATM    4  H1  UNL     1      -4.675  15.667  67.861  1.00  0.00     0.000 HD 
HETATM    5  N   UNL     1      -6.830  16.316  67.179  1.00  0.00    -0.194 NA 
HETATM    6  N   UNL     1      -7.151  13.939  67.157  1.00  0.00    -0.390 NA 
HETATM    7  H2  UNL     1      -6.777  13.000  67.291  1.00  0.00     0.000 HD 
HETATM    8  H1  UNL     1      -8.104  14.159  66.865  1.00  0.00     0.000 HD 
HETATM    9  H   UNL     1      -6.176  17.083  67.332  1.00  0.00     0.000 HD 
ENDROOT
BRANCH   5  10
HETATM   10  C   UNL     1      -8.112  16.563  66.803  1.00  0.00    -0.251 A  
HETATM   11  N   UNL     1      -8.872  15.881  65.960  1.00  0.00    -0.319 NA 
HETATM   12  C   UNL     1     -10.138  16.451  65.857  1.00  0.00    -0.347 A  
HETATM   13  S   UNL     1      -8.905  17.928  67.516  1.00  0.00    -0.250 SA 
HETATM   14  C   UNL     1     -10.317  17.588  66.619  1.00  0.00    -0.319 A  
BRANCH  12  15
HETATM   15  C   UNL     1     -11.150  15.813  64.958  1.00  0.00    -0.370 C  
BRANCH  15  16
HETATM   16  S   UNL     1     -11.170  14.001  65.197  1.00  0.00    -0.347 SA 
BRANCH  16  17
HETATM   17  C   UNL     1     -12.205  13.871  66.697  1.00  0.00    -0.424 C  
BRANCH  17  18
HETATM   18  C   UNL     1     -11.671  12.928  67.769  1.00  0.00    -0.412 C  
BRANCH  18  19
HETATM   19  C   UNL     1     -11.104  13.667  68.981  1.00  0.00    -0.255 C  
HETATM   20  H2  UNL     1      -9.356  14.184  67.939  1.00  0.00     0.000 HD 
HETATM   21  N   UNL     1      -9.867  14.245  68.820  1.00  0.00    -0.307 NA 
HETATM   22  H1  UNL     1      -9.488  14.737  69.629  1.00  0.00     0.000 HD 
BRANCH  19  23
HETATM   23  N   UNL     1     -11.856  13.678  70.032  1.00  0.00    -0.388 N  
HETATM   24  H   UNL     1     -12.261  12.805  70.369  1.00  0.00     0.000 HD 
BRANCH  23  25
HETATM   25  S   UNL     1     -12.162  15.052  70.817  1.00  0.00    -0.363 S  
HETATM   26  O   UNL     1     -11.208  15.218  71.887  1.00  0.00    -0.416 OA 
HETATM   27  O   UNL     1     -13.583  15.152  71.050  1.00  0.00    -0.437 OA 
HETATM   28  N   UNL     1     -11.802  16.258  69.712  1.00  0.00    -0.292 N  
HETATM   29  H1  UNL     1     -11.995  17.127  70.209  1.00  0.00     0.000 HD 
HETATM   30  H2  UNL     1     -11.464  16.149  68.756  1.00  0.00     0.000 HD 
ENDBRANCH  23  25
ENDBRANCH  19  23
ENDBRANCH  18  19
ENDBRANCH  17  18
ENDBRANCH  16  17
ENDBRANCH  15  16
ENDBRANCH  12  15
ENDBRANCH   5  10
TORSDOF 8
ENDMDL
MODEL      129
REMARK 921   NORMALIZED FREE ENERGY PREDICTED BY IDOCK:   -4.66 KCAL/MOL
REMARK 922        TOTAL FREE ENERGY PREDICTED BY IDOCK:   -8.02 KCAL/MOL
REMARK 923 INTER-LIGAND FREE ENERGY PREDICTED BY IDOCK:   -7.20 KCAL/MOL
REMARK 924 INTRA-LIGAND FREE ENERGY PREDICTED BY IDOCK:   -0.81 KCAL/MOL
REMARK 927      BINDING AFFINITY PREDICTED BY RF-SCORE:    0.00 PKD
ROOT
HETATM    1  N   UNL     1     -12.653  13.918  63.006  1.00  0.00    -0.908 NA 
HETATM    2  C   UNL     1     -11.979  12.927  63.638  1.00  0.00    -0.541 C  
HETATM    3  H2  UNL     1     -13.617  14.191  63.197  1.00  0.00     0.000 HD 
HETATM    4  H1  UNL     1     -12.045  14.350  62.311  1.00  0.00     0.000 HD 
HETATM    5  N   UNL     1     -10.753  12.672  63.335  1.00  0.00    -0.532 NA 
HETATM    6  N   UNL     1     -12.788  12.352  64.563  1.00  0.00    -0.764 NA 
HETATM    7  H2  UNL     1     -13.752  12.625  64.754  1.00  0.00     0.000 HD 
HETATM    8  H1  UNL     1     -12.281  11.606  65.039  1.00  0.00     0.000 HD 
HETATM    9  H   UNL     1     -10.268  13.218  62.624  1.00  0.00     0.000 HD 
ENDROOT
BRANCH   5  10
HETATM   10  C   UNL     1     -10.121  11.660  63.984  1.00  0.00    -0.323 A  
HETATM   11  N   UNL     1     -10.149  11.360  65.273  1.00  0.00    -0.254 NA 
HETATM   12  C   UNL     1      -9.377  10.232  65.539  1.00  0.00    -0.199 A  
HETATM   13  S   UNL     1      -9.158  10.579  63.033  1.00  0.00    -0.310 SA 
HETATM   14  C   UNL     1      -8.746   9.697  64.434  1.00  0.00    -0.205 A  
BRANCH  12  15
HETATM   15  C   UNL     1      -9.294   9.725  66.945  1.00  0.00    -0.149 C  
BRANCH  15  16
HETATM   16  S   UNL     1     -10.657  10.404  67.955  1.00  0.00    -0.241 SA 
BRANCH  16  17
HETATM   17  C   UNL     1      -9.904  10.345  69.619  1.00  0.00    -0.144 C  
BRANCH  17  18
HETATM   18  C   UNL     1      -9.825   8.957  70.242  1.00  0.00    -0.211 C  
BRANCH  18  19
HETATM   19  C   UNL     1     -11.139   8.518  70.888  1.00  0.00    -0.255 C  
HETATM   20  H2  UNL     1     -11.350   6.920  69.543  1.00  0.00     0.000 HD 
HETATM   21  N   UNL     1     -11.751   7.417  70.338  1.00  0.00    -0.484 NA 
HETATM   22  H1  UNL     1     -12.629   7.125  70.768  1.00  0.00     0.000 HD 
BRANCH  19  23
HETATM   23  N   UNL     1     -11.533   9.228  71.893  1.00  0.00    -0.367 N  
HETATM   24  H   UNL     1     -10.907   9.366  72.687  1.00  0.00     0.000 HD 
BRANCH  23  25
HETATM   25  S   UNL     1     -12.999   9.896  71.912  1.00  0.00    -0.447 S  
HETATM   26  O   UNL     1     -12.877  11.330  71.793  1.00  0.00    -0.416 OA 
HETATM   27  O   UNL     1     -13.778   9.290  72.965  1.00  0.00    -0.204 OA 
HETATM   28  N   UNL     1     -13.711   9.394  70.481  1.00  0.00    -0.247 N  
HETATM   29  H1  UNL     1     -14.638   9.817  70.493  1.00  0.00     0.000 HD 
HETATM   30  H2  UNL     1     -13.307   8.797  69.759  1.00  0.00     0.000 HD 
ENDBRANCH  23  25
ENDBRANCH  19  23
ENDBRANCH  18  19
ENDBRANCH  17  18
ENDBRANCH  16  17
ENDBRANCH  15  16
ENDBRANCH  12  15
ENDBRANCH   5  10
TORSDOF 8
ENDMDL
MODEL      130
REMARK 921   NORMALIZED FREE ENERGY PREDICTED BY IDOCK:   -4.65 KCAL/MOL
REMARK 922        TOTAL FREE ENERGY PREDICTED BY IDOCK:   -8.00 KCAL/MOL
REMARK 923 INTER-LIGAND FREE ENERGY PREDICTED BY IDOCK:   -6.41 KCAL/MOL
REMARK 924 INTRA-LIGAND FREE ENERGY PREDICTED BY IDOCK:   -1.59 KCAL/MOL
REMARK 927      BINDING AFFINITY PREDICTED BY RF-SCORE:    0.00 PKD
ROOT
HETATM    1  N   UNL     1     -11.921  12.122  67.329  1.00  0.00    -0.578 NA 
HETATM    2  C   UNL     1     -11.501  10.941  67.845  1.00  0.00    -0.266 C  
HETATM    3  H2  UNL     1     -12.699  12.677  67.683  1.00  0.00     0.000 HD 
HETATM    4  H1  UNL     1     -11.336  12.368  66.530  1.00  0.00     0.000 HD 
HETATM    5  N   UNL     1     -10.493  10.324  67.333  1.00  0.00    -0.233 NA 
HETATM    6  N   UNL     1     -12.278  10.614  68.907  1.00  0.00    -0.793 NA 
HETATM    7  H2  UNL     1     -13.057  11.169  69.262  1.00  0.00     0.000 HD 
HETATM    8  H1  UNL     1     -11.962   9.725  69.297  1.00  0.00     0.000 HD 
HETATM    9  H   UNL     1      -9.989  10.718  66.539  1.00  0.00     0.000 HD 
ENDROOT
BRANCH   5  10
HETATM   10  C   UNL     1     -10.115   9.137  67.874  1.00  0.00    -0.199 A  
HETATM   11  N   UNL     1      -9.618   8.898  69.078  1.00  0.00    -0.156 NA 
HETATM   12  C   UNL     1      -9.375   7.538  69.256  1.00  0.00    -0.151 A  
HETATM   13  S   UNL     1     -10.315   7.717  66.903  1.00  0.00    -0.290 SA 
HETATM   14  C   UNL     1      -9.674   6.755  68.159  1.00  0.00    -0.129 A  
BRANCH  12  15
HETATM   15  C   UNL     1      -8.823   7.066  70.564  1.00  0.00    -0.154 C  
BRANCH  15  16
HETATM   16  S   UNL     1      -8.425   8.485  71.645  1.00  0.00    -0.178 SA 
BRANCH  16  17
HETATM   17  C   UNL     1      -9.125   7.907  73.230  1.00  0.00    -0.278 C  
BRANCH  17  18
HETATM   18  C   UNL     1      -9.578   6.452  73.243  1.00  0.00    -0.158 C  
BRANCH  18  19
HETATM   19  C   UNL     1     -11.096   6.300  73.147  1.00  0.00    -0.171 C  
HETATM   20  H2  UNL     1     -10.970   4.211  73.326  1.00  0.00     0.000 HD 
HETATM   21  N   UNL     1     -11.586   5.018  73.217  1.00  0.00    -0.495 NA 
HETATM   22  H1  UNL     1     -12.599   4.916  73.152  1.00  0.00     0.000 HD 
BRANCH  19  23
HETATM   23  N   UNL     1     -11.762   7.400  73.021  1.00  0.00    -0.579 N  
HETATM   24  H   UNL     1     -11.756   8.081  73.780  1.00  0.00     0.000 HD 
BRANCH  23  25
HETATM   25  S   UNL     1     -12.601   7.710  71.681  1.00  0.00    -0.346 S  
HETATM   26  O   UNL     1     -12.313   6.703  70.687  1.00  0.00    -0.340 OA 
HETATM   27  O   UNL     1     -12.499   9.118  71.378  1.00  0.00    -0.308 OA 
HETATM   28  N   UNL     1     -14.199   7.459  72.115  1.00  0.00    -0.606 N  
HETATM   29  H1  UNL     1     -14.729   7.655  71.267  1.00  0.00     0.000 HD 
HETATM   30  H2  UNL     1     -14.561   7.173  73.025  1.00  0.00     0.000 HD 
ENDBRANCH  23  25
ENDBRANCH  19  23
ENDBRANCH  18  19
ENDBRANCH  17  18
ENDBRANCH  16  17
ENDBRANCH  15  16
ENDBRANCH  12  15
ENDBRANCH   5  10
TORSDOF 8
ENDMDL
MODEL      131
REMARK 921   NORMALIZED FREE ENERGY PREDICTED BY IDOCK:   -4.64 KCAL/MOL
REMARK 922        TOTAL FREE ENERGY PREDICTED BY IDOCK:   -7.98 KCAL/MOL
REMARK 923 INTER-LIGAND FREE ENERGY PREDICTED BY IDOCK:   -6.89 KCAL/MOL
REMARK 924 INTRA-LIGAND FREE ENERGY PREDICTED BY IDOCK:   -1.09 KCAL/MOL
REMARK 927      BINDING AFFINITY PREDICTED BY RF-SCORE:    0.00 PKD
ROOT
HETATM    1  N   UNL     1      -8.622   9.084  63.468  1.00  0.00    -0.353 NA 
HETATM    2  C   UNL     1      -9.124   9.926  64.404  1.00  0.00    -0.254 C  
HETATM    3  H2  UNL     1      -7.802   9.265  62.890  1.00  0.00     0.000 HD 
HETATM    4  H1  UNL     1      -9.194   8.240  63.433  1.00  0.00     0.000 HD 
HETATM    5  N   UNL     1     -10.159   9.595  65.096  1.00  0.00    -0.325 NA 
HETATM    6  N   UNL     1      -8.363  11.049  64.451  1.00  0.00    -0.360 NA 
HETATM    7  H2  UNL     1      -7.542  11.230  63.874  1.00  0.00     0.000 HD 
HETATM    8  H1  UNL     1      -8.740  11.683  65.156  1.00  0.00     0.000 HD 
HETATM    9  H   UNL     1     -10.611   8.691  64.958  1.00  0.00     0.000 HD 
ENDROOT
BRANCH   5  10
HETATM   10  C   UNL     1     -10.635  10.475  66.013  1.00  0.00    -0.093 A  
HETATM   11  N   UNL     1     -11.148  11.681  65.814  1.00  0.00    -0.287 NA 
HETATM   12  C   UNL     1     -11.540  12.260  67.018  1.00  0.00    -0.349 A  
HETATM   13  S   UNL     1     -10.613   9.989  67.675  1.00  0.00    -0.285 SA 
HETATM   14  C   UNL     1     -11.296  11.484  68.133  1.00  0.00    -0.298 A  
BRANCH  12  15
HETATM   15  C   UNL     1     -12.158  13.624  66.998  1.00  0.00    -0.380 C  
BRANCH  15  16
HETATM   16  S   UNL     1     -11.802  14.513  68.555  1.00  0.00    -0.294 SA 
BRANCH  16  17
HETATM   17  C   UNL     1     -10.267  15.392  68.096  1.00  0.00    -0.230 C  
BRANCH  17  18
HETATM   18  C   UNL     1     -10.081  15.629  66.602  1.00  0.00    -0.280 C  
BRANCH  18  19
HETATM   19  C   UNL     1     -10.408  17.062  66.182  1.00  0.00    -0.319 C  
HETATM   20  H2  UNL     1     -11.131  16.426  64.316  1.00  0.00     0.000 HD 
HETATM   21  N   UNL     1     -10.954  17.221  64.931  1.00  0.00    -0.850 NA 
HETATM   22  H1  UNL     1     -11.171  18.177  64.650  1.00  0.00     0.000 HD 
BRANCH  19  23
HETATM   23  N   UNL     1     -10.143  17.976  67.056  1.00  0.00    -0.329 N  
HETATM   24  H   UNL     1     -10.500  17.880  68.007  1.00  0.00     0.000 HD 
BRANCH  23  25
HETATM   25  S   UNL     1      -9.259  19.265  66.665  1.00  0.00    -0.352 S  
HETATM   26  O   UNL     1      -8.129  18.851  65.868  1.00  0.00    -0.468 OA 
HETATM   27  O   UNL     1      -9.092  20.092  67.836  1.00  0.00    -0.318 OA 
HETATM   28  N   UNL     1     -10.234  20.147  65.627  1.00  0.00    -0.464 N  
HETATM   29  H1  UNL     1      -9.674  20.962  65.380  1.00  0.00     0.000 HD 
HETATM   30  H2  UNL     1     -11.177  19.919  65.312  1.00  0.00     0.000 HD 
ENDBRANCH  23  25
ENDBRANCH  19  23
ENDBRANCH  18  19
ENDBRANCH  17  18
ENDBRANCH  16  17
ENDBRANCH  15  16
ENDBRANCH  12  15
ENDBRANCH   5  10
TORSDOF 8
ENDMDL
MODEL      132
REMARK 921   NORMALIZED FREE ENERGY PREDICTED BY IDOCK:   -4.63 KCAL/MOL
REMARK 922        TOTAL FREE ENERGY PREDICTED BY IDOCK:   -7.98 KCAL/MOL
REMARK 923 INTER-LIGAND FREE ENERGY PREDICTED BY IDOCK:   -6.85 KCAL/MOL
REMARK 924 INTRA-LIGAND FREE ENERGY PREDICTED BY IDOCK:   -1.12 KCAL/MOL
REMARK 927      BINDING AFFINITY PREDICTED BY RF-SCORE:    0.00 PKD
ROOT
HETATM    1  N   UNL     1     -13.735  16.340  73.705  1.00  0.00    -0.776 NA 
HETATM    2  C   UNL     1     -13.184  15.245  73.127  1.00  0.00    -0.501 C  
HETATM    3  H2  UNL     1     -13.378  16.810  74.537  1.00  0.00     0.000 HD 
HETATM    4  H1  UNL     1     -14.561  16.621  73.178  1.00  0.00     0.000 HD 
HETATM    5  N   UNL     1     -13.703  14.736  72.064  1.00  0.00    -0.385 NA 
HETATM    6  N   UNL     1     -12.084  14.872  73.828  1.00  0.00    -0.411 NA 
HETATM    7  H2  UNL     1     -11.728  15.342  74.660  1.00  0.00     0.000 HD 
HETATM    8  H1  UNL     1     -11.670  14.048  73.393  1.00  0.00     0.000 HD 
HETATM    9  H   UNL     1     -14.529  15.153  71.635  1.00  0.00     0.000 HD 
ENDROOT
BRANCH   5  10
HETATM   10  C   UNL     1     -13.127  13.630  71.525  1.00  0.00    -0.350 A  
HETATM   11  N   UNL     1     -13.242  12.368  71.909  1.00  0.00    -0.449 NA 
HETATM   12  C   UNL     1     -12.504  11.526  71.081  1.00  0.00    -0.337 A  
HETATM   13  S   UNL     1     -12.117  13.851  70.135  1.00  0.00    -0.357 SA 
HETATM   14  C   UNL     1     -11.809  12.174  70.080  1.00  0.00    -0.306 A  
BRANCH  12  15
HETATM   15  C   UNL     1     -12.519  10.053  71.347  1.00  0.00    -0.411 C  
BRANCH  15  16
HETATM   16  S   UNL     1     -10.816   9.390  71.389  1.00  0.00    -0.315 SA 
BRANCH  16  17
HETATM   17  C   UNL     1     -10.644   8.796  69.670  1.00  0.00    -0.219 C  
BRANCH  17  18
HETATM   18  C   UNL     1      -9.244   8.923  69.081  1.00  0.00    -0.144 C  
BRANCH  18  19
HETATM   19  C   UNL     1      -9.097  10.126  68.149  1.00  0.00    -0.128 C  
HETATM   20  H2  UNL     1      -8.700  11.415  69.758  1.00  0.00     0.000 HD 
HETATM   21  N   UNL     1      -8.809  11.329  68.748  1.00  0.00    -0.296 NA 
HETATM   22  H1  UNL     1      -8.712  12.132  68.126  1.00  0.00     0.000 HD 
BRANCH  19  23
HETATM   23  N   UNL     1      -9.250   9.881  66.890  1.00  0.00    -0.145 N  
HETATM   24  H   UNL     1      -8.813   9.054  66.482  1.00  0.00     0.000 HD 
BRANCH  23  25
HETATM   25  S   UNL     1     -10.120  10.863  65.955  1.00  0.00    -0.262 S  
HETATM   26  O   UNL     1     -11.257  11.354  66.697  1.00  0.00    -0.303 OA 
HETATM   27  O   UNL     1     -10.275  10.257  64.654  1.00  0.00    -0.322 OA 
HETATM   28  N   UNL     1      -9.139  12.198  65.715  1.00  0.00    -0.436 N  
HETATM   29  H1  UNL     1      -9.690  12.819  65.124  1.00  0.00     0.000 HD 
HETATM   30  H2  UNL     1      -8.199  12.355  66.080  1.00  0.00     0.000 HD 
ENDBRANCH  23  25
ENDBRANCH  19  23
ENDBRANCH  18  19
ENDBRANCH  17  18
ENDBRANCH  16  17
ENDBRANCH  15  16
ENDBRANCH  12  15
ENDBRANCH   5  10
TORSDOF 8
ENDMDL
MODEL      133
REMARK 921   NORMALIZED FREE ENERGY PREDICTED BY IDOCK:   -4.62 KCAL/MOL
REMARK 922        TOTAL FREE ENERGY PREDICTED BY IDOCK:   -7.96 KCAL/MOL
REMARK 923 INTER-LIGAND FREE ENERGY PREDICTED BY IDOCK:   -6.53 KCAL/MOL
REMARK 924 INTRA-LIGAND FREE ENERGY PREDICTED BY IDOCK:   -1.42 KCAL/MOL
REMARK 927      BINDING AFFINITY PREDICTED BY RF-SCORE:    0.00 PKD
ROOT
HETATM    1  N   UNL     1     -12.400  14.523  68.131  1.00  0.00    -0.588 NA 
HETATM    2  C   UNL     1     -11.738  13.823  67.178  1.00  0.00    -0.385 C  
HETATM    3  H2  UNL     1     -11.967  15.146  68.813  1.00  0.00     0.000 HD 
HETATM    4  H1  UNL     1     -13.398  14.330  68.059  1.00  0.00     0.000 HD 
HETATM    5  N   UNL     1     -12.381  13.074  66.351  1.00  0.00    -0.430 NA 
HETATM    6  N   UNL     1     -10.409  14.079  67.273  1.00  0.00    -0.262 NA 
HETATM    7  H2  UNL     1      -9.976  14.702  67.955  1.00  0.00     0.000 HD 
HETATM    8  H1  UNL     1      -9.911  13.553  66.556  1.00  0.00     0.000 HD 
HETATM    9  H   UNL     1     -13.398  13.004  66.393  1.00  0.00     0.000 HD 
ENDROOT
BRANCH   5  10
HETATM   10  C   UNL     1     -11.676  12.379  65.421  1.00  0.00    -0.402 A  
HETATM   11  N   UNL     1     -10.764  11.437  65.608  1.00  0.00    -0.261 NA 
HETATM   12  C   UNL     1     -10.286  10.957  64.392  1.00  0.00    -0.361 A  
HETATM   13  S   UNL     1     -12.000  12.719  63.754  1.00  0.00    -0.547 SA 
HETATM   14  C   UNL     1     -10.835  11.565  63.281  1.00  0.00    -0.264 A  
BRANCH  12  15
HETATM   15  C   UNL     1      -9.254   9.873  64.396  1.00  0.00    -0.264 C  
BRANCH  15  16
HETATM   16  S   UNL     1      -7.876  10.302  65.517  1.00  0.00    -0.153 SA 
BRANCH  16  17
HETATM   17  C   UNL     1      -8.250   9.217  66.939  1.00  0.00    -0.119 C  
BRANCH  17  18
HETATM   18  C   UNL     1      -9.297   8.143  66.673  1.00  0.00    -0.250 C  
BRANCH  18  19
HETATM   19  C   UNL     1     -10.502   8.240  67.609  1.00  0.00    -0.235 C  
HETATM   20  H2  UNL     1     -10.568  10.331  67.422  1.00  0.00     0.000 HD 
HETATM   21  N   UNL     1     -10.988   9.504  67.847  1.00  0.00    -0.503 NA 
HETATM   22  H1  UNL     1     -11.792   9.569  68.472  1.00  0.00     0.000 HD 
BRANCH  19  23
HETATM   23  N   UNL     1     -10.944   7.118  68.072  1.00  0.00    -0.475 N  
HETATM   24  H   UNL     1     -11.351   6.436  67.432  1.00  0.00     0.000 HD 
BRANCH  23  25
HETATM   25  S   UNL     1     -10.860   6.781  69.645  1.00  0.00    -0.289 S  
HETATM   26  O   UNL     1     -12.185   6.815  70.217  1.00  0.00    -0.281 OA 
HETATM   27  O   UNL     1      -9.769   7.526  70.228  1.00  0.00    -0.179 OA 
HETATM   28  N   UNL     1     -10.391   5.175  69.709  1.00  0.00    -0.285 N  
HETATM   29  H1  UNL     1     -10.338   4.962  70.705  1.00  0.00     0.000 HD 
HETATM   30  H2  UNL     1     -10.201   4.548  68.927  1.00  0.00     0.000 HD 
ENDBRANCH  23  25
ENDBRANCH  19  23
ENDBRANCH  18  19
ENDBRANCH  17  18
ENDBRANCH  16  17
ENDBRANCH  15  16
ENDBRANCH  12  15
ENDBRANCH   5  10
TORSDOF 8
ENDMDL
MODEL      134
REMARK 921   NORMALIZED FREE ENERGY PREDICTED BY IDOCK:   -4.61 KCAL/MOL
REMARK 922        TOTAL FREE ENERGY PREDICTED BY IDOCK:   -7.95 KCAL/MOL
REMARK 923 INTER-LIGAND FREE ENERGY PREDICTED BY IDOCK:   -6.25 KCAL/MOL
REMARK 924 INTRA-LIGAND FREE ENERGY PREDICTED BY IDOCK:   -1.70 KCAL/MOL
REMARK 927      BINDING AFFINITY PREDICTED BY RF-SCORE:    0.00 PKD
ROOT
HETATM    1  N   UNL     1     -13.237  15.590  70.787  1.00  0.00    -0.706 NA 
HETATM    2  C   UNL     1     -12.498  14.728  70.047  1.00  0.00    -0.281 C  
HETATM    3  H2  UNL     1     -13.351  15.550  71.799  1.00  0.00     0.000 HD 
HETATM    4  H1  UNL     1     -13.661  16.284  70.172  1.00  0.00     0.000 HD 
HETATM    5  N   UNL     1     -12.404  14.875  68.770  1.00  0.00    -0.594 NA 
HETATM    6  N   UNL     1     -11.934  13.803  70.864  1.00  0.00    -0.502 NA 
HETATM    7  H2  UNL     1     -12.047  13.764  71.877  1.00  0.00     0.000 HD 
HETATM    8  H1  UNL     1     -11.377  13.155  70.308  1.00  0.00     0.000 HD 
HETATM    9  H   UNL     1     -12.874  15.646  68.298  1.00  0.00     0.000 HD 
ENDROOT
BRANCH   5  10
HETATM   10  C   UNL     1     -11.664  13.979  68.067  1.00  0.00    -0.359 A  
HETATM   11  N   UNL     1     -10.645  13.241  68.481  1.00  0.00    -0.253 NA 
HETATM   12  C   UNL     1     -10.166  12.432  67.454  1.00  0.00    -0.208 A  
HETATM   13  S   UNL     1     -12.090  13.719  66.408  1.00  0.00    -0.440 SA 
HETATM   14  C   UNL     1     -10.823  12.586  66.250  1.00  0.00    -0.268 A  
BRANCH  12  15
HETATM   15  C   UNL     1      -9.020  11.510  67.732  1.00  0.00    -0.160 C  
BRANCH  15  16
HETATM   16  S   UNL     1      -7.451  12.239  67.142  1.00  0.00    -0.068 SA 
BRANCH  16  17
HETATM   17  C   UNL     1      -7.170  13.513  68.422  1.00  0.00    -0.109 C  
BRANCH  17  18
HETATM   18  C   UNL     1      -7.346  14.951  67.949  1.00  0.00    -0.159 C  
BRANCH  18  19
HETATM   19  C   UNL     1      -8.262  15.768  68.860  1.00  0.00    -0.210 C  
HETATM   20  H2  UNL     1      -8.642  14.108  70.088  1.00  0.00     0.000 HD 
HETATM   21  N   UNL     1      -8.825  15.097  69.919  1.00  0.00    -0.399 NA 
HETATM   22  H1  UNL     1      -9.437  15.643  70.527  1.00  0.00     0.000 HD 
BRANCH  19  23
HETATM   23  N   UNL     1      -8.403  17.013  68.542  1.00  0.00    -0.251 N  
HETATM   24  H   UNL     1      -7.577  17.578  68.344  1.00  0.00     0.000 HD 
BRANCH  23  25
HETATM   25  S   UNL     1      -9.865  17.684  68.452  1.00  0.00    -0.353 S  
HETATM   26  O   UNL     1     -10.651  17.283  69.594  1.00  0.00    -0.208 OA 
HETATM   27  O   UNL     1     -10.365  17.542  67.105  1.00  0.00    -0.320 OA 
HETATM   28  N   UNL     1      -9.590  19.323  68.658  1.00  0.00    -0.396 N  
HETATM   29  H1  UNL     1     -10.515  19.748  68.601  1.00  0.00     0.000 HD 
HETATM   30  H2  UNL     1      -8.697  19.793  68.807  1.00  0.00     0.000 HD 
ENDBRANCH  23  25
ENDBRANCH  19  23
ENDBRANCH  18  19
ENDBRANCH  17  18
ENDBRANCH  16  17
ENDBRANCH  15  16
ENDBRANCH  12  15
ENDBRANCH   5  10
TORSDOF 8
ENDMDL
MODEL      135
REMARK 921   NORMALIZED FREE ENERGY PREDICTED BY IDOCK:   -4.58 KCAL/MOL
REMARK 922        TOTAL FREE ENERGY PREDICTED BY IDOCK:   -7.90 KCAL/MOL
REMARK 923 INTER-LIGAND FREE ENERGY PREDICTED BY IDOCK:   -7.21 KCAL/MOL
REMARK 924 INTRA-LIGAND FREE ENERGY PREDICTED BY IDOCK:   -0.69 KCAL/MOL
REMARK 927      BINDING AFFINITY PREDICTED BY RF-SCORE:    0.00 PKD
ROOT
HETATM    1  N   UNL     1      -8.733   8.044  74.454  1.00  0.00    -0.414 NA 
HETATM    2  C   UNL     1      -9.199   8.090  73.183  1.00  0.00    -0.279 C  
HETATM    3  H2  UNL     1      -9.251   7.697  75.261  1.00  0.00     0.000 HD 
HETATM    4  H1  UNL     1      -7.782   8.412  74.478  1.00  0.00     0.000 HD 
HETATM    5  N   UNL     1      -8.456   8.532  72.228  1.00  0.00    -0.314 NA 
HETATM    6  N   UNL     1     -10.464   7.601  73.150  1.00  0.00    -0.359 NA 
HETATM    7  H2  UNL     1     -10.983   7.253  73.957  1.00  0.00     0.000 HD 
HETATM    8  H1  UNL     1     -10.815   7.634  72.193  1.00  0.00     0.000 HD 
HETATM    9  H   UNL     1      -7.503   8.845  72.412  1.00  0.00     0.000 HD 
ENDROOT
BRANCH   5  10
HETATM   10  C   UNL     1      -8.968   8.573  70.971  1.00  0.00    -0.179 A  
HETATM   11  N   UNL     1      -9.603   9.567  70.369  1.00  0.00    -0.261 NA 
HETATM   12  C   UNL     1      -9.956   9.218  69.068  1.00  0.00    -0.182 A  
HETATM   13  S   UNL     1      -8.767   7.167  69.980  1.00  0.00    -0.142 SA 
HETATM   14  C   UNL     1      -9.599   7.935  68.703  1.00  0.00    -0.155 A  
BRANCH  12  15
HETATM   15  C   UNL     1     -10.672  10.219  68.217  1.00  0.00    -0.237 C  
BRANCH  15  16
HETATM   16  S   UNL     1     -10.271   9.968  66.452  1.00  0.00    -0.194 SA 
BRANCH  16  17
HETATM   17  C   UNL     1     -10.276  11.695  65.856  1.00  0.00    -0.238 C  
BRANCH  17  18
HETATM   18  C   UNL     1     -11.017  11.922  64.544  1.00  0.00    -0.376 C  
BRANCH  18  19
HETATM   19  C   UNL     1     -11.077  13.396  64.142  1.00  0.00    -0.327 C  
HETATM   20  H2  UNL     1     -12.765  13.072  62.935  1.00  0.00     0.000 HD 
HETATM   21  N   UNL     1     -12.090  13.753  63.284  1.00  0.00    -1.000 NA 
HETATM   22  H1  UNL     1     -12.130  14.736  63.015  1.00  0.00     0.000 HD 
BRANCH  19  23
HETATM   23  N   UNL     1     -10.171  14.156  64.662  1.00  0.00    -0.641 N  
HETATM   24  H   UNL     1      -9.187  13.900  64.569  1.00  0.00     0.000 HD 
BRANCH  23  25
HETATM   25  S   UNL     1     -10.571  15.500  65.453  1.00  0.00    -0.429 S  
HETATM   26  O   UNL     1     -11.355  15.160  66.617  1.00  0.00    -0.320 OA 
HETATM   27  O   UNL     1     -11.024  16.488  64.503  1.00  0.00    -0.827 OA 
HETATM   28  N   UNL     1      -9.121  16.086  66.054  1.00  0.00    -0.342 N  
HETATM   29  H1  UNL     1      -9.375  16.937  66.554  1.00  0.00     0.000 HD 
HETATM   30  H2  UNL     1      -8.191  15.681  65.943  1.00  0.00     0.000 HD 
ENDBRANCH  23  25
ENDBRANCH  19  23
ENDBRANCH  18  19
ENDBRANCH  17  18
ENDBRANCH  16  17
ENDBRANCH  15  16
ENDBRANCH  12  15
ENDBRANCH   5  10
TORSDOF 8
ENDMDL
MODEL      136
REMARK 921   NORMALIZED FREE ENERGY PREDICTED BY IDOCK:   -4.57 KCAL/MOL
REMARK 922        TOTAL FREE ENERGY PREDICTED BY IDOCK:   -7.89 KCAL/MOL
REMARK 923 INTER-LIGAND FREE ENERGY PREDICTED BY IDOCK:   -6.93 KCAL/MOL
REMARK 924 INTRA-LIGAND FREE ENERGY PREDICTED BY IDOCK:   -0.96 KCAL/MOL
REMARK 927      BINDING AFFINITY PREDICTED BY RF-SCORE:    0.00 PKD
ROOT
HETATM    1  N   UNL     1     -10.427   4.678  65.663  1.00  0.00    -0.460 NA 
HETATM    2  C   UNL     1     -10.576   5.406  66.796  1.00  0.00    -0.271 C  
HETATM    3  H2  UNL     1     -10.711   4.975  64.729  1.00  0.00     0.000 HD 
HETATM    4  H1  UNL     1      -9.985   3.788  65.890  1.00  0.00     0.000 HD 
HETATM    5  N   UNL     1     -10.166   4.948  67.928  1.00  0.00    -0.088 NA 
HETATM    6  N   UNL     1     -11.165   6.591  66.495  1.00  0.00    -0.607 NA 
HETATM    7  H2  UNL     1     -11.449   6.888  65.561  1.00  0.00     0.000 HD 
HETATM    8  H1  UNL     1     -11.277   7.139  67.347  1.00  0.00     0.000 HD 
HETATM    9  H   UNL     1      -9.714   4.036  67.988  1.00  0.00     0.000 HD 
ENDROOT
BRANCH   5  10
HETATM   10  C   UNL     1     -10.349   5.705  69.040  1.00  0.00    -0.243 A  
HETATM   11  N   UNL     1     -11.464   6.264  69.486  1.00  0.00    -0.411 NA 
HETATM   12  C   UNL     1     -11.237   6.948  70.677  1.00  0.00    -0.301 A  
HETATM   13  S   UNL     1      -8.973   5.981  70.054  1.00  0.00    -0.147 SA 
HETATM   14  C   UNL     1      -9.928   6.917  71.114  1.00  0.00    -0.177 A  
BRANCH  12  15
HETATM   15  C   UNL     1     -12.384   7.639  71.346  1.00  0.00    -0.333 C  
BRANCH  15  16
HETATM   16  S   UNL     1     -11.815   9.153  72.196  1.00  0.00    -0.165 SA 
BRANCH  16  17
HETATM   17  C   UNL     1     -13.222  10.272  71.867  1.00  0.00    -0.445 C  
BRANCH  17  18
HETATM   18  C   UNL     1     -12.875  11.531  71.081  1.00  0.00    -0.414 C  
BRANCH  18  19
HETATM   19  C   UNL     1     -13.098  12.813  71.883  1.00  0.00    -0.371 C  
HETATM   20  H2  UNL     1     -14.797  12.015  72.823  1.00  0.00     0.000 HD 
HETATM   21  N   UNL     1     -14.178  12.821  72.733  1.00  0.00    -0.456 NA 
HETATM   22  H1  UNL     1     -14.327  13.676  73.268  1.00  0.00     0.000 HD 
BRANCH  19  23
HETATM   23  N   UNL     1     -12.236  13.755  71.684  1.00  0.00    -0.241 N  
HETATM   24  H   UNL     1     -11.259  13.515  71.519  1.00  0.00     0.000 HD 
BRANCH  23  25
HETATM   25  S   UNL     1     -12.685  15.302  71.691  1.00  0.00    -0.423 S  
HETATM   26  O   UNL     1     -14.010  15.423  71.132  1.00  0.00    -0.480 OA 
HETATM   27  O   UNL     1     -11.589  16.112  71.214  1.00  0.00    -0.426 OA 
HETATM   28  N   UNL     1     -12.853  15.686  73.313  1.00  0.00    -0.472 N  
HETATM   29  H1  UNL     1     -13.137  16.665  73.318  1.00  0.00     0.000 HD 
HETATM   30  H2  UNL     1     -12.704  15.075  74.117  1.00  0.00     0.000 HD 
ENDBRANCH  23  25
ENDBRANCH  19  23
ENDBRANCH  18  19
ENDBRANCH  17  18
ENDBRANCH  16  17
ENDBRANCH  15  16
ENDBRANCH  12  15
ENDBRANCH   5  10
TORSDOF 8
ENDMDL
MODEL      137
REMARK 921   NORMALIZED FREE ENERGY PREDICTED BY IDOCK:   -4.55 KCAL/MOL
REMARK 922        TOTAL FREE ENERGY PREDICTED BY IDOCK:   -7.85 KCAL/MOL
REMARK 923 INTER-LIGAND FREE ENERGY PREDICTED BY IDOCK:   -6.91 KCAL/MOL
REMARK 924 INTRA-LIGAND FREE ENERGY PREDICTED BY IDOCK:   -0.94 KCAL/MOL
REMARK 927      BINDING AFFINITY PREDICTED BY RF-SCORE:    0.00 PKD
ROOT
HETATM    1  N   UNL     1     -14.390   9.144  72.921  1.00  0.00    -1.054 NA 
HETATM    2  C   UNL     1     -13.178   9.068  72.321  1.00  0.00    -0.460 C  
HETATM    3  H2  UNL     1     -15.042   9.923  72.837  1.00  0.00     0.000 HD 
HETATM    4  H1  UNL     1     -14.548   8.299  73.470  1.00  0.00     0.000 HD 
HETATM    5  N   UNL     1     -12.433   8.028  72.477  1.00  0.00    -0.574 NA 
HETATM    6  N   UNL     1     -12.967  10.192  71.591  1.00  0.00    -0.420 NA 
HETATM    7  H2  UNL     1     -13.619  10.971  71.507  1.00  0.00     0.000 HD 
HETATM    8  H1  UNL     1     -12.054  10.135  71.139  1.00  0.00     0.000 HD 
HETATM    9  H   UNL     1     -12.749   7.242  73.046  1.00  0.00     0.000 HD 
ENDROOT
BRANCH   5  10
HETATM   10  C   UNL     1     -11.220   8.000  71.868  1.00  0.00    -0.280 A  
HETATM   11  N   UNL     1     -10.944   8.010  70.573  1.00  0.00    -0.246 NA 
HETATM   12  C   UNL     1      -9.569   7.991  70.356  1.00  0.00    -0.174 A  
HETATM   13  S   UNL     1      -9.817   7.973  72.883  1.00  0.00    -0.277 SA 
HETATM   14  C   UNL     1      -8.809   7.944  71.507  1.00  0.00    -0.132 A  
BRANCH  12  15
HETATM   15  C   UNL     1      -9.057   8.013  68.950  1.00  0.00    -0.144 C  
BRANCH  15  16
HETATM   16  S   UNL     1     -10.434   8.217  67.766  1.00  0.00    -0.182 SA 
BRANCH  16  17
HETATM   17  C   UNL     1     -10.126   9.921  67.182  1.00  0.00    -0.215 C  
BRANCH  17  18
HETATM   18  C   UNL     1     -11.247  10.913  67.467  1.00  0.00    -0.364 C  
BRANCH  18  19
HETATM   19  C   UNL     1     -10.734  12.269  67.951  1.00  0.00    -0.215 C  
HETATM   20  H2  UNL     1     -11.404  11.904  69.908  1.00  0.00     0.000 HD 
HETATM   21  N   UNL     1     -10.937  12.558  69.279  1.00  0.00    -0.441 NA 
HETATM   22  H1  UNL     1     -10.594  13.463  69.603  1.00  0.00     0.000 HD 
BRANCH  19  23
HETATM   23  N   UNL     1     -10.152  12.999  67.058  1.00  0.00    -0.240 N  
HETATM   24  H   UNL     1      -9.215  12.751  66.739  1.00  0.00     0.000 HD 
BRANCH  23  25
HETATM   25  S   UNL     1     -10.885  14.294  66.441  1.00  0.00    -0.312 S  
HETATM   26  O   UNL     1     -10.849  14.227  64.999  1.00  0.00    -0.355 OA 
HETATM   27  O   UNL     1     -10.441  15.469  67.152  1.00  0.00    -0.275 OA 
HETATM   28  N   UNL     1     -12.498  14.103  66.852  1.00  0.00    -0.549 N  
HETATM   29  H1  UNL     1     -12.961  14.922  66.462  1.00  0.00     0.000 HD 
HETATM   30  H2  UNL     1     -12.921  13.337  67.377  1.00  0.00     0.000 HD 
ENDBRANCH  23  25
ENDBRANCH  19  23
ENDBRANCH  18  19
ENDBRANCH  17  18
ENDBRANCH  16  17
ENDBRANCH  15  16
ENDBRANCH  12  15
ENDBRANCH   5  10
TORSDOF 8
ENDMDL
MODEL      138
REMARK 921   NORMALIZED FREE ENERGY PREDICTED BY IDOCK:   -4.55 KCAL/MOL
REMARK 922        TOTAL FREE ENERGY PREDICTED BY IDOCK:   -7.85 KCAL/MOL
REMARK 923 INTER-LIGAND FREE ENERGY PREDICTED BY IDOCK:   -6.90 KCAL/MOL
REMARK 924 INTRA-LIGAND FREE ENERGY PREDICTED BY IDOCK:   -0.95 KCAL/MOL
REMARK 927      BINDING AFFINITY PREDICTED BY RF-SCORE:    0.00 PKD
ROOT
HETATM    1  N   UNL     1      -9.881  10.415  62.335  1.00  0.00    -0.743 NA 
HETATM    2  C   UNL     1     -10.030  11.352  63.303  1.00  0.00    -0.401 C  
HETATM    3  H2  UNL     1      -9.125   9.733  62.285  1.00  0.00     0.000 HD 
HETATM    4  H1  UNL     1     -10.644  10.500  61.664  1.00  0.00     0.000 HD 
HETATM    5  N   UNL     1     -11.033  12.159  63.285  1.00  0.00    -0.673 NA 
HETATM    6  N   UNL     1      -9.014  11.240  64.196  1.00  0.00    -0.396 NA 
HETATM    7  H2  UNL     1      -8.258  10.557  64.146  1.00  0.00     0.000 HD 
HETATM    8  H1  UNL     1      -9.126  11.944  64.925  1.00  0.00     0.000 HD 
HETATM    9  H   UNL     1     -11.737  12.100  62.548  1.00  0.00     0.000 HD 
ENDROOT
BRANCH   5  10
HETATM   10  C   UNL     1     -11.135  13.091  64.267  1.00  0.00    -0.385 A  
HETATM   11  N   UNL     1     -10.320  14.099  64.538  1.00  0.00    -0.285 NA 
HETATM   12  C   UNL     1     -10.787  14.841  65.620  1.00  0.00    -0.339 A  
HETATM   13  S   UNL     1     -12.513  13.003  65.313  1.00  0.00    -0.453 SA 
HETATM   14  C   UNL     1     -11.957  14.365  66.177  1.00  0.00    -0.369 A  
BRANCH  12  15
HETATM   15  C   UNL     1     -10.006  16.035  66.072  1.00  0.00    -0.339 C  
BRANCH  15  16
HETATM   16  S   UNL     1     -10.578  16.593  67.715  1.00  0.00    -0.331 SA 
BRANCH  16  17
HETATM   17  C   UNL     1      -8.991  16.661  68.619  1.00  0.00    -0.246 C  
BRANCH  17  18
HETATM   18  C   UNL     1      -8.632  15.394  69.386  1.00  0.00    -0.249 C  
BRANCH  18  19
HETATM   19  C   UNL     1      -7.925  14.353  68.518  1.00  0.00    -0.144 C  
HETATM   20  H2  UNL     1      -7.006  15.842  67.356  1.00  0.00     0.000 HD 
HETATM   21  N   UNL     1      -7.123  14.840  67.514  1.00  0.00    -0.185 NA 
HETATM   22  H1  UNL     1      -6.651  14.146  66.934  1.00  0.00     0.000 HD 
BRANCH  19  23
HETATM   23  N   UNL     1      -8.149  13.120  68.829  1.00  0.00    -0.342 N  
HETATM   24  H   UNL     1      -7.471  12.614  69.399  1.00  0.00     0.000 HD 
BRANCH  23  25
HETATM   25  S   UNL     1      -9.484  12.369  68.328  1.00  0.00    -0.176 S  
HETATM   26  O   UNL     1      -9.269  11.836  67.004  1.00  0.00    -0.178 OA 
HETATM   27  O   UNL     1     -10.629  13.195  68.632  1.00  0.00    -0.249 OA 
HETATM   28  N   UNL     1      -9.617  11.032  69.327  1.00  0.00    -0.421 N  
HETATM   29  H1  UNL     1     -10.462  10.557  69.010  1.00  0.00     0.000 HD 
HETATM   30  H2  UNL     1      -8.992  10.753  70.084  1.00  0.00     0.000 HD 
ENDBRANCH  23  25
ENDBRANCH  19  23
ENDBRANCH  18  19
ENDBRANCH  17  18
ENDBRANCH  16  17
ENDBRANCH  15  16
ENDBRANCH  12  15
ENDBRANCH   5  10
TORSDOF 8
ENDMDL
MODEL      139
REMARK 921   NORMALIZED FREE ENERGY PREDICTED BY IDOCK:   -4.54 KCAL/MOL
REMARK 922        TOTAL FREE ENERGY PREDICTED BY IDOCK:   -7.84 KCAL/MOL
REMARK 923 INTER-LIGAND FREE ENERGY PREDICTED BY IDOCK:   -6.86 KCAL/MOL
REMARK 924 INTRA-LIGAND FREE ENERGY PREDICTED BY IDOCK:   -0.98 KCAL/MOL
REMARK 927      BINDING AFFINITY PREDICTED BY RF-SCORE:    0.00 PKD
ROOT
HETATM    1  N   UNL     1      -6.517  20.992  64.981  1.00  0.00    -0.489 NA 
HETATM    2  C   UNL     1      -7.280  19.955  65.406  1.00  0.00    -0.216 C  
HETATM    3  H2  UNL     1      -5.624  20.907  64.496  1.00  0.00     0.000 HD 
HETATM    4  H1  UNL     1      -6.977  21.869  65.221  1.00  0.00     0.000 HD 
HETATM    5  N   UNL     1      -8.405  20.168  65.996  1.00  0.00    -0.547 NA 
HETATM    6  N   UNL     1      -6.668  18.787  65.086  1.00  0.00    -0.518 NA 
HETATM    7  H2  UNL     1      -5.775  18.702  64.601  1.00  0.00     0.000 HD 
HETATM    8  H1  UNL     1      -7.242  18.006  65.406  1.00  0.00     0.000 HD 
HETATM    9  H   UNL     1      -8.745  21.119  66.142  1.00  0.00     0.000 HD 
ENDROOT
BRANCH   5  10
HETATM   10  C   UNL     1      -9.130  19.101  66.418  1.00  0.00    -0.343 A  
HETATM   11  N   UNL     1      -9.511  18.036  65.729  1.00  0.00    -0.432 NA 
HETATM   12  C   UNL     1     -10.228  17.153  66.532  1.00  0.00    -0.322 A  
HETATM   13  S   UNL     1      -9.621  19.074  68.079  1.00  0.00    -0.347 SA 
HETATM   14  C   UNL     1     -10.402  17.577  67.834  1.00  0.00    -0.371 A  
BRANCH  12  15
HETATM   15  C   UNL     1     -10.735  15.877  65.935  1.00  0.00    -0.296 C  
BRANCH  15  16
HETATM   16  S   UNL     1     -11.272  14.722  67.245  1.00  0.00    -0.355 SA 
BRANCH  16  17
HETATM   17  C   UNL     1     -12.380  13.625  66.293  1.00  0.00    -0.412 C  
BRANCH  17  18
HETATM   18  C   UNL     1     -11.700  12.823  65.190  1.00  0.00    -0.396 C  
BRANCH  18  19
HETATM   19  C   UNL     1     -10.628  11.871  65.720  1.00  0.00    -0.267 C  
HETATM   20  H2  UNL     1     -11.877  11.218  67.277  1.00  0.00     0.000 HD 
HETATM   21  N   UNL     1     -10.963  11.134  66.831  1.00  0.00    -0.285 NA 
HETATM   22  H1  UNL     1     -10.248  10.499  67.186  1.00  0.00     0.000 HD 
BRANCH  19  23
HETATM   23  N   UNL     1      -9.518  11.852  65.059  1.00  0.00    -0.431 N  
HETATM   24  H   UNL     1      -9.265  12.653  64.480  1.00  0.00     0.000 HD 
BRANCH  23  25
HETATM   25  S   UNL     1      -8.530  10.582  65.135  1.00  0.00    -0.143 S  
HETATM   26  O   UNL     1      -9.272   9.376  64.853  1.00  0.00    -0.231 OA 
HETATM   27  O   UNL     1      -7.704  10.700  66.313  1.00  0.00    -0.132 OA 
HETATM   28  N   UNL     1      -7.491  10.776  63.836  1.00  0.00    -0.328 N  
HETATM   29  H1  UNL     1      -6.866   9.972  63.885  1.00  0.00     0.000 HD 
HETATM   30  H2  UNL     1      -7.485  11.530  63.149  1.00  0.00     0.000 HD 
ENDBRANCH  23  25
ENDBRANCH  19  23
ENDBRANCH  18  19
ENDBRANCH  17  18
ENDBRANCH  16  17
ENDBRANCH  15  16
ENDBRANCH  12  15
ENDBRANCH   5  10
TORSDOF 8
ENDMDL
MODEL      140
REMARK 921   NORMALIZED FREE ENERGY PREDICTED BY IDOCK:   -4.54 KCAL/MOL
REMARK 922        TOTAL FREE ENERGY PREDICTED BY IDOCK:   -7.84 KCAL/MOL
REMARK 923 INTER-LIGAND FREE ENERGY PREDICTED BY IDOCK:   -6.77 KCAL/MOL
REMARK 924 INTRA-LIGAND FREE ENERGY PREDICTED BY IDOCK:   -1.07 KCAL/MOL
REMARK 927      BINDING AFFINITY PREDICTED BY RF-SCORE:    0.00 PKD
ROOT
HETATM    1  N   UNL     1     -12.754   9.902  71.469  1.00  0.00    -0.380 NA 
HETATM    2  C   UNL     1     -12.072  10.332  70.379  1.00  0.00    -0.286 C  
HETATM    3  H2  UNL     1     -13.490  10.421  71.946  1.00  0.00     0.000 HD 
HETATM    4  H1  UNL     1     -12.415   8.978  71.736  1.00  0.00     0.000 HD 
HETATM    5  N   UNL     1     -11.168   9.590  69.838  1.00  0.00    -0.353 NA 
HETATM    6  N   UNL     1     -12.522  11.561  70.023  1.00  0.00    -0.172 NA 
HETATM    7  H2  UNL     1     -13.258  12.080  70.501  1.00  0.00     0.000 HD 
HETATM    8  H1  UNL     1     -12.009  11.885  69.203  1.00  0.00     0.000 HD 
HETATM    9  H   UNL     1     -10.959   8.665  70.213  1.00  0.00     0.000 HD 
ENDROOT
BRANCH   5  10
HETATM   10  C   UNL     1     -10.500  10.066  68.756  1.00  0.00    -0.208 A  
HETATM   11  N   UNL     1      -9.724  11.136  68.668  1.00  0.00    -0.196 NA 
HETATM   12  C   UNL     1      -9.206  11.273  67.383  1.00  0.00    -0.162 A  
HETATM   13  S   UNL     1     -10.631   9.173  67.278  1.00  0.00    -0.167 SA 
HETATM   14  C   UNL     1      -9.621  10.302  66.493  1.00  0.00    -0.181 A  
BRANCH  12  15
HETATM   15  C   UNL     1      -8.291  12.420  67.088  1.00  0.00    -0.181 C  
BRANCH  15  16
HETATM   16  S   UNL     1      -8.557  13.778  68.281  1.00  0.00    -0.167 SA 
BRANCH  16  17
HETATM   17  C   UNL     1     -10.280  14.241  67.886  1.00  0.00    -0.237 C  
BRANCH  17  18
HETATM   18  C   UNL     1     -10.432  15.518  67.067  1.00  0.00    -0.304 C  
BRANCH  18  19
HETATM   19  C   UNL     1     -10.626  15.247  65.575  1.00  0.00    -0.373 C  
HETATM   20  H2  UNL     1     -10.358  17.275  65.100  1.00  0.00     0.000 HD 
HETATM   21  N   UNL     1     -10.541  16.337  64.742  1.00  0.00    -0.732 NA 
HETATM   22  H1  UNL     1     -10.671  16.157  63.746  1.00  0.00     0.000 HD 
BRANCH  19  23
HETATM   23  N   UNL     1     -10.841  14.015  65.252  1.00  0.00    -0.327 N  
HETATM   24  H   UNL     1     -10.068  13.350  65.263  1.00  0.00     0.000 HD 
BRANCH  23  25
HETATM   25  S   UNL     1     -12.314  13.514  64.834  1.00  0.00    -0.399 S  
HETATM   26  O   UNL     1     -13.278  14.545  65.135  1.00  0.00    -0.499 OA 
HETATM   27  O   UNL     1     -12.495  12.156  65.290  1.00  0.00    -0.520 OA 
HETATM   28  N   UNL     1     -12.271  13.423  63.162  1.00  0.00    -0.929 N  
HETATM   29  H1  UNL     1     -13.203  13.106  62.897  1.00  0.00     0.000 HD 
HETATM   30  H2  UNL     1     -11.486  13.638  62.546  1.00  0.00     0.000 HD 
ENDBRANCH  23  25
ENDBRANCH  19  23
ENDBRANCH  18  19
ENDBRANCH  17  18
ENDBRANCH  16  17
ENDBRANCH  15  16
ENDBRANCH  12  15
ENDBRANCH   5  10
TORSDOF 8
ENDMDL
MODEL      141
REMARK 921   NORMALIZED FREE ENERGY PREDICTED BY IDOCK:   -4.54 KCAL/MOL
REMARK 922        TOTAL FREE ENERGY PREDICTED BY IDOCK:   -7.84 KCAL/MOL
REMARK 923 INTER-LIGAND FREE ENERGY PREDICTED BY IDOCK:   -6.58 KCAL/MOL
REMARK 924 INTRA-LIGAND FREE ENERGY PREDICTED BY IDOCK:   -1.25 KCAL/MOL
REMARK 927      BINDING AFFINITY PREDICTED BY RF-SCORE:    0.00 PKD
ROOT
HETATM    1  N   UNL     1      -9.685   9.878  67.652  1.00  0.00    -0.152 NA 
HETATM    2  C   UNL     1     -10.309  10.649  68.575  1.00  0.00    -0.183 C  
HETATM    3  H2  UNL     1      -8.777  10.078  67.233  1.00  0.00     0.000 HD 
HETATM    4  H1  UNL     1     -10.266   9.066  67.442  1.00  0.00     0.000 HD 
HETATM    5  N   UNL     1     -11.451  10.298  69.057  1.00  0.00    -0.449 NA 
HETATM    6  N   UNL     1      -9.537  11.729  68.855  1.00  0.00    -0.412 NA 
HETATM    7  H2  UNL     1      -8.629  11.929  68.437  1.00  0.00     0.000 HD 
HETATM    8  H1  UNL     1     -10.007  12.309  69.551  1.00  0.00     0.000 HD 
HETATM    9  H   UNL     1     -11.899   9.431  68.760  1.00  0.00     0.000 HD 
ENDROOT
BRANCH   5  10
HETATM   10  C   UNL     1     -12.048  11.107  69.970  1.00  0.00    -0.359 A  
HETATM   11  N   UNL     1     -12.241  12.416  69.913  1.00  0.00    -0.210 NA 
HETATM   12  C   UNL     1     -12.909  12.872  71.047  1.00  0.00    -0.184 A  
HETATM   13  S   UNL     1     -12.676  10.368  71.405  1.00  0.00    -0.481 SA 
HETATM   14  C   UNL     1     -13.198  11.890  71.973  1.00  0.00    -0.356 A  
BRANCH  12  15
HETATM   15  C   UNL     1     -13.232  14.328  71.162  1.00  0.00    -0.321 C  
BRANCH  15  16
HETATM   16  S   UNL     1     -11.878  15.224  72.002  1.00  0.00    -0.461 SA 
BRANCH  16  17
HETATM   17  C   UNL     1     -10.838  15.679  70.570  1.00  0.00    -0.326 C  
BRANCH  17  18
HETATM   18  C   UNL     1     -11.585  15.822  69.250  1.00  0.00    -0.380 C  
BRANCH  18  19
HETATM   19  C   UNL     1     -10.664  15.735  68.033  1.00  0.00    -0.296 C  
HETATM   20  H2  UNL     1      -9.661  14.067  68.820  1.00  0.00     0.000 HD 
HETATM   21  N   UNL     1      -9.733  14.724  68.043  1.00  0.00    -0.210 NA 
HETATM   22  H1  UNL     1      -9.118  14.666  67.231  1.00  0.00     0.000 HD 
BRANCH  19  23
HETATM   23  N   UNL     1     -10.865  16.621  67.114  1.00  0.00    -0.196 N  
HETATM   24  H   UNL     1     -11.604  16.473  66.427  1.00  0.00     0.000 HD 
BRANCH  23  25
HETATM   25  S   UNL     1      -9.966  17.955  67.039  1.00  0.00    -0.341 S  
HETATM   26  O   UNL     1     -10.792  19.109  67.302  1.00  0.00    -0.476 OA 
HETATM   27  O   UNL     1      -9.119  17.885  65.871  1.00  0.00    -0.512 OA 
HETATM   28  N   UNL     1      -8.932  17.842  68.351  1.00  0.00    -0.278 N  
HETATM   29  H1  UNL     1      -8.362  18.687  68.304  1.00  0.00     0.000 HD 
HETATM   30  H2  UNL     1      -8.882  17.095  69.044  1.00  0.00     0.000 HD 
ENDBRANCH  23  25
ENDBRANCH  19  23
ENDBRANCH  18  19
ENDBRANCH  17  18
ENDBRANCH  16  17
ENDBRANCH  15  16
ENDBRANCH  12  15
ENDBRANCH   5  10
TORSDOF 8
ENDMDL
MODEL      142
REMARK 921   NORMALIZED FREE ENERGY PREDICTED BY IDOCK:   -4.54 KCAL/MOL
REMARK 922        TOTAL FREE ENERGY PREDICTED BY IDOCK:   -7.84 KCAL/MOL
REMARK 923 INTER-LIGAND FREE ENERGY PREDICTED BY IDOCK:   -6.70 KCAL/MOL
REMARK 924 INTRA-LIGAND FREE ENERGY PREDICTED BY IDOCK:   -1.13 KCAL/MOL
REMARK 927      BINDING AFFINITY PREDICTED BY RF-SCORE:    0.00 PKD
ROOT
HETATM    1  N   UNL     1     -12.274  13.935  63.410  1.00  0.00    -1.102 NA 
HETATM    2  C   UNL     1     -11.427  13.487  64.367  1.00  0.00    -0.394 C  
HETATM    3  H2  UNL     1     -12.071  13.969  62.411  1.00  0.00     0.000 HD 
HETATM    4  H1  UNL     1     -13.147  14.234  63.844  1.00  0.00     0.000 HD 
HETATM    5  N   UNL     1     -11.787  13.469  65.604  1.00  0.00    -0.351 NA 
HETATM    6  N   UNL     1     -10.265  13.089  63.789  1.00  0.00    -0.716 NA 
HETATM    7  H2  UNL     1     -10.062  13.122  62.790  1.00  0.00     0.000 HD 
HETATM    8  H1  UNL     1      -9.628  12.751  64.510  1.00  0.00     0.000 HD 
HETATM    9  H   UNL     1     -12.717  13.783  65.881  1.00  0.00     0.000 HD 
ENDROOT
BRANCH   5  10
HETATM   10  C   UNL     1     -10.900  13.025  66.532  1.00  0.00    -0.279 A  
HETATM   11  N   UNL     1      -9.608  13.293  66.636  1.00  0.00    -0.257 NA 
HETATM   12  C   UNL     1      -9.053  12.654  67.742  1.00  0.00    -0.192 A  
HETATM   13  S   UNL     1     -11.503  11.985  67.779  1.00  0.00    -0.329 SA 
HETATM   14  C   UNL     1      -9.942  11.878  68.459  1.00  0.00    -0.192 A  
BRANCH  12  15
HETATM   15  C   UNL     1      -7.599  12.847  68.037  1.00  0.00    -0.137 C  
BRANCH  15  16
HETATM   16  S   UNL     1      -7.334  14.383  68.991  1.00  0.00    -0.111 SA 
BRANCH  16  17
HETATM   17  C   UNL     1      -6.480  15.410  67.745  1.00  0.00    -0.162 C  
BRANCH  17  18
HETATM   18  C   UNL     1      -7.394  16.280  66.890  1.00  0.00    -0.266 C  
BRANCH  18  19
HETATM   19  C   UNL     1      -7.391  17.747  67.320  1.00  0.00    -0.187 C  
HETATM   20  H2  UNL     1      -8.489  17.316  69.057  1.00  0.00     0.000 HD 
HETATM   21  N   UNL     1      -8.034  18.039  68.499  1.00  0.00    -0.298 NA 
HETATM   22  H1  UNL     1      -8.032  19.018  68.786  1.00  0.00     0.000 HD 
BRANCH  19  23
HETATM   23  N   UNL     1      -6.772  18.561  66.530  1.00  0.00    -0.188 N  
HETATM   24  H   UNL     1      -5.792  18.392  66.302  1.00  0.00     0.000 HD 
BRANCH  23  25
HETATM   25  S   UNL     1      -7.525  19.838  65.901  1.00  0.00    -0.304 S  
HETATM   26  O   UNL     1      -8.936  19.555  65.780  1.00  0.00    -0.381 OA 
HETATM   27  O   UNL     1      -6.757  20.332  64.783  1.00  0.00    -0.299 OA 
HETATM   28  N   UNL     1      -7.411  21.020  67.082  1.00  0.00    -0.557 N  
HETATM   29  H1  UNL     1      -7.888  21.829  66.683  1.00  0.00     0.000 HD 
HETATM   30  H2  UNL     1      -6.964  20.948  67.996  1.00  0.00     0.000 HD 
ENDBRANCH  23  25
ENDBRANCH  19  23
ENDBRANCH  18  19
ENDBRANCH  17  18
ENDBRANCH  16  17
ENDBRANCH  15  16
ENDBRANCH  12  15
ENDBRANCH   5  10
TORSDOF 8
ENDMDL
MODEL      143
REMARK 921   NORMALIZED FREE ENERGY PREDICTED BY IDOCK:   -4.53 KCAL/MOL
REMARK 922        TOTAL FREE ENERGY PREDICTED BY IDOCK:   -7.83 KCAL/MOL
REMARK 923 INTER-LIGAND FREE ENERGY PREDICTED BY IDOCK:   -6.28 KCAL/MOL
REMARK 924 INTRA-LIGAND FREE ENERGY PREDICTED BY IDOCK:   -1.55 KCAL/MOL
REMARK 927      BINDING AFFINITY PREDICTED BY RF-SCORE:    0.00 PKD
ROOT
HETATM    1  N   UNL     1     -11.951  11.946  67.020  1.00  0.00    -0.601 NA 
HETATM    2  C   UNL     1     -11.083  11.058  67.561  1.00  0.00    -0.302 C  
HETATM    3  H2  UNL     1     -12.952  11.985  67.213  1.00  0.00     0.000 HD 
HETATM    4  H1  UNL     1     -11.448  12.570  66.391  1.00  0.00     0.000 HD 
HETATM    5  N   UNL     1      -9.830  11.104  67.266  1.00  0.00    -0.173 NA 
HETATM    6  N   UNL     1     -11.753  10.227  68.399  1.00  0.00    -0.698 NA 
HETATM    7  H2  UNL     1     -12.753  10.266  68.591  1.00  0.00     0.000 HD 
HETATM    8  H1  UNL     1     -11.099   9.559  68.807  1.00  0.00     0.000 HD 
HETATM    9  H   UNL     1      -9.470  11.815  66.629  1.00  0.00     0.000 HD 
ENDROOT
BRANCH   5  10
HETATM   10  C   UNL     1      -8.997  10.186  67.820  1.00  0.00    -0.128 A  
HETATM   11  N   UNL     1      -9.080   8.865  67.782  1.00  0.00    -0.134 NA 
HETATM   12  C   UNL     1      -8.016   8.278  68.461  1.00  0.00    -0.122 A  
HETATM   13  S   UNL     1      -7.615  10.777  68.681  1.00  0.00    -0.115 SA 
HETATM   14  C   UNL     1      -7.138   9.177  69.034  1.00  0.00    -0.067 A  
BRANCH  12  15
HETATM   15  C   UNL     1      -7.926   6.785  68.518  1.00  0.00    -0.119 C  
BRANCH  15  16
HETATM   16  S   UNL     1      -8.112   6.195  70.237  1.00  0.00    -0.113 SA 
BRANCH  16  17
HETATM   17  C   UNL     1      -9.736   5.364  70.134  1.00  0.00    -0.188 C  
BRANCH  17  18
HETATM   18  C   UNL     1     -10.821   5.956  71.026  1.00  0.00    -0.339 C  
BRANCH  18  19
HETATM   19  C   UNL     1     -11.722   6.947  70.288  1.00  0.00    -0.291 C  
HETATM   20  H2  UNL     1     -10.580   6.789  68.533  1.00  0.00     0.000 HD 
HETATM   21  N   UNL     1     -11.386   7.222  68.984  1.00  0.00    -0.429 NA 
HETATM   22  H1  UNL     1     -11.987   7.884  68.492  1.00  0.00     0.000 HD 
BRANCH  19  23
HETATM   23  N   UNL     1     -12.715   7.415  70.969  1.00  0.00    -0.558 N  
HETATM   24  H   UNL     1     -13.576   6.873  71.040  1.00  0.00     0.000 HD 
BRANCH  23  25
HETATM   25  S   UNL     1     -12.611   8.843  71.708  1.00  0.00    -0.386 S  
HETATM   26  O   UNL     1     -13.123   9.875  70.838  1.00  0.00    -0.348 OA 
HETATM   27  O   UNL     1     -11.314   8.958  72.330  1.00  0.00    -0.299 OA 
HETATM   28  N   UNL     1     -13.708   8.746  72.971  1.00  0.00    -0.868 N  
HETATM   29  H1  UNL     1     -13.642   9.650  73.438  1.00  0.00     0.000 HD 
HETATM   30  H2  UNL     1     -14.307   7.958  73.217  1.00  0.00     0.000 HD 
ENDBRANCH  23  25
ENDBRANCH  19  23
ENDBRANCH  18  19
ENDBRANCH  17  18
ENDBRANCH  16  17
ENDBRANCH  15  16
ENDBRANCH  12  15
ENDBRANCH   5  10
TORSDOF 8
ENDMDL
MODEL      144
REMARK 921   NORMALIZED FREE ENERGY PREDICTED BY IDOCK:   -4.52 KCAL/MOL
REMARK 922        TOTAL FREE ENERGY PREDICTED BY IDOCK:   -7.82 KCAL/MOL
REMARK 923 INTER-LIGAND FREE ENERGY PREDICTED BY IDOCK:   -6.97 KCAL/MOL
REMARK 924 INTRA-LIGAND FREE ENERGY PREDICTED BY IDOCK:   -0.85 KCAL/MOL
REMARK 927      BINDING AFFINITY PREDICTED BY RF-SCORE:    0.00 PKD
ROOT
HETATM    1  N   UNL     1     -11.065  16.114  64.435  1.00  0.00    -1.052 NA 
HETATM    2  C   UNL     1     -10.581  14.884  64.734  1.00  0.00    -0.308 C  
HETATM    3  H2  UNL     1     -10.675  16.997  64.761  1.00  0.00     0.000 HD 
HETATM    4  H1  UNL     1     -11.881  16.017  63.832  1.00  0.00     0.000 HD 
HETATM    5  N   UNL     1     -11.138  13.826  64.255  1.00  0.00    -0.576 NA 
HETATM    6  N   UNL     1      -9.495  15.013  65.537  1.00  0.00    -0.440 NA 
HETATM    7  H2  UNL     1      -9.104  15.896  65.864  1.00  0.00     0.000 HD 
HETATM    8  H1  UNL     1      -9.130  14.087  65.763  1.00  0.00     0.000 HD 
HETATM    9  H   UNL     1     -11.946  13.897  63.636  1.00  0.00     0.000 HD 
ENDROOT
BRANCH   5  10
HETATM   10  C   UNL     1     -10.628  12.614  64.593  1.00  0.00    -0.333 A  
HETATM   11  N   UNL     1     -10.573  12.043  65.787  1.00  0.00    -0.254 NA 
HETATM   12  C   UNL     1      -9.988  10.782  65.710  1.00  0.00    -0.251 A  
HETATM   13  S   UNL     1      -9.974  11.639  63.319  1.00  0.00    -0.380 SA 
HETATM   14  C   UNL     1      -9.580  10.417  64.443  1.00  0.00    -0.316 A  
BRANCH  12  15
HETATM   15  C   UNL     1      -9.848   9.971  66.960  1.00  0.00    -0.189 C  
BRANCH  15  16
HETATM   16  S   UNL     1      -8.900   8.443  66.632  1.00  0.00    -0.150 SA 
BRANCH  16  17
HETATM   17  C   UNL     1      -9.677   7.302  67.828  1.00  0.00    -0.140 C  
BRANCH  17  18
HETATM   18  C   UNL     1     -10.876   7.871  68.577  1.00  0.00     0.031 C  
BRANCH  18  19
HETATM   19  C   UNL     1     -10.978   7.359  70.014  1.00  0.00    -0.248 C  
HETATM   20  H2  UNL     1      -8.891   7.385  70.247  1.00  0.00     0.000 HD 
HETATM   21  N   UNL     1      -9.791   7.184  70.684  1.00  0.00    -0.182 NA 
HETATM   22  H1  UNL     1      -9.858   6.842  71.643  1.00  0.00     0.000 HD 
BRANCH  19  23
HETATM   23  N   UNL     1     -12.176   7.152  70.452  1.00  0.00    -0.596 N  
HETATM   24  H   UNL     1     -12.758   6.442  70.007  1.00  0.00     0.000 HD 
BRANCH  23  25
HETATM   25  S   UNL     1     -12.763   8.001  71.689  1.00  0.00    -0.324 S  
HETATM   26  O   UNL     1     -13.270   9.264  71.210  1.00  0.00    -0.326 OA 
HETATM   27  O   UNL     1     -11.832   7.931  72.790  1.00  0.00    -0.340 OA 
HETATM   28  N   UNL     1     -14.112   7.143  72.187  1.00  0.00    -0.595 N  
HETATM   29  H1  UNL     1     -14.484   7.680  72.970  1.00  0.00     0.000 HD 
HETATM   30  H2  UNL     1     -14.481   6.276  71.795  1.00  0.00     0.000 HD 
ENDBRANCH  23  25
ENDBRANCH  19  23
ENDBRANCH  18  19
ENDBRANCH  17  18
ENDBRANCH  16  17
ENDBRANCH  15  16
ENDBRANCH  12  15
ENDBRANCH   5  10
TORSDOF 8
ENDMDL
MODEL      145
REMARK 921   NORMALIZED FREE ENERGY PREDICTED BY IDOCK:   -4.51 KCAL/MOL
REMARK 922        TOTAL FREE ENERGY PREDICTED BY IDOCK:   -7.80 KCAL/MOL
REMARK 923 INTER-LIGAND FREE ENERGY PREDICTED BY IDOCK:   -6.72 KCAL/MOL
REMARK 924 INTRA-LIGAND FREE ENERGY PREDICTED BY IDOCK:   -1.08 KCAL/MOL
REMARK 927      BINDING AFFINITY PREDICTED BY RF-SCORE:    0.00 PKD
ROOT
HETATM    1  N   UNL     1     -10.367   4.424  66.607  1.00  0.00    -0.299 NA 
HETATM    2  C   UNL     1     -10.518   5.525  67.381  1.00  0.00    -0.219 C  
HETATM    3  H2  UNL     1     -10.767   4.297  65.678  1.00  0.00     0.000 HD 
HETATM    4  H1  UNL     1      -9.790   3.742  67.098  1.00  0.00     0.000 HD 
HETATM    5  N   UNL     1      -9.954   5.595  68.538  1.00  0.00    -0.147 NA 
HETATM    6  N   UNL     1     -11.286   6.433  66.727  1.00  0.00    -0.742 NA 
HETATM    7  H2  UNL     1     -11.686   6.305  65.798  1.00  0.00     0.000 HD 
HETATM    8  H1  UNL     1     -11.399   7.262  67.310  1.00  0.00     0.000 HD 
HETATM    9  H   UNL     1      -9.378   4.828  68.884  1.00  0.00     0.000 HD 
ENDROOT
BRANCH   5  10
HETATM   10  C   UNL     1     -10.143   6.713  69.286  1.00  0.00    -0.169 A  
HETATM   11  N   UNL     1     -11.279   7.327  69.582  1.00  0.00    -0.144 NA 
HETATM   12  C   UNL     1     -11.050   8.435  70.394  1.00  0.00    -0.231 A  
HETATM   13  S   UNL     1      -8.743   7.452  69.988  1.00  0.00    -0.140 SA 
HETATM   14  C   UNL     1      -9.721   8.662  70.689  1.00  0.00    -0.184 A  
BRANCH  12  15
HETATM   15  C   UNL     1     -12.216   9.255  70.848  1.00  0.00    -0.201 C  
BRANCH  15  16
HETATM   16  S   UNL     1     -11.894  11.034  70.582  1.00  0.00    -0.276 SA 
BRANCH  16  17
HETATM   17  C   UNL     1     -11.843  11.098  68.757  1.00  0.00    -0.320 C  
BRANCH  17  18
HETATM   18  C   UNL     1     -10.770  12.009  68.173  1.00  0.00    -0.246 C  
BRANCH  18  19
HETATM   19  C   UNL     1     -11.305  12.936  67.082  1.00  0.00    -0.306 C  
HETATM   20  H2  UNL     1     -11.225  14.602  68.357  1.00  0.00     0.000 HD 
HETATM   21  N   UNL     1     -11.457  14.258  67.425  1.00  0.00    -0.328 NA 
HETATM   22  H1  UNL     1     -11.815  14.877  66.697  1.00  0.00     0.000 HD 
BRANCH  19  23
HETATM   23  N   UNL     1     -11.550  12.377  65.943  1.00  0.00    -0.379 N  
HETATM   24  H   UNL     1     -11.281  11.404  65.792  1.00  0.00     0.000 HD 
BRANCH  23  25
HETATM   25  S   UNL     1     -12.275  13.194  64.759  1.00  0.00    -0.436 S  
HETATM   26  O   UNL     1     -13.294  14.051  65.317  1.00  0.00    -0.741 OA 
HETATM   27  O   UNL     1     -12.564  12.288  63.672  1.00  0.00    -0.649 OA 
HETATM   28  N   UNL     1     -11.095  14.230  64.177  1.00  0.00    -0.563 N  
HETATM   29  H1  UNL     1     -11.554  14.747  63.427  1.00  0.00     0.000 HD 
HETATM   30  H2  UNL     1     -10.132  14.324  64.500  1.00  0.00     0.000 HD 
ENDBRANCH  23  25
ENDBRANCH  19  23
ENDBRANCH  18  19
ENDBRANCH  17  18
ENDBRANCH  16  17
ENDBRANCH  15  16
ENDBRANCH  12  15
ENDBRANCH   5  10
TORSDOF 8
ENDMDL
MODEL      146
REMARK 921   NORMALIZED FREE ENERGY PREDICTED BY IDOCK:   -4.51 KCAL/MOL
REMARK 922        TOTAL FREE ENERGY PREDICTED BY IDOCK:   -7.79 KCAL/MOL
REMARK 923 INTER-LIGAND FREE ENERGY PREDICTED BY IDOCK:   -7.02 KCAL/MOL
REMARK 924 INTRA-LIGAND FREE ENERGY PREDICTED BY IDOCK:   -0.77 KCAL/MOL
REMARK 927      BINDING AFFINITY PREDICTED BY RF-SCORE:    0.00 PKD
ROOT
HETATM    1  N   UNL     1     -14.403   9.066  72.970  1.00  0.00    -1.139 NA 
HETATM    2  C   UNL     1     -13.211   9.250  72.353  1.00  0.00    -0.426 C  
HETATM    3  H2  UNL     1     -15.114   9.785  73.106  1.00  0.00     0.000 HD 
HETATM    4  H1  UNL     1     -14.478   8.097  73.277  1.00  0.00     0.000 HD 
HETATM    5  N   UNL     1     -12.386   8.269  72.216  1.00  0.00    -0.418 NA 
HETATM    6  N   UNL     1     -13.110  10.539  71.944  1.00  0.00    -0.479 NA 
HETATM    7  H2  UNL     1     -13.821  11.258  72.079  1.00  0.00     0.000 HD 
HETATM    8  H1  UNL     1     -12.213  10.678  71.479  1.00  0.00     0.000 HD 
HETATM    9  H   UNL     1     -12.622   7.339  72.561  1.00  0.00     0.000 HD 
ENDROOT
BRANCH   5  10
HETATM   10  C   UNL     1     -11.197   8.501  71.603  1.00  0.00    -0.292 A  
HETATM   11  N   UNL     1     -10.972   8.987  70.392  1.00  0.00    -0.241 NA 
HETATM   12  C   UNL     1      -9.606   9.091  70.142  1.00  0.00    -0.193 A  
HETATM   13  S   UNL     1      -9.755   8.153  72.497  1.00  0.00    -0.303 SA 
HETATM   14  C   UNL     1      -8.801   8.654  71.174  1.00  0.00    -0.199 A  
BRANCH  12  15
HETATM   15  C   UNL     1      -9.149   9.634  68.824  1.00  0.00    -0.134 C  
BRANCH  15  16
HETATM   16  S   UNL     1     -10.525   9.648  67.622  1.00  0.00    -0.274 SA 
BRANCH  16  17
HETATM   17  C   UNL     1     -10.317  11.309  66.891  1.00  0.00    -0.234 C  
BRANCH  17  18
HETATM   18  C   UNL     1     -11.534  12.220  67.002  1.00  0.00    -0.419 C  
BRANCH  18  19
HETATM   19  C   UNL     1     -11.367  13.532  66.235  1.00  0.00    -0.309 C  
HETATM   20  H2  UNL     1     -12.908  13.030  64.900  1.00  0.00     0.000 HD 
HETATM   21  N   UNL     1     -12.210  13.724  65.167  1.00  0.00    -0.406 NA 
HETATM   22  H1  UNL     1     -12.099  14.600  64.654  1.00  0.00     0.000 HD 
BRANCH  19  23
HETATM   23  N   UNL     1     -10.454  14.329  66.681  1.00  0.00    -0.275 N  
HETATM   24  H   UNL     1      -9.514  14.289  66.285  1.00  0.00     0.000 HD 
BRANCH  23  25
HETATM   25  S   UNL     1     -10.777  15.386  67.853  1.00  0.00    -0.294 S  
HETATM   26  O   UNL     1     -10.721  16.727  67.322  1.00  0.00    -0.298 OA 
HETATM   27  O   UNL     1     -10.042  15.013  69.038  1.00  0.00    -0.227 OA 
HETATM   28  N   UNL     1     -12.390  15.125  68.224  1.00  0.00    -0.458 N  
HETATM   29  H1  UNL     1     -12.594  15.794  68.966  1.00  0.00     0.000 HD 
HETATM   30  H2  UNL     1     -13.026  14.448  67.802  1.00  0.00     0.000 HD 
ENDBRANCH  23  25
ENDBRANCH  19  23
ENDBRANCH  18  19
ENDBRANCH  17  18
ENDBRANCH  16  17
ENDBRANCH  15  16
ENDBRANCH  12  15
ENDBRANCH   5  10
TORSDOF 8
ENDMDL
MODEL      147
REMARK 921   NORMALIZED FREE ENERGY PREDICTED BY IDOCK:   -4.48 KCAL/MOL
REMARK 922        TOTAL FREE ENERGY PREDICTED BY IDOCK:   -7.76 KCAL/MOL
REMARK 923 INTER-LIGAND FREE ENERGY PREDICTED BY IDOCK:   -6.73 KCAL/MOL
REMARK 924 INTRA-LIGAND FREE ENERGY PREDICTED BY IDOCK:   -1.03 KCAL/MOL
REMARK 927      BINDING AFFINITY PREDICTED BY RF-SCORE:    0.00 PKD
ROOT
HETATM    1  N   UNL     1      -7.786  17.998  65.953  1.00  0.00    -0.534 NA 
HETATM    2  C   UNL     1      -8.603  16.924  66.083  1.00  0.00    -0.242 C  
HETATM    3  H2  UNL     1      -6.814  18.039  66.257  1.00  0.00     0.000 HD 
HETATM    4  H1  UNL     1      -8.296  18.757  65.502  1.00  0.00     0.000 HD 
HETATM    5  N   UNL     1      -9.815  16.967  65.649  1.00  0.00    -0.562 NA 
HETATM    6  N   UNL     1      -7.925  15.914  66.683  1.00  0.00    -0.252 NA 
HETATM    7  H2  UNL     1      -6.952  15.955  66.987  1.00  0.00     0.000 HD 
HETATM    8  H1  UNL     1      -8.539  15.106  66.781  1.00  0.00     0.000 HD 
HETATM    9  H   UNL     1     -10.175  17.805  65.192  1.00  0.00     0.000 HD 
ENDROOT
BRANCH   5  10
HETATM   10  C   UNL     1     -10.603  15.874  65.813  1.00  0.00    -0.355 A  
HETATM   11  N   UNL     1     -10.842  15.185  66.919  1.00  0.00    -0.313 NA 
HETATM   12  C   UNL     1     -11.725  14.137  66.673  1.00  0.00    -0.403 A  
HETATM   13  S   UNL     1     -11.447  15.280  64.422  1.00  0.00    -0.150 SA 
HETATM   14  C   UNL     1     -12.133  14.029  65.359  1.00  0.00    -0.401 A  
BRANCH  12  15
HETATM   15  C   UNL     1     -12.129  13.248  67.808  1.00  0.00    -0.237 C  
BRANCH  15  16
HETATM   16  S   UNL     1     -10.720  12.963  68.935  1.00  0.00    -0.102 SA 
BRANCH  16  17
HETATM   17  C   UNL     1     -10.107  11.360  68.309  1.00  0.00    -0.196 C  
BRANCH  17  18
HETATM   18  C   UNL     1     -10.999  10.163  68.618  1.00  0.00    -0.273 C  
BRANCH  18  19
HETATM   19  C   UNL     1     -11.156   9.909  70.117  1.00  0.00    -0.296 C  
HETATM   20  H2  UNL     1      -9.078   9.964  70.416  1.00  0.00     0.000 HD 
HETATM   21  N   UNL     1      -9.994   9.847  70.849  1.00  0.00    -0.289 NA 
HETATM   22  H1  UNL     1     -10.098   9.677  71.850  1.00  0.00     0.000 HD 
BRANCH  19  23
HETATM   23  N   UNL     1     -12.370   9.788  70.541  1.00  0.00    -0.481 N  
HETATM   24  H   UNL     1     -13.064  10.490  70.283  1.00  0.00     0.000 HD 
BRANCH  23  25
HETATM   25  S   UNL     1     -12.804   8.545  71.469  1.00  0.00    -0.285 S  
HETATM   26  O   UNL     1     -14.242   8.426  71.475  1.00  0.00    -0.411 OA 
HETATM   27  O   UNL     1     -12.046   8.590  72.697  1.00  0.00    -0.378 OA 
HETATM   28  N   UNL     1     -12.252   7.193  70.650  1.00  0.00    -0.571 N  
HETATM   29  H1  UNL     1     -12.526   6.406  71.238  1.00  0.00     0.000 HD 
HETATM   30  H2  UNL     1     -11.752   7.163  69.761  1.00  0.00     0.000 HD 
ENDBRANCH  23  25
ENDBRANCH  19  23
ENDBRANCH  18  19
ENDBRANCH  17  18
ENDBRANCH  16  17
ENDBRANCH  15  16
ENDBRANCH  12  15
ENDBRANCH   5  10
TORSDOF 8
ENDMDL
MODEL      148
REMARK 921   NORMALIZED FREE ENERGY PREDICTED BY IDOCK:   -4.48 KCAL/MOL
REMARK 922        TOTAL FREE ENERGY PREDICTED BY IDOCK:   -7.75 KCAL/MOL
REMARK 923 INTER-LIGAND FREE ENERGY PREDICTED BY IDOCK:   -6.26 KCAL/MOL
REMARK 924 INTRA-LIGAND FREE ENERGY PREDICTED BY IDOCK:   -1.49 KCAL/MOL
REMARK 927      BINDING AFFINITY PREDICTED BY RF-SCORE:    0.00 PKD
ROOT
HETATM    1  N   UNL     1     -12.653  14.393  63.362  1.00  0.00    -0.970 NA 
HETATM    2  C   UNL     1     -11.824  14.795  64.355  1.00  0.00    -0.380 C  
HETATM    3  H2  UNL     1     -12.846  14.915  62.507  1.00  0.00     0.000 HD 
HETATM    4  H1  UNL     1     -13.055  13.488  63.603  1.00  0.00     0.000 HD 
HETATM    5  N   UNL     1     -11.634  14.052  65.391  1.00  0.00    -0.319 NA 
HETATM    6  N   UNL     1     -11.289  16.000  64.035  1.00  0.00    -1.196 NA 
HETATM    7  H2  UNL     1     -11.482  16.522  63.180  1.00  0.00     0.000 HD 
HETATM    8  H1  UNL     1     -10.665  16.302  64.782  1.00  0.00     0.000 HD 
HETATM    9  H   UNL     1     -12.097  13.147  65.474  1.00  0.00     0.000 HD 
ENDROOT
BRANCH   5  10
HETATM   10  C   UNL     1     -10.805  14.500  66.368  1.00  0.00    -0.318 A  
HETATM   11  N   UNL     1      -9.488  14.638  66.337  1.00  0.00    -0.290 NA 
HETATM   12  C   UNL     1      -9.012  15.148  67.542  1.00  0.00    -0.180 A  
HETATM   13  S   UNL     1     -11.526  14.990  67.865  1.00  0.00    -0.331 SA 
HETATM   14  C   UNL     1      -9.986  15.372  68.494  1.00  0.00    -0.213 A  
BRANCH  12  15
HETATM   15  C   UNL     1      -7.543  15.388  67.697  1.00  0.00    -0.167 C  
BRANCH  15  16
HETATM   16  S   UNL     1      -6.898  14.510  69.164  1.00  0.00    -0.130 SA 
BRANCH  16  17
HETATM   17  C   UNL     1      -7.022  12.777  68.601  1.00  0.00    -0.101 C  
BRANCH  17  18
HETATM   18  C   UNL     1      -6.906  12.579  67.094  1.00  0.00    -0.058 C  
BRANCH  18  19
HETATM   19  C   UNL     1      -7.553  11.280  66.613  1.00  0.00    -0.140 C  
HETATM   20  H2  UNL     1      -6.196  11.110  65.019  1.00  0.00     0.000 HD 
HETATM   21  N   UNL     1      -6.997  10.698  65.499  1.00  0.00    -0.310 NA 
HETATM   22  H1  UNL     1      -7.429   9.832  65.177  1.00  0.00     0.000 HD 
BRANCH  19  23
HETATM   23  N   UNL     1      -8.554  10.860  67.313  1.00  0.00    -0.128 N  
HETATM   24  H   UNL     1      -8.474  10.819  68.329  1.00  0.00     0.000 HD 
BRANCH  23  25
HETATM   25  S   UNL     1      -9.926  10.400  66.605  1.00  0.00    -0.217 S  
HETATM   26  O   UNL     1     -11.048  10.817  67.411  1.00  0.00    -0.302 OA 
HETATM   27  O   UNL     1      -9.787   9.036  66.154  1.00  0.00    -0.271 OA 
HETATM   28  N   UNL     1     -10.014  11.327  65.212  1.00  0.00    -0.239 N  
HETATM   29  H1  UNL     1     -10.882  11.036  64.764  1.00  0.00     0.000 HD 
HETATM   30  H2  UNL     1      -9.347  12.027  64.885  1.00  0.00     0.000 HD 
ENDBRANCH  23  25
ENDBRANCH  19  23
ENDBRANCH  18  19
ENDBRANCH  17  18
ENDBRANCH  16  17
ENDBRANCH  15  16
ENDBRANCH  12  15
ENDBRANCH   5  10
TORSDOF 8
ENDMDL
MODEL      149
REMARK 921   NORMALIZED FREE ENERGY PREDICTED BY IDOCK:   -4.48 KCAL/MOL
REMARK 922        TOTAL FREE ENERGY PREDICTED BY IDOCK:   -7.75 KCAL/MOL
REMARK 923 INTER-LIGAND FREE ENERGY PREDICTED BY IDOCK:   -6.97 KCAL/MOL
REMARK 924 INTRA-LIGAND FREE ENERGY PREDICTED BY IDOCK:   -0.78 KCAL/MOL
REMARK 927      BINDING AFFINITY PREDICTED BY RF-SCORE:    0.00 PKD
ROOT
HETATM    1  N   UNL     1     -11.281   4.044  64.823  1.00  0.00    -0.849 NA 
HETATM    2  C   UNL     1     -10.609   4.978  65.538  1.00  0.00     0.057 C  
HETATM    3  H2  UNL     1     -10.916   3.548  64.010  1.00  0.00     0.000 HD 
HETATM    4  H1  UNL     1     -12.208   3.914  65.226  1.00  0.00     0.000 HD 
HETATM    5  N   UNL     1     -11.154   5.536  66.563  1.00  0.00    -0.650 NA 
HETATM    6  N   UNL     1      -9.374   5.152  65.002  1.00  0.00    -0.350 NA 
HETATM    7  H2  UNL     1      -9.009   4.656  64.189  1.00  0.00     0.000 HD 
HETATM    8  H1  UNL     1      -8.868   5.855  65.540  1.00  0.00     0.000 HD 
HETATM    9  H   UNL     1     -12.095   5.276  66.859  1.00  0.00     0.000 HD 
ENDROOT
BRANCH   5  10
HETATM   10  C   UNL     1     -10.449   6.477  67.242  1.00  0.00    -0.272 A  
HETATM   11  N   UNL     1     -10.672   7.780  67.321  1.00  0.00    -0.299 NA 
HETATM   12  C   UNL     1      -9.728   8.400  68.136  1.00  0.00    -0.155 A  
HETATM   13  S   UNL     1      -9.082   5.943  68.163  1.00  0.00    -0.117 SA 
HETATM   14  C   UNL     1      -8.774   7.548  68.655  1.00  0.00    -0.128 A  
BRANCH  12  15
HETATM   15  C   UNL     1      -9.822   9.876  68.360  1.00  0.00    -0.151 C  
BRANCH  15  16
HETATM   16  S   UNL     1     -11.535  10.357  68.777  1.00  0.00    -0.115 SA 
BRANCH  16  17
HETATM   17  C   UNL     1     -11.414  10.487  70.596  1.00  0.00    -0.327 C  
BRANCH  17  18
HETATM   18  C   UNL     1     -12.747  10.451  71.334  1.00  0.00    -0.551 C  
BRANCH  18  19
HETATM   19  C   UNL     1     -13.101   9.059  71.856  1.00  0.00    -0.400 C  
HETATM   20  H2  UNL     1     -14.356   9.855  73.340  1.00  0.00     0.000 HD 
HETATM   21  N   UNL     1     -13.969   9.009  72.921  1.00  0.00    -1.067 NA 
HETATM   22  H1  UNL     1     -14.204   8.080  73.270  1.00  0.00     0.000 HD 
BRANCH  19  23
HETATM   23  N   UNL     1     -12.551   8.070  71.232  1.00  0.00    -0.445 N  
HETATM   24  H   UNL     1     -12.609   8.023  70.215  1.00  0.00     0.000 HD 
BRANCH  23  25
HETATM   25  S   UNL     1     -11.774   6.911  72.038  1.00  0.00    -0.304 S  
HETATM   26  O   UNL     1     -11.101   7.485  73.179  1.00  0.00    -0.383 OA 
HETATM   27  O   UNL     1     -11.075   6.071  71.094  1.00  0.00    -0.277 OA 
HETATM   28  N   UNL     1     -12.990   5.953  72.677  1.00  0.00    -0.184 N  
HETATM   29  H1  UNL     1     -12.498   5.220  73.187  1.00  0.00     0.000 HD 
HETATM   30  H2  UNL     1     -13.998   6.076  72.579  1.00  0.00     0.000 HD 
ENDBRANCH  23  25
ENDBRANCH  19  23
ENDBRANCH  18  19
ENDBRANCH  17  18
ENDBRANCH  16  17
ENDBRANCH  15  16
ENDBRANCH  12  15
ENDBRANCH   5  10
TORSDOF 8
ENDMDL
MODEL      150
REMARK 921   NORMALIZED FREE ENERGY PREDICTED BY IDOCK:   -4.47 KCAL/MOL
REMARK 922        TOTAL FREE ENERGY PREDICTED BY IDOCK:   -7.74 KCAL/MOL
REMARK 923 INTER-LIGAND FREE ENERGY PREDICTED BY IDOCK:   -6.64 KCAL/MOL
REMARK 924 INTRA-LIGAND FREE ENERGY PREDICTED BY IDOCK:   -1.10 KCAL/MOL
REMARK 927      BINDING AFFINITY PREDICTED BY RF-SCORE:    0.00 PKD
ROOT
HETATM    1  N   UNL     1     -13.411  16.251  73.810  1.00  0.00    -0.901 NA 
HETATM    2  C   UNL     1     -12.875  15.787  72.655  1.00  0.00    -0.461 C  
HETATM    3  H2  UNL     1     -13.084  17.069  74.325  1.00  0.00     0.000 HD 
HETATM    4  H1  UNL     1     -14.191  15.655  74.083  1.00  0.00     0.000 HD 
HETATM    5  N   UNL     1     -13.373  14.753  72.071  1.00  0.00    -0.335 NA 
HETATM    6  N   UNL     1     -11.835  16.580  72.292  1.00  0.00    -0.613 NA 
HETATM    7  H2  UNL     1     -11.509  17.397  72.807  1.00  0.00     0.000 HD 
HETATM    8  H1  UNL     1     -11.432  16.231  71.422  1.00  0.00     0.000 HD 
HETATM    9  H   UNL     1     -14.184  14.273  72.462  1.00  0.00     0.000 HD 
ENDROOT
BRANCH   5  10
HETATM   10  C   UNL     1     -12.796  14.314  70.923  1.00  0.00    -0.347 A  
HETATM   11  N   UNL     1     -12.388  15.021  69.880  1.00  0.00    -0.300 NA 
HETATM   12  C   UNL     1     -11.830  14.197  68.906  1.00  0.00    -0.347 A  
HETATM   13  S   UNL     1     -12.513  12.612  70.770  1.00  0.00    -0.170 SA 
HETATM   14  C   UNL     1     -11.842  12.852  69.219  1.00  0.00    -0.309 A  
BRANCH  12  15
HETATM   15  C   UNL     1     -11.296  14.815  67.652  1.00  0.00    -0.339 C  
BRANCH  15  16
HETATM   16  S   UNL     1     -12.193  14.181  66.191  1.00  0.00    -0.411 SA 
BRANCH  16  17
HETATM   17  C   UNL     1     -10.889  13.170  65.407  1.00  0.00    -0.282 C  
BRANCH  17  18
HETATM   18  C   UNL     1     -10.998  11.671  65.657  1.00  0.00    -0.322 C  
BRANCH  18  19
HETATM   19  C   UNL     1      -9.645  11.011  65.921  1.00  0.00    -0.218 C  
HETATM   20  H2  UNL     1     -10.373   9.124  65.356  1.00  0.00     0.000 HD 
HETATM   21  N   UNL     1      -9.570   9.659  65.687  1.00  0.00    -0.254 NA 
HETATM   22  H1  UNL     1      -8.666   9.218  65.864  1.00  0.00     0.000 HD 
BRANCH  19  23
HETATM   23  N   UNL     1      -8.707  11.801  66.328  1.00  0.00    -0.334 N  
HETATM   24  H   UNL     1      -8.373  12.543  65.713  1.00  0.00     0.000 HD 
BRANCH  23  25
HETATM   25  S   UNL     1      -8.057  11.629  67.792  1.00  0.00    -0.149 S  
HETATM   26  O   UNL     1      -6.618  11.614  67.683  1.00  0.00    -0.069 OA 
HETATM   27  O   UNL     1      -8.770  10.595  68.504  1.00  0.00    -0.127 OA 
HETATM   28  N   UNL     1      -8.425  13.057  68.587  1.00  0.00    -0.352 N  
HETATM   29  H1  UNL     1      -8.015  12.948  69.514  1.00  0.00     0.000 HD 
HETATM   30  H2  UNL     1      -8.945  13.857  68.225  1.00  0.00     0.000 HD 
ENDBRANCH  23  25
ENDBRANCH  19  23
ENDBRANCH  18  19
ENDBRANCH  17  18
ENDBRANCH  16  17
ENDBRANCH  15  16
ENDBRANCH  12  15
ENDBRANCH   5  10
TORSDOF 8
ENDMDL
MODEL      151
REMARK 921   NORMALIZED FREE ENERGY PREDICTED BY IDOCK:   -4.47 KCAL/MOL
REMARK 922        TOTAL FREE ENERGY PREDICTED BY IDOCK:   -7.74 KCAL/MOL
REMARK 923 INTER-LIGAND FREE ENERGY PREDICTED BY IDOCK:   -6.75 KCAL/MOL
REMARK 924 INTRA-LIGAND FREE ENERGY PREDICTED BY IDOCK:   -0.98 KCAL/MOL
REMARK 927      BINDING AFFINITY PREDICTED BY RF-SCORE:    0.00 PKD
ROOT
HETATM    1  N   UNL     1     -13.425   9.113  72.277  1.00  0.00    -0.456 NA 
HETATM    2  C   UNL     1     -13.239  10.327  71.706  1.00  0.00    -0.430 C  
HETATM    3  H2  UNL     1     -13.375   8.218  71.790  1.00  0.00     0.000 HD 
HETATM    4  H1  UNL     1     -13.623   9.233  73.269  1.00  0.00     0.000 HD 
HETATM    5  N   UNL     1     -13.307  11.401  72.414  1.00  0.00    -0.455 NA 
HETATM    6  N   UNL     1     -12.976  10.167  70.384  1.00  0.00    -0.585 NA 
HETATM    7  H2  UNL     1     -12.926   9.273  69.897  1.00  0.00     0.000 HD 
HETATM    8  H1  UNL     1     -12.836  11.082  69.954  1.00  0.00     0.000 HD 
HETATM    9  H   UNL     1     -13.491  11.354  73.416  1.00  0.00     0.000 HD 
ENDROOT
BRANCH   5  10
HETATM   10  C   UNL     1     -13.128  12.598  71.798  1.00  0.00    -0.360 A  
HETATM   11  N   UNL     1     -12.252  12.922  70.859  1.00  0.00    -0.294 NA 
HETATM   12  C   UNL     1     -12.402  14.252  70.474  1.00  0.00    -0.360 A  
HETATM   13  S   UNL     1     -14.180  13.896  72.252  1.00  0.00    -0.354 SA 
HETATM   14  C   UNL     1     -13.391  14.935  71.153  1.00  0.00    -0.418 A  
BRANCH  12  15
HETATM   15  C   UNL     1     -11.508  14.804  69.409  1.00  0.00    -0.301 C  
BRANCH  15  16
HETATM   16  S   UNL     1     -12.116  14.334  67.751  1.00  0.00    -0.186 SA 
BRANCH  16  17
HETATM   17  C   UNL     1     -10.954  12.987  67.335  1.00  0.00    -0.260 C  
BRANCH  17  18
HETATM   18  C   UNL     1     -11.515  11.579  67.497  1.00  0.00    -0.355 C  
BRANCH  18  19
HETATM   19  C   UNL     1     -10.573  10.499  66.965  1.00  0.00    -0.253 C  
HETATM   20  H2  UNL     1     -11.609   8.989  67.992  1.00  0.00     0.000 HD 
HETATM   21  N   UNL     1     -10.831   9.211  67.371  1.00  0.00    -0.424 NA 
HETATM   22  H1  UNL     1     -10.203   8.490  67.016  1.00  0.00     0.000 HD 
BRANCH  19  23
HETATM   23  N   UNL     1      -9.635  10.912  66.178  1.00  0.00    -0.195 N  
HETATM   24  H   UNL     1      -9.062  11.709  66.455  1.00  0.00     0.000 HD 
BRANCH  23  25
HETATM   25  S   UNL     1      -9.358  10.185  64.767  1.00  0.00    -0.291 S  
HETATM   26  O   UNL     1     -10.320  10.642  63.793  1.00  0.00    -0.297 OA 
HETATM   27  O   UNL     1      -9.130   8.779  65.000  1.00  0.00    -0.130 OA 
HETATM   28  N   UNL     1      -7.886  10.800  64.257  1.00  0.00    -0.351 N  
HETATM   29  H1  UNL     1      -7.711  10.340  63.364  1.00  0.00     0.000 HD 
HETATM   30  H2  UNL     1      -7.296  11.483  64.733  1.00  0.00     0.000 HD 
ENDBRANCH  23  25
ENDBRANCH  19  23
ENDBRANCH  18  19
ENDBRANCH  17  18
ENDBRANCH  16  17
ENDBRANCH  15  16
ENDBRANCH  12  15
ENDBRANCH   5  10
TORSDOF 8
ENDMDL
MODEL      152
REMARK 921   NORMALIZED FREE ENERGY PREDICTED BY IDOCK:   -4.45 KCAL/MOL
REMARK 922        TOTAL FREE ENERGY PREDICTED BY IDOCK:   -7.70 KCAL/MOL
REMARK 923 INTER-LIGAND FREE ENERGY PREDICTED BY IDOCK:   -6.63 KCAL/MOL
REMARK 924 INTRA-LIGAND FREE ENERGY PREDICTED BY IDOCK:   -1.08 KCAL/MOL
REMARK 927      BINDING AFFINITY PREDICTED BY RF-SCORE:    0.00 PKD
ROOT
HETATM    1  N   UNL     1     -11.033  19.531  65.194  1.00  0.00    -0.275 NA 
HETATM    2  C   UNL     1     -10.561  18.463  65.880  1.00  0.00    -0.285 C  
HETATM    3  H2  UNL     1     -11.483  19.493  64.280  1.00  0.00     0.000 HD 
HETATM    4  H1  UNL     1     -10.868  20.379  65.735  1.00  0.00     0.000 HD 
HETATM    5  N   UNL     1     -10.023  18.615  67.041  1.00  0.00    -0.322 NA 
HETATM    6  N   UNL     1     -10.780  17.334  65.160  1.00  0.00    -0.651 NA 
HETATM    7  H2  UNL     1     -11.230  17.296  64.246  1.00  0.00     0.000 HD 
HETATM    8  H1  UNL     1     -10.425  16.529  65.677  1.00  0.00     0.000 HD 
HETATM    9  H   UNL     1      -9.953  19.540  67.465  1.00  0.00     0.000 HD 
ENDROOT
BRANCH   5  10
HETATM   10  C   UNL     1      -9.550  17.518  67.687  1.00  0.00    -0.266 A  
HETATM   11  N   UNL     1      -8.550  16.721  67.341  1.00  0.00    -0.191 NA 
HETATM   12  C   UNL     1      -8.367  15.713  68.284  1.00  0.00    -0.154 A  
HETATM   13  S   UNL     1     -10.311  17.080  69.180  1.00  0.00    -0.275 SA 
HETATM   14  C   UNL     1      -9.259  15.746  69.337  1.00  0.00    -0.263 A  
BRANCH  12  15
HETATM   15  C   UNL     1      -7.271  14.716  68.075  1.00  0.00    -0.140 C  
BRANCH  15  16
HETATM   16  S   UNL     1      -7.946  13.018  68.031  1.00  0.00    -0.168 SA 
BRANCH  16  17
HETATM   17  C   UNL     1      -9.235  13.202  66.750  1.00  0.00    -0.230 C  
BRANCH  17  18
HETATM   18  C   UNL     1     -10.661  13.301  67.280  1.00  0.00    -0.250 C  
BRANCH  18  19
HETATM   19  C   UNL     1     -11.588  12.235  66.697  1.00  0.00    -0.375 C  
HETATM   20  H2  UNL     1     -10.946  10.807  68.097  1.00  0.00     0.000 HD 
HETATM   21  N   UNL     1     -11.555  11.001  67.302  1.00  0.00    -0.474 NA 
HETATM   22  H1  UNL     1     -12.174  10.289  66.912  1.00  0.00     0.000 HD 
BRANCH  19  23
HETATM   23  N   UNL     1     -12.315  12.611  65.697  1.00  0.00    -0.414 N  
HETATM   24  H   UNL     1     -13.150  13.173  65.867  1.00  0.00     0.000 HD 
BRANCH  23  25
HETATM   25  S   UNL     1     -11.922  12.206  64.188  1.00  0.00    -0.405 S  
HETATM   26  O   UNL     1     -13.113  12.171  63.373  1.00  0.00    -0.752 OA 
HETATM   27  O   UNL     1     -11.001  11.095  64.225  1.00  0.00    -0.341 OA 
HETATM   28  N   UNL     1     -11.035  13.507  63.619  1.00  0.00    -0.395 N  
HETATM   29  H1  UNL     1     -10.786  13.251  62.664  1.00  0.00     0.000 HD 
HETATM   30  H2  UNL     1     -10.796  14.366  64.116  1.00  0.00     0.000 HD 
ENDBRANCH  23  25
ENDBRANCH  19  23
ENDBRANCH  18  19
ENDBRANCH  17  18
ENDBRANCH  16  17
ENDBRANCH  15  16
ENDBRANCH  12  15
ENDBRANCH   5  10
TORSDOF 8
ENDMDL
MODEL      153
REMARK 921   NORMALIZED FREE ENERGY PREDICTED BY IDOCK:   -4.44 KCAL/MOL
REMARK 922        TOTAL FREE ENERGY PREDICTED BY IDOCK:   -7.70 KCAL/MOL
REMARK 923 INTER-LIGAND FREE ENERGY PREDICTED BY IDOCK:   -6.74 KCAL/MOL
REMARK 924 INTRA-LIGAND FREE ENERGY PREDICTED BY IDOCK:   -0.96 KCAL/MOL
REMARK 927      BINDING AFFINITY PREDICTED BY RF-SCORE:    0.00 PKD
ROOT
HETATM    1  N   UNL     1     -10.603   5.279  71.537  1.00  0.00    -0.212 NA 
HETATM    2  C   UNL     1     -11.077   6.516  71.251  1.00  0.00    -0.273 C  
HETATM    3  H2  UNL     1     -10.448   4.535  70.857  1.00  0.00     0.000 HD 
HETATM    4  H1  UNL     1     -10.427   5.208  72.539  1.00  0.00     0.000 HD 
HETATM    5  N   UNL     1     -11.221   7.393  72.183  1.00  0.00    -0.251 NA 
HETATM    6  N   UNL     1     -11.311   6.610  69.918  1.00  0.00    -0.439 NA 
HETATM    7  H2  UNL     1     -11.156   5.866  69.238  1.00  0.00     0.000 HD 
HETATM    8  H1  UNL     1     -11.667   7.541  69.702  1.00  0.00     0.000 HD 
HETATM    9  H   UNL     1     -10.973   7.175  73.148  1.00  0.00     0.000 HD 
ENDROOT
BRANCH   5  10
HETATM   10  C   UNL     1     -11.712   8.616  71.853  1.00  0.00    -0.352 A  
HETATM   11  N   UNL     1     -11.182   9.533  71.057  1.00  0.00    -0.330 NA 
HETATM   12  C   UNL     1     -12.008  10.649  70.964  1.00  0.00    -0.339 A  
HETATM   13  S   UNL     1     -13.245   9.069  72.520  1.00  0.00    -0.315 SA 
HETATM   14  C   UNL     1     -13.161  10.573  71.719  1.00  0.00    -0.464 A  
BRANCH  12  15
HETATM   15  C   UNL     1     -11.586  11.793  70.095  1.00  0.00    -0.195 C  
BRANCH  15  16
HETATM   16  S   UNL     1     -11.522  11.280  68.342  1.00  0.00    -0.316 SA 
BRANCH  16  17
HETATM   17  C   UNL     1     -11.812  12.882  67.513  1.00  0.00    -0.351 C  
BRANCH  17  18
HETATM   18  C   UNL     1     -11.912  14.083  68.446  1.00  0.00    -0.378 C  
BRANCH  18  19
HETATM   19  C   UNL     1     -10.844  15.141  68.170  1.00  0.00    -0.266 C  
HETATM   20  H2  UNL     1      -9.600  14.383  69.682  1.00  0.00     0.000 HD 
HETATM   21  N   UNL     1      -9.717  15.089  68.955  1.00  0.00    -0.225 NA 
HETATM   22  H1  UNL     1      -9.005  15.795  68.772  1.00  0.00     0.000 HD 
BRANCH  19  23
HETATM   23  N   UNL     1     -11.112  15.971  67.217  1.00  0.00    -0.201 N  
HETATM   24  H   UNL     1     -11.982  16.502  67.242  1.00  0.00     0.000 HD 
BRANCH  23  25
HETATM   25  S   UNL     1     -10.089  16.180  65.990  1.00  0.00    -0.370 S  
HETATM   26  O   UNL     1      -9.049  15.181  66.053  1.00  0.00    -0.289 OA 
HETATM   27  O   UNL     1      -9.778  17.585  65.871  1.00  0.00    -0.513 OA 
HETATM   28  N   UNL     1     -10.983  15.800  64.625  1.00  0.00    -0.662 N  
HETATM   29  H1  UNL     1     -10.336  15.932  63.849  1.00  0.00     0.000 HD 
HETATM   30  H2  UNL     1     -11.959  15.503  64.581  1.00  0.00     0.000 HD 
ENDBRANCH  23  25
ENDBRANCH  19  23
ENDBRANCH  18  19
ENDBRANCH  17  18
ENDBRANCH  16  17
ENDBRANCH  15  16
ENDBRANCH  12  15
ENDBRANCH   5  10
TORSDOF 8
ENDMDL
MODEL      154
REMARK 921   NORMALIZED FREE ENERGY PREDICTED BY IDOCK:   -4.43 KCAL/MOL
REMARK 922        TOTAL FREE ENERGY PREDICTED BY IDOCK:   -7.68 KCAL/MOL
REMARK 923 INTER-LIGAND FREE ENERGY PREDICTED BY IDOCK:   -6.75 KCAL/MOL
REMARK 924 INTRA-LIGAND FREE ENERGY PREDICTED BY IDOCK:   -0.93 KCAL/MOL
REMARK 927      BINDING AFFINITY PREDICTED BY RF-SCORE:    0.00 PKD
ROOT
HETATM    1  N   UNL     1     -11.685  16.370  63.833  1.00  0.00    -1.527 NA 
HETATM    2  C   UNL     1     -11.752  15.531  64.896  1.00  0.00    -0.118 C  
HETATM    3  H2  UNL     1     -12.230  16.280  62.976  1.00  0.00     0.000 HD 
HETATM    4  H1  UNL     1     -11.005  17.104  64.025  1.00  0.00     0.000 HD 
HETATM    5  N   UNL     1     -11.032  15.743  65.943  1.00  0.00    -0.246 NA 
HETATM    6  N   UNL     1     -12.657  14.553  64.640  1.00  0.00    -0.619 NA 
HETATM    7  H2  UNL     1     -13.202  14.464  63.783  1.00  0.00     0.000 HD 
HETATM    8  H1  UNL     1     -12.708  13.923  65.440  1.00  0.00     0.000 HD 
HETATM    9  H   UNL     1     -10.409  16.548  65.993  1.00  0.00     0.000 HD 
ENDROOT
BRANCH   5  10
HETATM   10  C   UNL     1     -11.121  14.869  66.979  1.00  0.00    -0.338 A  
HETATM   11  N   UNL     1     -11.019  13.549  66.958  1.00  0.00    -0.285 NA 
HETATM   12  C   UNL     1     -11.151  13.019  68.239  1.00  0.00    -0.263 A  
HETATM   13  S   UNL     1     -11.375  15.528  68.560  1.00  0.00    -0.366 SA 
HETATM   14  C   UNL     1     -11.376  13.957  69.226  1.00  0.00    -0.272 A  
BRANCH  12  15
HETATM   15  C   UNL     1     -11.051  11.537  68.424  1.00  0.00    -0.235 C  
BRANCH  15  16
HETATM   16  S   UNL     1     -12.186  10.976  69.743  1.00  0.00    -0.273 SA 
BRANCH  16  17
HETATM   17  C   UNL     1     -11.080   9.873  70.691  1.00  0.00    -0.340 C  
BRANCH  17  18
HETATM   18  C   UNL     1      -9.875   9.349  69.919  1.00  0.00    -0.235 C  
BRANCH  18  19
HETATM   19  C   UNL     1      -9.864   7.825  69.795  1.00  0.00    -0.178 C  
HETATM   20  H2  UNL     1     -11.131   7.609  71.456  1.00  0.00     0.000 HD 
HETATM   21  N   UNL     1     -10.603   7.133  70.724  1.00  0.00    -0.220 NA 
HETATM   22  H1  UNL     1     -10.596   6.116  70.642  1.00  0.00     0.000 HD 
BRANCH  19  23
HETATM   23  N   UNL     1      -9.165   7.348  68.819  1.00  0.00    -0.145 N  
HETATM   24  H   UNL     1      -8.179   7.596  68.738  1.00  0.00     0.000 HD 
BRANCH  23  25
HETATM   25  S   UNL     1      -9.830   6.365  67.728  1.00  0.00    -0.129 S  
HETATM   26  O   UNL     1      -9.710   4.998  68.174  1.00  0.00    -0.136 OA 
HETATM   27  O   UNL     1      -9.400   6.769  66.410  1.00  0.00    -0.163 OA 
HETATM   28  N   UNL     1     -11.468   6.709  67.791  1.00  0.00    -0.658 N  
HETATM   29  H1  UNL     1     -11.888   6.087  67.101  1.00  0.00     0.000 HD 
HETATM   30  H2  UNL     1     -11.940   7.389  68.388  1.00  0.00     0.000 HD 
ENDBRANCH  23  25
ENDBRANCH  19  23
ENDBRANCH  18  19
ENDBRANCH  17  18
ENDBRANCH  16  17
ENDBRANCH  15  16
ENDBRANCH  12  15
ENDBRANCH   5  10
TORSDOF 8
ENDMDL
MODEL      155
REMARK 921   NORMALIZED FREE ENERGY PREDICTED BY IDOCK:   -4.43 KCAL/MOL
REMARK 922        TOTAL FREE ENERGY PREDICTED BY IDOCK:   -7.68 KCAL/MOL
REMARK 923 INTER-LIGAND FREE ENERGY PREDICTED BY IDOCK:   -6.46 KCAL/MOL
REMARK 924 INTRA-LIGAND FREE ENERGY PREDICTED BY IDOCK:   -1.22 KCAL/MOL
REMARK 927      BINDING AFFINITY PREDICTED BY RF-SCORE:    0.00 PKD
ROOT
HETATM    1  N   UNL     1      -8.524   7.887  64.182  1.00  0.00    -0.376 NA 
HETATM    2  C   UNL     1      -9.046   8.601  65.209  1.00  0.00    -0.040 C  
HETATM    3  H2  UNL     1      -8.539   8.167  63.201  1.00  0.00     0.000 HD 
HETATM    4  H1  UNL     1      -8.114   7.027  64.543  1.00  0.00     0.000 HD 
HETATM    5  N   UNL     1      -8.959   8.167  66.418  1.00  0.00    -0.162 NA 
HETATM    6  N   UNL     1      -9.592   9.747  64.728  1.00  0.00    -0.411 NA 
HETATM    7  H2  UNL     1      -9.606  10.027  63.748  1.00  0.00     0.000 HD 
HETATM    8  H1  UNL     1      -9.984  10.284  65.501  1.00  0.00     0.000 HD 
HETATM    9  H   UNL     1      -8.489   7.285  66.623  1.00  0.00     0.000 HD 
ENDROOT
BRANCH   5  10
HETATM   10  C   UNL     1      -9.508   8.908  67.415  1.00  0.00    -0.145 A  
HETATM   11  N   UNL     1     -10.664   9.554  67.425  1.00  0.00    -0.270 NA 
HETATM   12  C   UNL     1     -10.873  10.183  68.649  1.00  0.00    -0.235 A  
HETATM   13  S   UNL     1      -8.624   9.031  68.900  1.00  0.00    -0.132 SA 
HETATM   14  C   UNL     1      -9.847  10.022  69.558  1.00  0.00    -0.229 A  
BRANCH  12  15
HETATM   15  C   UNL     1     -12.137  10.957  68.860  1.00  0.00    -0.116 C  
BRANCH  15  16
HETATM   16  S   UNL     1     -11.873  12.304  70.066  1.00  0.00    -0.229 SA 
BRANCH  16  17
HETATM   17  C   UNL     1     -11.377  13.663  68.950  1.00  0.00    -0.290 C  
BRANCH  17  18
HETATM   18  C   UNL     1     -11.907  13.553  67.525  1.00  0.00    -0.406 C  
BRANCH  18  19
HETATM   19  C   UNL     1     -10.796  13.388  66.488  1.00  0.00    -0.282 C  
HETATM   20  H2  UNL     1      -9.600  12.310  67.836  1.00  0.00     0.000 HD 
HETATM   21  N   UNL     1      -9.681  12.694  66.894  1.00  0.00    -0.228 NA 
HETATM   22  H1  UNL     1      -8.940  12.583  66.203  1.00  0.00     0.000 HD 
BRANCH  19  23
HETATM   23  N   UNL     1     -11.028  13.912  65.331  1.00  0.00    -0.306 N  
HETATM   24  H   UNL     1     -10.774  14.885  65.159  1.00  0.00     0.000 HD 
BRANCH  23  25
HETATM   25  S   UNL     1     -11.713  13.051  64.154  1.00  0.00    -0.443 S  
HETATM   26  O   UNL     1     -12.823  12.299  64.689  1.00  0.00    -0.665 OA 
HETATM   27  O   UNL     1     -10.678  12.415  63.374  1.00  0.00    -0.446 OA 
HETATM   28  N   UNL     1     -12.402  14.193  63.140  1.00  0.00    -1.046 N  
HETATM   29  H1  UNL     1     -12.835  13.648  62.395  1.00  0.00     0.000 HD 
HETATM   30  H2  UNL     1     -12.390  15.208  63.244  1.00  0.00     0.000 HD 
ENDBRANCH  23  25
ENDBRANCH  19  23
ENDBRANCH  18  19
ENDBRANCH  17  18
ENDBRANCH  16  17
ENDBRANCH  15  16
ENDBRANCH  12  15
ENDBRANCH   5  10
TORSDOF 8
ENDMDL
MODEL      156
REMARK 921   NORMALIZED FREE ENERGY PREDICTED BY IDOCK:   -4.43 KCAL/MOL
REMARK 922        TOTAL FREE ENERGY PREDICTED BY IDOCK:   -7.68 KCAL/MOL
REMARK 923 INTER-LIGAND FREE ENERGY PREDICTED BY IDOCK:   -6.86 KCAL/MOL
REMARK 924 INTRA-LIGAND FREE ENERGY PREDICTED BY IDOCK:   -0.82 KCAL/MOL
REMARK 927      BINDING AFFINITY PREDICTED BY RF-SCORE:    0.00 PKD
ROOT
HETATM    1  N   UNL     1     -10.430  17.536  67.464  1.00  0.00    -0.355 NA 
HETATM    2  C   UNL     1     -10.557  16.404  66.729  1.00  0.00    -0.238 C  
HETATM    3  H2  UNL     1      -9.986  18.397  67.147  1.00  0.00     0.000 HD 
HETATM    4  H1  UNL     1     -10.849  17.391  68.382  1.00  0.00     0.000 HD 
HETATM    5  N   UNL     1     -11.153  15.371  67.216  1.00  0.00    -0.322 NA 
HETATM    6  N   UNL     1      -9.999  16.596  65.507  1.00  0.00    -0.573 NA 
HETATM    7  H2  UNL     1      -9.555  17.458  65.191  1.00  0.00     0.000 HD 
HETATM    8  H1  UNL     1     -10.094  15.744  64.954  1.00  0.00     0.000 HD 
HETATM    9  H   UNL     1     -11.547  15.391  68.156  1.00  0.00     0.000 HD 
ENDROOT
BRANCH   5  10
HETATM   10  C   UNL     1     -11.245  14.253  66.450  1.00  0.00    -0.337 A  
HETATM   11  N   UNL     1     -10.349  13.292  66.279  1.00  0.00    -0.284 NA 
HETATM   12  C   UNL     1     -10.834  12.305  65.425  1.00  0.00    -0.286 A  
HETATM   13  S   UNL     1     -12.722  13.997  65.584  1.00  0.00    -0.375 SA 
HETATM   14  C   UNL     1     -12.102  12.546  64.935  1.00  0.00    -0.440 A  
BRANCH  12  15
HETATM   15  C   UNL     1      -9.969  11.123  65.118  1.00  0.00    -0.272 C  
BRANCH  15  16
HETATM   16  S   UNL     1      -9.212  10.466  66.645  1.00  0.00    -0.158 SA 
BRANCH  16  17
HETATM   17  C   UNL     1     -10.706  10.057  67.614  1.00  0.00    -0.284 C  
BRANCH  17  18
HETATM   18  C   UNL     1     -10.476   9.113  68.787  1.00  0.00    -0.236 C  
BRANCH  18  19
HETATM   19  C   UNL     1     -10.832   9.740  70.135  1.00  0.00    -0.291 C  
HETATM   20  H2  UNL     1     -11.334  11.569  69.232  1.00  0.00     0.000 HD 
HETATM   21  N   UNL     1     -11.259  11.046  70.105  1.00  0.00    -0.458 NA 
HETATM   22  H1  UNL     1     -11.496  11.466  71.004  1.00  0.00     0.000 HD 
BRANCH  19  23
HETATM   23  N   UNL     1     -10.703   8.969  71.163  1.00  0.00    -0.261 N  
HETATM   24  H   UNL     1      -9.777   8.809  71.558  1.00  0.00     0.000 HD 
BRANCH  23  25
HETATM   25  S   UNL     1     -11.986   8.257  71.830  1.00  0.00    -0.339 S  
HETATM   26  O   UNL     1     -12.438   7.182  70.978  1.00  0.00    -0.357 OA 
HETATM   27  O   UNL     1     -12.893   9.273  72.306  1.00  0.00    -0.389 OA 
HETATM   28  N   UNL     1     -11.387   7.509  73.204  1.00  0.00    -0.604 N  
HETATM   29  H1  UNL     1     -12.198   7.059  73.626  1.00  0.00     0.000 HD 
HETATM   30  H2  UNL     1     -10.425   7.506  73.544  1.00  0.00     0.000 HD 
ENDBRANCH  23  25
ENDBRANCH  19  23
ENDBRANCH  18  19
ENDBRANCH  17  18
ENDBRANCH  16  17
ENDBRANCH  15  16
ENDBRANCH  12  15
ENDBRANCH   5  10
TORSDOF 8
ENDMDL
MODEL      157
REMARK 921   NORMALIZED FREE ENERGY PREDICTED BY IDOCK:   -4.42 KCAL/MOL
REMARK 922        TOTAL FREE ENERGY PREDICTED BY IDOCK:   -7.67 KCAL/MOL
REMARK 923 INTER-LIGAND FREE ENERGY PREDICTED BY IDOCK:   -6.12 KCAL/MOL
REMARK 924 INTRA-LIGAND FREE ENERGY PREDICTED BY IDOCK:   -1.55 KCAL/MOL
REMARK 927      BINDING AFFINITY PREDICTED BY RF-SCORE:    0.00 PKD
ROOT
HETATM    1  N   UNL     1     -10.231  11.990  68.149  1.00  0.00    -0.196 NA 
HETATM    2  C   UNL     1     -10.949  11.076  68.846  1.00  0.00    -0.227 C  
HETATM    3  H2  UNL     1     -10.180  12.048  67.132  1.00  0.00     0.000 HD 
HETATM    4  H1  UNL     1      -9.750  12.610  68.800  1.00  0.00     0.000 HD 
HETATM    5  N   UNL     1     -10.962  11.099  70.134  1.00  0.00    -0.454 NA 
HETATM    6  N   UNL     1     -11.588  10.251  67.980  1.00  0.00    -0.698 NA 
HETATM    7  H2  UNL     1     -11.537  10.309  66.963  1.00  0.00     0.000 HD 
HETATM    8  H1  UNL     1     -12.129   9.563  68.505  1.00  0.00     0.000 HD 
HETATM    9  H   UNL     1     -10.441  11.809  70.648  1.00  0.00     0.000 HD 
ENDROOT
BRANCH   5  10
HETATM   10  C   UNL     1     -11.683  10.156  70.793  1.00  0.00    -0.357 A  
HETATM   11  N   UNL     1     -11.537   8.840  70.774  1.00  0.00    -0.275 NA 
HETATM   12  C   UNL     1     -12.470   8.222  71.604  1.00  0.00    -0.320 A  
HETATM   13  S   UNL     1     -12.961  10.704  71.827  1.00  0.00    -0.418 SA 
HETATM   14  C   UNL     1     -13.339   9.091  72.233  1.00  0.00    -0.467 A  
BRANCH  12  15
HETATM   15  C   UNL     1     -12.455   6.731  71.727  1.00  0.00    -0.349 C  
BRANCH  15  16
HETATM   16  S   UNL     1     -10.926   6.169  72.554  1.00  0.00    -0.273 SA 
BRANCH  16  17
HETATM   17  C   UNL     1      -9.800   6.031  71.122  1.00  0.00    -0.179 C  
BRANCH  17  18
HETATM   18  C   UNL     1     -10.296   5.130  69.997  1.00  0.00    -0.347 C  
BRANCH  18  19
HETATM   19  C   UNL     1     -10.311   5.830  68.638  1.00  0.00    -0.221 C  
HETATM   20  H2  UNL     1     -12.227   6.617  68.983  1.00  0.00     0.000 HD 
HETATM   21  N   UNL     1     -11.441   6.552  68.336  1.00  0.00    -0.527 NA 
HETATM   22  H1  UNL     1     -11.451   7.019  67.429  1.00  0.00     0.000 HD 
BRANCH  19  23
HETATM   23  N   UNL     1      -9.249   5.677  67.917  1.00  0.00    -0.107 N  
HETATM   24  H   UNL     1      -8.883   4.739  67.756  1.00  0.00     0.000 HD 
BRANCH  23  25
HETATM   25  S   UNL     1      -8.497   6.946  67.270  1.00  0.00    -0.121 S  
HETATM   26  O   UNL     1      -7.127   6.598  66.979  1.00  0.00    -0.072 OA 
HETATM   27  O   UNL     1      -8.830   8.127  68.030  1.00  0.00    -0.131 OA 
HETATM   28  N   UNL     1      -9.227   7.153  65.776  1.00  0.00    -0.383 N  
HETATM   29  H1  UNL     1      -8.751   7.956  65.367  1.00  0.00     0.000 HD 
HETATM   30  H2  UNL     1      -9.980   6.599  65.367  1.00  0.00     0.000 HD 
ENDBRANCH  23  25
ENDBRANCH  19  23
ENDBRANCH  18  19
ENDBRANCH  17  18
ENDBRANCH  16  17
ENDBRANCH  15  16
ENDBRANCH  12  15
ENDBRANCH   5  10
TORSDOF 8
ENDMDL
MODEL      158
REMARK 921   NORMALIZED FREE ENERGY PREDICTED BY IDOCK:   -4.40 KCAL/MOL
REMARK 922        TOTAL FREE ENERGY PREDICTED BY IDOCK:   -7.63 KCAL/MOL
REMARK 923 INTER-LIGAND FREE ENERGY PREDICTED BY IDOCK:   -6.55 KCAL/MOL
REMARK 924 INTRA-LIGAND FREE ENERGY PREDICTED BY IDOCK:   -1.08 KCAL/MOL
REMARK 927      BINDING AFFINITY PREDICTED BY RF-SCORE:    0.00 PKD
ROOT
HETATM    1  N   UNL     1     -10.840  12.662  68.941  1.00  0.00    -0.339 NA 
HETATM    2  C   UNL     1     -11.305  11.436  69.283  1.00  0.00    -0.289 C  
HETATM    3  H2  UNL     1     -10.860  13.060  68.003  1.00  0.00     0.000 HD 
HETATM    4  H1  UNL     1     -10.469  13.125  69.770  1.00  0.00     0.000 HD 
HETATM    5  N   UNL     1     -11.250  11.032  70.505  1.00  0.00    -0.407 NA 
HETATM    6  N   UNL     1     -11.800  10.819  68.180  1.00  0.00    -0.782 NA 
HETATM    7  H2  UNL     1     -11.820  11.217  67.241  1.00  0.00     0.000 HD 
HETATM    8  H1  UNL     1     -12.150   9.896  68.437  1.00  0.00     0.000 HD 
HETATM    9  H   UNL     1     -10.865  11.631  71.235  1.00  0.00     0.000 HD 
ENDROOT
BRANCH   5  10
HETATM   10  C   UNL     1     -11.714   9.790  70.800  1.00  0.00    -0.328 A  
HETATM   11  N   UNL     1     -11.164   8.616  70.530  1.00  0.00    -0.253 NA 
HETATM   12  C   UNL     1     -11.948   7.574  71.018  1.00  0.00    -0.290 A  
HETATM   13  S   UNL     1     -13.209   9.681  71.667  1.00  0.00    -0.424 SA 
HETATM   14  C   UNL     1     -13.111   7.977  71.642  1.00  0.00    -0.329 A  
BRANCH  12  15
HETATM   15  C   UNL     1     -11.485   6.164  70.822  1.00  0.00    -0.251 C  
BRANCH  15  16
HETATM   16  S   UNL     1      -9.673   6.110  70.584  1.00  0.00    -0.175 SA 
BRANCH  16  17
HETATM   17  C   UNL     1      -9.579   5.534  68.853  1.00  0.00    -0.136 C  
BRANCH  17  18
HETATM   18  C   UNL     1     -10.909   5.505  68.109  1.00  0.00    -0.056 C  
BRANCH  18  19
HETATM   19  C   UNL     1     -10.784   5.943  66.650  1.00  0.00    -0.252 C  
HETATM   20  H2  UNL     1     -10.170   7.873  67.207  1.00  0.00     0.000 HD 
HETATM   21  N   UNL     1     -10.378   7.238  66.435  1.00  0.00    -0.474 NA 
HETATM   22  H1  UNL     1     -10.295   7.532  65.462  1.00  0.00     0.000 HD 
BRANCH  19  23
HETATM   23  N   UNL     1     -11.067   5.042  65.769  1.00  0.00    -0.836 N  
HETATM   24  H   UNL     1     -12.043   4.829  65.562  1.00  0.00     0.000 HD 
BRANCH  23  25
HETATM   25  S   UNL     1      -9.899   4.250  64.991  1.00  0.00    -0.172 S  
HETATM   26  O   UNL     1      -8.684   5.028  65.023  1.00  0.00    -0.145 OA 
HETATM   27  O   UNL     1     -10.429   3.729  63.753  1.00  0.00    -0.229 OA 
HETATM   28  N   UNL     1      -9.590   2.909  65.946  1.00  0.00    -0.380 N  
HETATM   29  H1  UNL     1      -8.851   2.408  65.454  1.00  0.00     0.000 HD 
HETATM   30  H2  UNL     1     -10.040   2.651  66.824  1.00  0.00     0.000 HD 
ENDBRANCH  23  25
ENDBRANCH  19  23
ENDBRANCH  18  19
ENDBRANCH  17  18
ENDBRANCH  16  17
ENDBRANCH  15  16
ENDBRANCH  12  15
ENDBRANCH   5  10
TORSDOF 8
ENDMDL
MODEL      159
REMARK 921   NORMALIZED FREE ENERGY PREDICTED BY IDOCK:   -4.40 KCAL/MOL
REMARK 922        TOTAL FREE ENERGY PREDICTED BY IDOCK:   -7.63 KCAL/MOL
REMARK 923 INTER-LIGAND FREE ENERGY PREDICTED BY IDOCK:   -6.49 KCAL/MOL
REMARK 924 INTRA-LIGAND FREE ENERGY PREDICTED BY IDOCK:   -1.14 KCAL/MOL
REMARK 927      BINDING AFFINITY PREDICTED BY RF-SCORE:    0.00 PKD
ROOT
HETATM    1  N   UNL     1      -9.727  20.611  66.121  1.00  0.00    -0.577 NA 
HETATM    2  C   UNL     1      -9.683  19.306  66.485  1.00  0.00    -0.367 C  
HETATM    3  H2  UNL     1     -10.442  21.279  66.406  1.00  0.00     0.000 HD 
HETATM    4  H1  UNL     1      -8.931  20.820  65.519  1.00  0.00     0.000 HD 
HETATM    5  N   UNL     1      -8.724  18.546  66.085  1.00  0.00    -0.494 NA 
HETATM    6  N   UNL     1     -10.742  19.028  67.287  1.00  0.00    -0.472 NA 
HETATM    7  H2  UNL     1     -11.457  19.697  67.572  1.00  0.00     0.000 HD 
HETATM    8  H1  UNL     1     -10.709  18.046  67.562  1.00  0.00     0.000 HD 
HETATM    9  H   UNL     1      -7.977  18.916  65.497  1.00  0.00     0.000 HD 
ENDROOT
BRANCH   5  10
HETATM   10  C   UNL     1      -8.727  17.242  66.462  1.00  0.00    -0.262 A  
HETATM   11  N   UNL     1      -9.699  16.349  66.343  1.00  0.00    -0.269 NA 
HETATM   12  C   UNL     1      -9.301  15.110  66.837  1.00  0.00    -0.234 A  
HETATM   13  S   UNL     1      -7.280  16.612  67.176  1.00  0.00    -0.206 SA 
HETATM   14  C   UNL     1      -8.020  15.084  67.352  1.00  0.00    -0.194 A  
BRANCH  12  15
HETATM   15  C   UNL     1     -10.261  13.963  66.779  1.00  0.00    -0.268 C  
BRANCH  15  16
HETATM   16  S   UNL     1     -11.824  14.390  67.623  1.00  0.00    -0.352 SA 
BRANCH  16  17
HETATM   17  C   UNL     1     -11.471  13.784  69.311  1.00  0.00    -0.293 C  
BRANCH  17  18
HETATM   18  C   UNL     1     -12.146  12.467  69.677  1.00  0.00    -0.272 C  
BRANCH  18  19
HETATM   19  C   UNL     1     -11.356  11.244  69.214  1.00  0.00    -0.287 C  
HETATM   20  H2  UNL     1     -13.004  10.490  68.153  1.00  0.00     0.000 HD 
HETATM   21  N   UNL     1     -12.030  10.347  68.419  1.00  0.00    -0.749 NA 
HETATM   22  H1  UNL     1     -11.502   9.531  68.110  1.00  0.00     0.000 HD 
BRANCH  19  23
HETATM   23  N   UNL     1     -10.128  11.187  69.612  1.00  0.00    -0.401 N  
HETATM   24  H   UNL     1      -9.714  11.992  70.083  1.00  0.00     0.000 HD 
BRANCH  23  25
HETATM   25  S   UNL     1      -9.241   9.863  69.376  1.00  0.00    -0.226 S  
HETATM   26  O   UNL     1      -8.952   9.721  67.968  1.00  0.00    -0.119 OA 
HETATM   27  O   UNL     1      -9.805   8.777  70.142  1.00  0.00    -0.169 OA 
HETATM   28  N   UNL     1      -7.769  10.205  70.097  1.00  0.00    -0.281 N  
HETATM   29  H1  UNL     1      -7.208   9.367  69.947  1.00  0.00     0.000 HD 
HETATM   30  H2  UNL     1      -7.494  11.062  70.579  1.00  0.00     0.000 HD 
ENDBRANCH  23  25
ENDBRANCH  19  23
ENDBRANCH  18  19
ENDBRANCH  17  18
ENDBRANCH  16  17
ENDBRANCH  15  16
ENDBRANCH  12  15
ENDBRANCH   5  10
TORSDOF 8
ENDMDL
MODEL      160
REMARK 921   NORMALIZED FREE ENERGY PREDICTED BY IDOCK:   -4.39 KCAL/MOL
REMARK 922        TOTAL FREE ENERGY PREDICTED BY IDOCK:   -7.62 KCAL/MOL
REMARK 923 INTER-LIGAND FREE ENERGY PREDICTED BY IDOCK:   -6.75 KCAL/MOL
REMARK 924 INTRA-LIGAND FREE ENERGY PREDICTED BY IDOCK:   -0.87 KCAL/MOL
REMARK 927      BINDING AFFINITY PREDICTED BY RF-SCORE:    0.00 PKD
ROOT
HETATM    1  N   UNL     1     -10.899   8.089  67.792  1.00  0.00    -0.495 NA 
HETATM    2  C   UNL     1     -10.674   9.425  67.744  1.00  0.00    -0.229 C  
HETATM    3  H2  UNL     1     -10.180   7.368  67.738  1.00  0.00     0.000 HD 
HETATM    4  H1  UNL     1     -11.899   7.919  67.892  1.00  0.00     0.000 HD 
HETATM    5  N   UNL     1     -11.652  10.257  67.840  1.00  0.00    -0.670 NA 
HETATM    6  N   UNL     1      -9.343   9.652  67.611  1.00  0.00    -0.127 NA 
HETATM    7  H2  UNL     1      -8.624   8.930  67.556  1.00  0.00     0.000 HD 
HETATM    8  H1  UNL     1      -9.173  10.657  67.575  1.00  0.00     0.000 HD 
HETATM    9  H   UNL     1     -12.609   9.926  67.963  1.00  0.00     0.000 HD 
ENDROOT
BRANCH   5  10
HETATM   10  C   UNL     1     -11.383  11.587  67.773  1.00  0.00    -0.296 A  
HETATM   11  N   UNL     1     -10.881  12.377  68.710  1.00  0.00    -0.233 NA 
HETATM   12  C   UNL     1     -10.738  13.679  68.239  1.00  0.00    -0.254 A  
HETATM   13  S   UNL     1     -11.698  12.392  66.272  1.00  0.00    -0.364 SA 
HETATM   14  C   UNL     1     -11.160  13.867  66.939  1.00  0.00    -0.301 A  
BRANCH  12  15
HETATM   15  C   UNL     1     -10.172  14.722  69.152  1.00  0.00    -0.220 C  
BRANCH  15  16
HETATM   16  S   UNL     1     -11.107  16.285  69.002  1.00  0.00    -0.320 SA 
BRANCH  16  17
HETATM   17  C   UNL     1      -9.836  17.368  68.261  1.00  0.00    -0.310 C  
BRANCH  17  18
HETATM   18  C   UNL     1     -10.376  18.469  67.356  1.00  0.00    -0.432 C  
BRANCH  18  19
HETATM   19  C   UNL     1      -9.525  19.738  67.390  1.00  0.00    -0.343 C  
HETATM   20  H2  UNL     1     -10.536  20.547  65.736  1.00  0.00     0.000 HD 
HETATM   21  N   UNL     1      -9.803  20.684  66.432  1.00  0.00    -0.584 NA 
HETATM   22  H1  UNL     1      -9.235  21.531  66.455  1.00  0.00     0.000 HD 
BRANCH  19  23
HETATM   23  N   UNL     1      -8.638  19.792  68.327  1.00  0.00    -0.306 N  
HETATM   24  H   UNL     1      -8.910  19.591  69.290  1.00  0.00     0.000 HD 
BRANCH  23  25
HETATM   25  S   UNL     1      -7.107  20.172  67.997  1.00  0.00    -0.268 S  
HETATM   26  O   UNL     1      -6.322  20.108  69.207  1.00  0.00    -0.310 OA 
HETATM   27  O   UNL     1      -7.086  21.338  67.146  1.00  0.00    -0.491 OA 
HETATM   28  N   UNL     1      -6.554  18.911  67.044  1.00  0.00    -0.195 N  
HETATM   29  H1  UNL     1      -5.586  19.152  66.835  1.00  0.00     0.000 HD 
HETATM   30  H2  UNL     1      -7.071  18.085  66.740  1.00  0.00     0.000 HD 
ENDBRANCH  23  25
ENDBRANCH  19  23
ENDBRANCH  18  19
ENDBRANCH  17  18
ENDBRANCH  16  17
ENDBRANCH  15  16
ENDBRANCH  12  15
ENDBRANCH   5  10
TORSDOF 8
ENDMDL
MODEL      161
REMARK 921   NORMALIZED FREE ENERGY PREDICTED BY IDOCK:   -4.39 KCAL/MOL
REMARK 922        TOTAL FREE ENERGY PREDICTED BY IDOCK:   -7.62 KCAL/MOL
REMARK 923 INTER-LIGAND FREE ENERGY PREDICTED BY IDOCK:   -6.56 KCAL/MOL
REMARK 924 INTRA-LIGAND FREE ENERGY PREDICTED BY IDOCK:   -1.05 KCAL/MOL
REMARK 927      BINDING AFFINITY PREDICTED BY RF-SCORE:    0.00 PKD
ROOT
HETATM    1  N   UNL     1      -8.822  20.124  65.883  1.00  0.00    -0.538 NA 
HETATM    2  C   UNL     1      -8.964  18.779  65.962  1.00  0.00     0.013 C  
HETATM    3  H2  UNL     1      -7.945  20.616  65.712  1.00  0.00     0.000 HD 
HETATM    4  H1  UNL     1      -9.729  20.568  66.020  1.00  0.00     0.000 HD 
HETATM    5  N   UNL     1     -10.123  18.254  66.165  1.00  0.00    -0.505 NA 
HETATM    6  N   UNL     1      -7.756  18.188  65.780  1.00  0.00    -0.538 NA 
HETATM    7  H2  UNL     1      -6.879  18.679  65.609  1.00  0.00     0.000 HD 
HETATM    8  H1  UNL     1      -7.863  17.175  65.839  1.00  0.00     0.000 HD 
HETATM    9  H   UNL     1     -10.952  18.840  66.258  1.00  0.00     0.000 HD 
ENDROOT
BRANCH   5  10
HETATM   10  C   UNL     1     -10.217  16.902  66.252  1.00  0.00    -0.329 A  
HETATM   11  N   UNL     1     -10.336  16.017  65.274  1.00  0.00    -0.533 NA 
HETATM   12  C   UNL     1     -10.384  14.720  65.778  1.00  0.00    -0.340 A  
HETATM   13  S   UNL     1     -10.151  16.195  67.832  1.00  0.00    -0.249 SA 
HETATM   14  C   UNL     1     -10.322  14.638  67.154  1.00  0.00    -0.265 A  
BRANCH  12  15
HETATM   15  C   UNL     1     -10.504  13.574  64.822  1.00  0.00    -0.413 C  
BRANCH  15  16
HETATM   16  S   UNL     1     -11.564  12.261  65.523  1.00  0.00    -0.354 SA 
BRANCH  16  17
HETATM   17  C   UNL     1     -10.312  10.986  65.906  1.00  0.00    -0.257 C  
BRANCH  17  18
HETATM   18  C   UNL     1      -9.896  10.910  67.370  1.00  0.00    -0.199 C  
BRANCH  18  19
HETATM   19  C   UNL     1     -10.432   9.665  68.077  1.00  0.00    -0.229 C  
HETATM   20  H2  UNL     1     -10.113  10.515  69.971  1.00  0.00     0.000 HD 
HETATM   21  N   UNL     1     -10.444   9.702  69.451  1.00  0.00    -0.209 NA 
HETATM   22  H1  UNL     1     -10.801   8.871  69.923  1.00  0.00     0.000 HD 
BRANCH  19  23
HETATM   23  N   UNL     1     -10.828   8.709  67.304  1.00  0.00    -0.434 N  
HETATM   24  H   UNL     1     -11.380   8.930  66.474  1.00  0.00     0.000 HD 
BRANCH  23  25
HETATM   25  S   UNL     1     -10.463   7.174  67.630  1.00  0.00    -0.255 S  
HETATM   26  O   UNL     1      -9.155   7.109  68.237  1.00  0.00    -0.135 OA 
HETATM   27  O   UNL     1     -10.808   6.357  66.492  1.00  0.00    -0.215 OA 
HETATM   28  N   UNL     1     -11.534   6.734  68.841  1.00  0.00    -0.578 N  
HETATM   29  H1  UNL     1     -11.303   5.763  69.047  1.00  0.00     0.000 HD 
HETATM   30  H2  UNL     1     -12.257   7.309  69.274  1.00  0.00     0.000 HD 
ENDBRANCH  23  25
ENDBRANCH  19  23
ENDBRANCH  18  19
ENDBRANCH  17  18
ENDBRANCH  16  17
ENDBRANCH  15  16
ENDBRANCH  12  15
ENDBRANCH   5  10
TORSDOF 8
ENDMDL
MODEL      162
REMARK 921   NORMALIZED FREE ENERGY PREDICTED BY IDOCK:   -4.38 KCAL/MOL
REMARK 922        TOTAL FREE ENERGY PREDICTED BY IDOCK:   -7.61 KCAL/MOL
REMARK 923 INTER-LIGAND FREE ENERGY PREDICTED BY IDOCK:   -6.91 KCAL/MOL
REMARK 924 INTRA-LIGAND FREE ENERGY PREDICTED BY IDOCK:   -0.70 KCAL/MOL
REMARK 927      BINDING AFFINITY PREDICTED BY RF-SCORE:    0.00 PKD
ROOT
HETATM    1  N   UNL     1      -6.532  20.824  68.207  1.00  0.00    -0.293 NA 
HETATM    2  C   UNL     1      -7.223  19.669  68.046  1.00  0.00    -0.286 C  
HETATM    3  H2  UNL     1      -5.520  20.922  68.127  1.00  0.00     0.000 HD 
HETATM    4  H1  UNL     1      -7.183  21.579  68.421  1.00  0.00     0.000 HD 
HETATM    5  N   UNL     1      -8.507  19.653  68.150  1.00  0.00    -0.320 NA 
HETATM    6  N   UNL     1      -6.357  18.663  67.762  1.00  0.00    -0.201 NA 
HETATM    7  H2  UNL     1      -5.345  18.762  67.682  1.00  0.00     0.000 HD 
HETATM    8  H1  UNL     1      -6.876  17.794  67.640  1.00  0.00     0.000 HD 
HETATM    9  H   UNL     1      -9.024  20.510  68.346  1.00  0.00     0.000 HD 
ENDROOT
BRANCH   5  10
HETATM   10  C   UNL     1      -9.157  18.471  67.995  1.00  0.00    -0.301 A  
HETATM   11  N   UNL     1      -9.217  17.445  68.829  1.00  0.00    -0.267 NA 
HETATM   12  C   UNL     1     -10.005  16.423  68.306  1.00  0.00    -0.243 A  
HETATM   13  S   UNL     1     -10.061  18.242  66.535  1.00  0.00    -0.402 SA 
HETATM   14  C   UNL     1     -10.520  16.682  67.052  1.00  0.00    -0.283 A  
BRANCH  12  15
HETATM   15  C   UNL     1     -10.206  15.177  69.112  1.00  0.00    -0.249 C  
BRANCH  15  16
HETATM   16  S   UNL     1     -11.844  14.444  68.765  1.00  0.00    -0.309 SA 
BRANCH  16  17
HETATM   17  C   UNL     1     -11.465  12.668  68.958  1.00  0.00    -0.303 C  
BRANCH  17  18
HETATM   18  C   UNL     1     -12.027  12.021  70.218  1.00  0.00    -0.398 C  
BRANCH  18  19
HETATM   19  C   UNL     1     -11.640  10.549  70.355  1.00  0.00    -0.342 C  
HETATM   20  H2  UNL     1      -9.592  11.007  70.293  1.00  0.00     0.000 HD 
HETATM   21  N   UNL     1     -10.294  10.271  70.370  1.00  0.00    -0.422 NA 
HETATM   22  H1  UNL     1     -10.035   9.288  70.461  1.00  0.00     0.000 HD 
BRANCH  19  23
HETATM   23  N   UNL     1     -12.625   9.718  70.453  1.00  0.00    -0.504 N  
HETATM   24  H   UNL     1     -13.323   9.676  69.711  1.00  0.00     0.000 HD 
BRANCH  23  25
HETATM   25  S   UNL     1     -12.764   8.746  71.731  1.00  0.00    -0.381 S  
HETATM   26  O   UNL     1     -13.877   9.175  72.543  1.00  0.00    -0.475 OA 
HETATM   27  O   UNL     1     -11.455   8.528  72.300  1.00  0.00    -0.355 OA 
HETATM   28  N   UNL     1     -13.227   7.269  71.090  1.00  0.00    -0.574 N  
HETATM   29  H1  UNL     1     -13.315   6.655  71.899  1.00  0.00     0.000 HD 
HETATM   30  H2  UNL     1     -13.385   7.037  70.109  1.00  0.00     0.000 HD 
ENDBRANCH  23  25
ENDBRANCH  19  23
ENDBRANCH  18  19
ENDBRANCH  17  18
ENDBRANCH  16  17
ENDBRANCH  15  16
ENDBRANCH  12  15
ENDBRANCH   5  10
TORSDOF 8
ENDMDL
MODEL      163
REMARK 921   NORMALIZED FREE ENERGY PREDICTED BY IDOCK:   -4.36 KCAL/MOL
REMARK 922        TOTAL FREE ENERGY PREDICTED BY IDOCK:   -7.57 KCAL/MOL
REMARK 923 INTER-LIGAND FREE ENERGY PREDICTED BY IDOCK:   -6.73 KCAL/MOL
REMARK 924 INTRA-LIGAND FREE ENERGY PREDICTED BY IDOCK:   -0.85 KCAL/MOL
REMARK 927      BINDING AFFINITY PREDICTED BY RF-SCORE:    0.00 PKD
ROOT
HETATM    1  N   UNL     1     -11.497  16.409  63.757  1.00  0.00    -1.470 NA 
HETATM    2  C   UNL     1     -11.627  15.311  64.540  1.00  0.00    -0.312 C  
HETATM    3  H2  UNL     1     -11.904  16.524  62.829  1.00  0.00     0.000 HD 
HETATM    4  H1  UNL     1     -10.929  17.104  64.242  1.00  0.00     0.000 HD 
HETATM    5  N   UNL     1     -11.087  15.272  65.709  1.00  0.00    -0.328 NA 
HETATM    6  N   UNL     1     -12.382  14.386  63.895  1.00  0.00    -1.023 NA 
HETATM    7  H2  UNL     1     -12.789  14.501  62.967  1.00  0.00     0.000 HD 
HETATM    8  H1  UNL     1     -12.480  13.559  64.484  1.00  0.00     0.000 HD 
HETATM    9  H   UNL     1     -10.562  16.070  66.067  1.00  0.00     0.000 HD 
ENDROOT
BRANCH   5  10
HETATM   10  C   UNL     1     -11.230  14.146  66.454  1.00  0.00    -0.328 A  
HETATM   11  N   UNL     1     -10.994  12.889  66.107  1.00  0.00    -0.277 NA 
HETATM   12  C   UNL     1     -11.249  12.024  67.167  1.00  0.00    -0.316 A  
HETATM   13  S   UNL     1     -11.768  14.332  68.089  1.00  0.00    -0.351 SA 
HETATM   14  C   UNL     1     -11.703  12.642  68.315  1.00  0.00    -0.342 A  
BRANCH  12  15
HETATM   15  C   UNL     1     -11.027  10.556  66.974  1.00  0.00    -0.180 C  
BRANCH  15  16
HETATM   16  S   UNL     1     -10.060  10.246  65.455  1.00  0.00    -0.242 SA 
BRANCH  16  17
HETATM   17  C   UNL     1      -8.727   9.185  66.115  1.00  0.00    -0.148 C  
BRANCH  17  18
HETATM   18  C   UNL     1      -8.886   7.696  65.826  1.00  0.00    -0.134 C  
BRANCH  18  19
HETATM   19  C   UNL     1      -9.571   6.939  66.963  1.00  0.00    -0.158 C  
HETATM   20  H2  UNL     1     -11.478   7.363  66.192  1.00  0.00     0.000 HD 
HETATM   21  N   UNL     1     -10.945   6.907  66.932  1.00  0.00    -0.578 NA 
HETATM   22  H1  UNL     1     -11.403   6.402  67.691  1.00  0.00     0.000 HD 
BRANCH  19  23
HETATM   23  N   UNL     1      -8.782   6.399  67.832  1.00  0.00    -0.116 N  
HETATM   24  H   UNL     1      -8.348   6.982  68.547  1.00  0.00     0.000 HD 
BRANCH  23  25
HETATM   25  S   UNL     1      -8.476   4.817  67.801  1.00  0.00    -0.103 S  
HETATM   26  O   UNL     1      -9.692   4.096  67.511  1.00  0.00    -0.179 OA 
HETATM   27  O   UNL     1      -7.649   4.477  68.934  1.00  0.00    -0.059 OA 
HETATM   28  N   UNL     1      -7.503   4.602  66.455  1.00  0.00    -0.081 N  
HETATM   29  H1  UNL     1      -7.309   3.601  66.435  1.00  0.00     0.000 HD 
HETATM   30  H2  UNL     1      -7.177   5.313  65.800  1.00  0.00     0.000 HD 
ENDBRANCH  23  25
ENDBRANCH  19  23
ENDBRANCH  18  19
ENDBRANCH  17  18
ENDBRANCH  16  17
ENDBRANCH  15  16
ENDBRANCH  12  15
ENDBRANCH   5  10
TORSDOF 8
ENDMDL
MODEL      164
REMARK 921   NORMALIZED FREE ENERGY PREDICTED BY IDOCK:   -4.35 KCAL/MOL
REMARK 922        TOTAL FREE ENERGY PREDICTED BY IDOCK:   -7.56 KCAL/MOL
REMARK 923 INTER-LIGAND FREE ENERGY PREDICTED BY IDOCK:   -6.60 KCAL/MOL
REMARK 924 INTRA-LIGAND FREE ENERGY PREDICTED BY IDOCK:   -0.96 KCAL/MOL
REMARK 927      BINDING AFFINITY PREDICTED BY RF-SCORE:    0.00 PKD
ROOT
HETATM    1  N   UNL     1      -6.427  20.026  69.631  1.00  0.00    -0.351 NA 
HETATM    2  C   UNL     1      -7.077  19.216  68.760  1.00  0.00    -0.331 C  
HETATM    3  H2  UNL     1      -5.415  20.124  69.703  1.00  0.00     0.000 HD 
HETATM    4  H1  UNL     1      -7.109  20.523  70.203  1.00  0.00     0.000 HD 
HETATM    5  N   UNL     1      -8.364  19.179  68.736  1.00  0.00    -0.361 NA 
HETATM    6  N   UNL     1      -6.169  18.555  67.999  1.00  0.00    -0.191 NA 
HETATM    7  H2  UNL     1      -5.157  18.652  68.070  1.00  0.00     0.000 HD 
HETATM    8  H1  UNL     1      -6.658  17.946  67.343  1.00  0.00     0.000 HD 
HETATM    9  H   UNL     1      -8.914  19.764  69.365  1.00  0.00     0.000 HD 
ENDROOT
BRANCH   5  10
HETATM   10  C   UNL     1      -8.974  18.343  67.857  1.00  0.00    -0.283 A  
HETATM   11  N   UNL     1      -8.906  17.022  67.789  1.00  0.00    -0.220 NA 
HETATM   12  C   UNL     1      -9.695  16.535  66.750  1.00  0.00    -0.258 A  
HETATM   13  S   UNL     1     -10.008  19.054  66.663  1.00  0.00    -0.403 SA 
HETATM   14  C   UNL     1     -10.344  17.509  66.019  1.00  0.00    -0.306 A  
BRANCH  12  15
HETATM   15  C   UNL     1      -9.760  15.057  66.520  1.00  0.00    -0.266 C  
BRANCH  15  16
HETATM   16  S   UNL     1     -11.390  14.399  67.020  1.00  0.00    -0.359 SA 
BRANCH  16  17
HETATM   17  C   UNL     1     -12.110  14.009  65.387  1.00  0.00    -0.401 C  
BRANCH  17  18
HETATM   18  C   UNL     1     -12.097  12.531  65.013  1.00  0.00    -0.504 C  
BRANCH  18  19
HETATM   19  C   UNL     1     -10.724  12.047  64.548  1.00  0.00    -0.312 C  
HETATM   20  H2  UNL     1     -10.618  13.538  63.073  1.00  0.00     0.000 HD 
HETATM   21  N   UNL     1     -10.152  12.742  63.510  1.00  0.00    -0.680 NA 
HETATM   22  H1  UNL     1      -9.236  12.419  63.198  1.00  0.00     0.000 HD 
BRANCH  19  23
HETATM   23  N   UNL     1     -10.240  11.036  65.190  1.00  0.00    -0.275 N  
HETATM   24  H   UNL     1     -10.586  10.821  66.125  1.00  0.00     0.000 HD 
BRANCH  23  25
HETATM   25  S   UNL     1      -9.096  10.109  64.534  1.00  0.00    -0.263 S  
HETATM   26  O   UNL     1      -7.798  10.557  64.980  1.00  0.00    -0.134 OA 
HETATM   27  O   UNL     1      -9.389   9.923  63.133  1.00  0.00    -0.275 OA 
HETATM   28  N   UNL     1      -9.312   8.607  65.242  1.00  0.00    -0.428 N  
HETATM   29  H1  UNL     1      -8.589   8.020  64.827  1.00  0.00     0.000 HD 
HETATM   30  H2  UNL     1     -10.012   8.337  65.934  1.00  0.00     0.000 HD 
ENDBRANCH  23  25
ENDBRANCH  19  23
ENDBRANCH  18  19
ENDBRANCH  17  18
ENDBRANCH  16  17
ENDBRANCH  15  16
ENDBRANCH  12  15
ENDBRANCH   5  10
TORSDOF 8
ENDMDL
MODEL      165
REMARK 921   NORMALIZED FREE ENERGY PREDICTED BY IDOCK:   -4.34 KCAL/MOL
REMARK 922        TOTAL FREE ENERGY PREDICTED BY IDOCK:   -7.54 KCAL/MOL
REMARK 923 INTER-LIGAND FREE ENERGY PREDICTED BY IDOCK:   -6.54 KCAL/MOL
REMARK 924 INTRA-LIGAND FREE ENERGY PREDICTED BY IDOCK:   -1.00 KCAL/MOL
REMARK 927      BINDING AFFINITY PREDICTED BY RF-SCORE:    0.00 PKD
ROOT
HETATM    1  N   UNL     1     -11.328   2.333  63.595  1.00  0.00    -0.592 NA 
HETATM    2  C   UNL     1     -10.633   3.420  64.008  1.00  0.00    -0.207 C  
HETATM    3  H2  UNL     1     -12.313   2.153  63.791  1.00  0.00     0.000 HD 
HETATM    4  H1  UNL     1     -10.714   1.723  63.057  1.00  0.00     0.000 HD 
HETATM    5  N   UNL     1      -9.392   3.563  63.692  1.00  0.00    -0.113 NA 
HETATM    6  N   UNL     1     -11.451   4.231  64.725  1.00  0.00    -0.992 NA 
HETATM    7  H2  UNL     1     -12.435   4.051  64.921  1.00  0.00     0.000 HD 
HETATM    8  H1  UNL     1     -10.927   5.050  65.036  1.00  0.00     0.000 HD 
HETATM    9  H   UNL     1      -8.917   2.866  63.117  1.00  0.00     0.000 HD 
ENDROOT
BRANCH   5  10
HETATM   10  C   UNL     1      -8.730   4.660  64.139  1.00  0.00    -0.145 A  
HETATM   11  N   UNL     1      -8.771   5.218  65.340  1.00  0.00    -0.148 NA 
HETATM   12  C   UNL     1      -7.928   6.325  65.404  1.00  0.00    -0.118 A  
HETATM   13  S   UNL     1      -7.658   5.454  63.034  1.00  0.00    -0.075 SA 
HETATM   14  C   UNL     1      -7.266   6.609  64.226  1.00  0.00    -0.070 A  
BRANCH  12  15
HETATM   15  C   UNL     1      -7.826   7.085  66.689  1.00  0.00    -0.106 C  
BRANCH  15  16
HETATM   16  S   UNL     1      -9.444   7.808  67.139  1.00  0.00    -0.166 SA 
BRANCH  16  17
HETATM   17  C   UNL     1      -9.333   9.428  66.302  1.00  0.00    -0.198 C  
BRANCH  17  18
HETATM   18  C   UNL     1     -10.336  10.471  66.781  1.00  0.00    -0.301 C  
BRANCH  18  19
HETATM   19  C   UNL     1     -10.477  11.648  65.816  1.00  0.00    -0.263 C  
HETATM   20  H2  UNL     1      -8.766  11.068  64.745  1.00  0.00     0.000 HD 
HETATM   21  N   UNL     1      -9.525  11.744  64.829  1.00  0.00    -0.428 NA 
HETATM   22  H1  UNL     1      -9.619  12.530  64.185  1.00  0.00     0.000 HD 
BRANCH  19  23
HETATM   23  N   UNL     1     -11.487  12.425  66.025  1.00  0.00    -0.363 N  
HETATM   24  H   UNL     1     -11.879  12.498  66.964  1.00  0.00     0.000 HD 
BRANCH  23  25
HETATM   25  S   UNL     1     -12.136  13.282  64.825  1.00  0.00    -0.433 S  
HETATM   26  O   UNL     1     -13.309  13.973  65.304  1.00  0.00    -0.741 OA 
HETATM   27  O   UNL     1     -12.174  12.466  63.634  1.00  0.00    -0.479 OA 
HETATM   28  N   UNL     1     -11.013  14.484  64.509  1.00  0.00    -0.608 N  
HETATM   29  H1  UNL     1     -11.424  15.026  63.749  1.00  0.00     0.000 HD 
HETATM   30  H2  UNL     1     -10.118  14.640  64.973  1.00  0.00     0.000 HD 
ENDBRANCH  23  25
ENDBRANCH  19  23
ENDBRANCH  18  19
ENDBRANCH  17  18
ENDBRANCH  16  17
ENDBRANCH  15  16
ENDBRANCH  12  15
ENDBRANCH   5  10
TORSDOF 8
ENDMDL
MODEL      166
REMARK 921   NORMALIZED FREE ENERGY PREDICTED BY IDOCK:   -4.33 KCAL/MOL
REMARK 922        TOTAL FREE ENERGY PREDICTED BY IDOCK:   -7.54 KCAL/MOL
REMARK 923 INTER-LIGAND FREE ENERGY PREDICTED BY IDOCK:   -6.47 KCAL/MOL
REMARK 924 INTRA-LIGAND FREE ENERGY PREDICTED BY IDOCK:   -1.07 KCAL/MOL
REMARK 927      BINDING AFFINITY PREDICTED BY RF-SCORE:    0.00 PKD
ROOT
HETATM    1  N   UNL     1     -12.652  13.593  62.904  1.00  0.00    -0.766 NA 
HETATM    2  C   UNL     1     -11.781  13.179  63.856  1.00  0.00    -0.456 C  
HETATM    3  H2  UNL     1     -12.657  13.281  61.933  1.00  0.00     0.000 HD 
HETATM    4  H1  UNL     1     -13.303  14.263  63.311  1.00  0.00     0.000 HD 
HETATM    5  N   UNL     1     -11.871  13.622  65.063  1.00  0.00    -0.344 NA 
HETATM    6  N   UNL     1     -10.915  12.286  63.315  1.00  0.00    -0.655 NA 
HETATM    7  H2  UNL     1     -10.919  11.975  62.344  1.00  0.00     0.000 HD 
HETATM    8  H1  UNL     1     -10.259  11.975  64.032  1.00  0.00     0.000 HD 
HETATM    9  H   UNL     1     -12.605  14.281  65.323  1.00  0.00     0.000 HD 
ENDROOT
BRANCH   5  10
HETATM   10  C   UNL     1     -10.969  13.191  65.981  1.00  0.00    -0.279 A  
HETATM   11  N   UNL     1      -9.663  13.408  66.022  1.00  0.00    -0.253 NA 
HETATM   12  C   UNL     1      -9.092  12.808  67.141  1.00  0.00    -0.219 A  
HETATM   13  S   UNL     1     -11.564  12.250  67.308  1.00  0.00    -0.338 SA 
HETATM   14  C   UNL     1      -9.983  12.114  67.935  1.00  0.00    -0.200 A  
BRANCH  12  15
HETATM   15  C   UNL     1      -7.620  12.953  67.371  1.00  0.00    -0.148 C  
BRANCH  15  16
HETATM   16  S   UNL     1      -7.294  14.135  68.726  1.00  0.00    -0.126 SA 
BRANCH  16  17
HETATM   17  C   UNL     1      -6.840  15.625  67.771  1.00  0.00    -0.159 C  
BRANCH  17  18
HETATM   18  C   UNL     1      -8.015  16.392  67.176  1.00  0.00    -0.215 C  
BRANCH  18  19
HETATM   19  C   UNL     1      -8.755  17.242  68.208  1.00  0.00    -0.251 C  
HETATM   20  H2  UNL     1      -9.739  15.561  68.993  1.00  0.00     0.000 HD 
HETATM   21  N   UNL     1      -9.608  16.571  69.052  1.00  0.00    -0.261 NA 
HETATM   22  H1  UNL     1     -10.102  17.138  69.741  1.00  0.00     0.000 HD 
BRANCH  19  23
HETATM   23  N   UNL     1      -8.493  18.507  68.184  1.00  0.00    -0.288 N  
HETATM   24  H   UNL     1      -7.526  18.821  68.267  1.00  0.00     0.000 HD 
BRANCH  23  25
HETATM   25  S   UNL     1      -9.671  19.595  68.027  1.00  0.00    -0.419 S  
HETATM   26  O   UNL     1      -9.177  20.738  67.297  1.00  0.00    -0.364 OA 
HETATM   27  O   UNL     1     -10.345  19.744  69.294  1.00  0.00    -0.294 OA 
HETATM   28  N   UNL     1     -10.784  18.867  67.008  1.00  0.00    -0.434 N  
HETATM   29  H1  UNL     1     -11.529  19.556  66.909  1.00  0.00     0.000 HD 
HETATM   30  H2  UNL     1     -10.729  17.942  66.583  1.00  0.00     0.000 HD 
ENDBRANCH  23  25
ENDBRANCH  19  23
ENDBRANCH  18  19
ENDBRANCH  17  18
ENDBRANCH  16  17
ENDBRANCH  15  16
ENDBRANCH  12  15
ENDBRANCH   5  10
TORSDOF 8
ENDMDL
MODEL      167
REMARK 921   NORMALIZED FREE ENERGY PREDICTED BY IDOCK:   -4.33 KCAL/MOL
REMARK 922        TOTAL FREE ENERGY PREDICTED BY IDOCK:   -7.53 KCAL/MOL
REMARK 923 INTER-LIGAND FREE ENERGY PREDICTED BY IDOCK:   -6.63 KCAL/MOL
REMARK 924 INTRA-LIGAND FREE ENERGY PREDICTED BY IDOCK:   -0.90 KCAL/MOL
REMARK 927      BINDING AFFINITY PREDICTED BY RF-SCORE:    0.00 PKD
ROOT
HETATM    1  N   UNL     1     -13.549  16.275  73.700  1.00  0.00    -0.853 NA 
HETATM    2  C   UNL     1     -12.945  15.602  72.690  1.00  0.00    -0.460 C  
HETATM    3  H2  UNL     1     -13.201  17.132  74.128  1.00  0.00     0.000 HD 
HETATM    4  H1  UNL     1     -14.406  15.790  73.963  1.00  0.00     0.000 HD 
HETATM    5  N   UNL     1     -13.477  14.534  72.205  1.00  0.00    -0.364 NA 
HETATM    6  N   UNL     1     -11.804  16.247  72.340  1.00  0.00    -0.533 NA 
HETATM    7  H2  UNL     1     -11.456  17.105  72.769  1.00  0.00     0.000 HD 
HETATM    8  H1  UNL     1     -11.349  15.741  71.580  1.00  0.00     0.000 HD 
HETATM    9  H   UNL     1     -14.365  14.184  72.564  1.00  0.00     0.000 HD 
ENDROOT
BRANCH   5  10
HETATM   10  C   UNL     1     -12.830  13.884  71.203  1.00  0.00    -0.351 A  
HETATM   11  N   UNL     1     -12.242  14.393  70.131  1.00  0.00    -0.323 NA 
HETATM   12  C   UNL     1     -11.673  13.390  69.351  1.00  0.00    -0.325 A  
HETATM   13  S   UNL     1     -12.713  12.160  71.314  1.00  0.00    -0.160 SA 
HETATM   14  C   UNL     1     -11.860  12.112  69.837  1.00  0.00    -0.319 A  
BRANCH  12  15
HETATM   15  C   UNL     1     -10.948  13.770  68.098  1.00  0.00    -0.246 C  
BRANCH  15  16
HETATM   16  S   UNL     1     -11.949  13.360  66.625  1.00  0.00    -0.385 SA 
BRANCH  16  17
HETATM   17  C   UNL     1     -10.876  12.119  65.823  1.00  0.00    -0.281 C  
BRANCH  17  18
HETATM   18  C   UNL     1     -10.761  10.791  66.563  1.00  0.00    -0.245 C  
BRANCH  18  19
HETATM   19  C   UNL     1     -10.032   9.720  65.752  1.00  0.00    -0.279 C  
HETATM   20  H2  UNL     1      -9.905   8.445  67.416  1.00  0.00     0.000 HD 
HETATM   21  N   UNL     1      -9.687   8.574  66.428  1.00  0.00    -0.272 NA 
HETATM   22  H1  UNL     1      -9.200   7.858  65.887  1.00  0.00     0.000 HD 
BRANCH  19  23
HETATM   23  N   UNL     1      -9.825  10.002  64.509  1.00  0.00    -0.388 N  
HETATM   24  H   UNL     1     -10.575  10.417  63.956  1.00  0.00     0.000 HD 
BRANCH  23  25
HETATM   25  S   UNL     1      -8.398   9.709  63.819  1.00  0.00    -0.189 S  
HETATM   26  O   UNL     1      -8.486   8.510  63.020  1.00  0.00    -0.164 OA 
HETATM   27  O   UNL     1      -7.356   9.885  64.803  1.00  0.00    -0.125 OA 
HETATM   28  N   UNL     1      -8.195  10.958  62.722  1.00  0.00    -0.370 N  
HETATM   29  H1  UNL     1      -7.292  10.773  62.286  1.00  0.00     0.000 HD 
HETATM   30  H2  UNL     1      -8.832  11.732  62.532  1.00  0.00     0.000 HD 
ENDBRANCH  23  25
ENDBRANCH  19  23
ENDBRANCH  18  19
ENDBRANCH  17  18
ENDBRANCH  16  17
ENDBRANCH  15  16
ENDBRANCH  12  15
ENDBRANCH   5  10
TORSDOF 8
ENDMDL
MODEL      168
REMARK 921   NORMALIZED FREE ENERGY PREDICTED BY IDOCK:   -4.32 KCAL/MOL
REMARK 922        TOTAL FREE ENERGY PREDICTED BY IDOCK:   -7.52 KCAL/MOL
REMARK 923 INTER-LIGAND FREE ENERGY PREDICTED BY IDOCK:   -6.41 KCAL/MOL
REMARK 924 INTRA-LIGAND FREE ENERGY PREDICTED BY IDOCK:   -1.11 KCAL/MOL
REMARK 927      BINDING AFFINITY PREDICTED BY RF-SCORE:    0.00 PKD
ROOT
HETATM    1  N   UNL     1      -9.220  17.676  66.064  1.00  0.00    -0.513 NA 
HETATM    2  C   UNL     1      -9.581  16.372  66.000  1.00  0.00    -0.319 C  
HETATM    3  H2  UNL     1      -8.266  18.019  66.175  1.00  0.00     0.000 HD 
HETATM    4  H1  UNL     1     -10.051  18.261  65.982  1.00  0.00     0.000 HD 
HETATM    5  N   UNL     1     -10.816  16.042  65.840  1.00  0.00    -0.257 NA 
HETATM    6  N   UNL     1      -8.476  15.593  66.109  1.00  0.00    -0.365 NA 
HETATM    7  H2  UNL     1      -7.522  15.936  66.221  1.00  0.00     0.000 HD 
HETATM    8  H1  UNL     1      -8.748  14.611  66.061  1.00  0.00     0.000 HD 
HETATM    9  H   UNL     1     -11.539  16.756  65.748  1.00  0.00     0.000 HD 
ENDROOT
BRANCH   5  10
HETATM   10  C   UNL     1     -11.136  14.723  65.796  1.00  0.00    -0.338 A  
HETATM   11  N   UNL     1     -10.711  13.743  66.579  1.00  0.00    -0.283 NA 
HETATM   12  C   UNL     1     -11.290  12.529  66.217  1.00  0.00    -0.338 A  
HETATM   13  S   UNL     1     -12.265  14.213  64.586  1.00  0.00    -0.428 SA 
HETATM   14  C   UNL     1     -12.142  12.602  65.134  1.00  0.00    -0.455 A  
BRANCH  12  15
HETATM   15  C   UNL     1     -10.943  11.299  66.997  1.00  0.00    -0.294 C  
BRANCH  15  16
HETATM   16  S   UNL     1      -9.132  11.155  67.199  1.00  0.00    -0.149 SA 
BRANCH  16  17
HETATM   17  C   UNL     1      -8.908   9.359  66.951  1.00  0.00    -0.127 C  
BRANCH  17  18
HETATM   18  C   UNL     1     -10.105   8.638  66.344  1.00  0.00    -0.294 C  
BRANCH  18  19
HETATM   19  C   UNL     1     -10.702   7.585  67.278  1.00  0.00    -0.295 C  
HETATM   20  H2  UNL     1     -11.032   6.255  65.687  1.00  0.00     0.000 HD 
HETATM   21  N   UNL     1     -11.117   6.414  66.691  1.00  0.00    -0.721 NA 
HETATM   22  H1  UNL     1     -11.516   5.712  67.315  1.00  0.00     0.000 HD 
BRANCH  19  23
HETATM   23  N   UNL     1     -10.744   7.906  68.529  1.00  0.00    -0.399 N  
HETATM   24  H   UNL     1     -11.204   8.772  68.810  1.00  0.00     0.000 HD 
BRANCH  23  25
HETATM   25  S   UNL     1     -10.081   6.958  69.650  1.00  0.00    -0.189 S  
HETATM   26  O   UNL     1      -9.867   7.717  70.859  1.00  0.00    -0.176 OA 
HETATM   27  O   UNL     1      -9.020   6.188  69.046  1.00  0.00    -0.125 OA 
HETATM   28  N   UNL     1     -11.279   5.851  70.030  1.00  0.00    -0.346 N  
HETATM   29  H1  UNL     1     -10.859   5.251  70.739  1.00  0.00     0.000 HD 
HETATM   30  H2  UNL     1     -12.220   5.790  69.638  1.00  0.00     0.000 HD 
ENDBRANCH  23  25
ENDBRANCH  19  23
ENDBRANCH  18  19
ENDBRANCH  17  18
ENDBRANCH  16  17
ENDBRANCH  15  16
ENDBRANCH  12  15
ENDBRANCH   5  10
TORSDOF 8
ENDMDL
MODEL      169
REMARK 921   NORMALIZED FREE ENERGY PREDICTED BY IDOCK:   -4.32 KCAL/MOL
REMARK 922        TOTAL FREE ENERGY PREDICTED BY IDOCK:   -7.52 KCAL/MOL
REMARK 923 INTER-LIGAND FREE ENERGY PREDICTED BY IDOCK:   -5.48 KCAL/MOL
REMARK 924 INTRA-LIGAND FREE ENERGY PREDICTED BY IDOCK:   -2.05 KCAL/MOL
REMARK 927      BINDING AFFINITY PREDICTED BY RF-SCORE:    0.00 PKD
ROOT
HETATM    1  N   UNL     1     -10.742  19.973  65.525  1.00  0.00    -0.321 NA 
HETATM    2  C   UNL     1      -9.696  19.656  66.326  1.00  0.00    -0.423 C  
HETATM    3  H2  UNL     1     -11.670  19.551  65.571  1.00  0.00     0.000 HD 
HETATM    4  H1  UNL     1     -10.457  20.699  64.869  1.00  0.00     0.000 HD 
HETATM    5  N   UNL     1      -8.567  20.262  66.198  1.00  0.00    -0.568 NA 
HETATM    6  N   UNL     1     -10.075  18.689  67.199  1.00  0.00    -0.340 NA 
HETATM    7  H2  UNL     1     -11.002  18.267  67.245  1.00  0.00     0.000 HD 
HETATM    8  H1  UNL     1      -9.288  18.451  67.802  1.00  0.00     0.000 HD 
HETATM    9  H   UNL     1      -8.445  20.996  65.500  1.00  0.00     0.000 HD 
ENDROOT
BRANCH   5  10
HETATM   10  C   UNL     1      -7.541  19.904  67.013  1.00  0.00    -0.269 A  
HETATM   11  N   UNL     1      -7.012  18.703  67.197  1.00  0.00    -0.202 NA 
HETATM   12  C   UNL     1      -5.959  18.756  68.106  1.00  0.00    -0.211 A  
HETATM   13  S   UNL     1      -6.776  21.155  67.934  1.00  0.00    -0.004 SA 
HETATM   14  C   UNL     1      -5.714  20.012  68.624  1.00  0.00    -0.233 A  
BRANCH  12  15
HETATM   15  C   UNL     1      -5.222  17.496  68.436  1.00  0.00    -0.143 C  
BRANCH  15  16
HETATM   16  S   UNL     1      -5.595  16.962  70.144  1.00  0.00    -0.207 SA 
BRANCH  16  17
HETATM   17  C   UNL     1      -6.627  15.490  69.818  1.00  0.00    -0.166 C  
BRANCH  17  18
HETATM   18  C   UNL     1      -6.813  15.146  68.344  1.00  0.00    -0.109 C  
BRANCH  18  19
HETATM   19  C   UNL     1      -8.223  15.449  67.837  1.00  0.00    -0.144 C  
HETATM   20  H2  UNL     1      -8.542  16.867  69.352  1.00  0.00     0.000 HD 
HETATM   21  N   UNL     1      -8.933  16.393  68.538  1.00  0.00    -0.214 NA 
HETATM   22  H1  UNL     1      -9.875  16.595  68.200  1.00  0.00     0.000 HD 
BRANCH  19  23
HETATM   23  N   UNL     1      -8.595  14.788  66.791  1.00  0.00    -0.369 N  
HETATM   24  H   UNL     1      -7.931  14.170  66.324  1.00  0.00     0.000 HD 
BRANCH  23  25
HETATM   25  S   UNL     1     -10.093  14.926  66.214  1.00  0.00    -0.300 S  
HETATM   26  O   UNL     1     -10.289  16.259  65.696  1.00  0.00    -0.357 OA 
HETATM   27  O   UNL     1     -11.016  14.341  67.158  1.00  0.00    -0.291 OA 
HETATM   28  N   UNL     1     -10.124  13.922  64.874  1.00  0.00    -0.606 N  
HETATM   29  H1  UNL     1     -11.072  14.009  64.509  1.00  0.00     0.000 HD 
HETATM   30  H2  UNL     1      -9.364  13.350  64.505  1.00  0.00     0.000 HD 
ENDBRANCH  23  25
ENDBRANCH  19  23
ENDBRANCH  18  19
ENDBRANCH  17  18
ENDBRANCH  16  17
ENDBRANCH  15  16
ENDBRANCH  12  15
ENDBRANCH   5  10
TORSDOF 8
ENDMDL
MODEL      170
REMARK 921   NORMALIZED FREE ENERGY PREDICTED BY IDOCK:   -4.31 KCAL/MOL
REMARK 922        TOTAL FREE ENERGY PREDICTED BY IDOCK:   -7.50 KCAL/MOL
REMARK 923 INTER-LIGAND FREE ENERGY PREDICTED BY IDOCK:   -6.39 KCAL/MOL
REMARK 924 INTRA-LIGAND FREE ENERGY PREDICTED BY IDOCK:   -1.10 KCAL/MOL
REMARK 927      BINDING AFFINITY PREDICTED BY RF-SCORE:    0.00 PKD
ROOT
HETATM    1  N   UNL     1     -12.722  11.676  62.816  1.00  0.00    -0.698 NA 
HETATM    2  C   UNL     1     -11.925  12.102  63.826  1.00  0.00    -0.513 C  
HETATM    3  H2  UNL     1     -12.411  11.463  61.869  1.00  0.00     0.000 HD 
HETATM    4  H1  UNL     1     -13.681  11.601  63.153  1.00  0.00     0.000 HD 
HETATM    5  N   UNL     1     -12.413  12.327  64.996  1.00  0.00    -0.537 NA 
HETATM    6  N   UNL     1     -10.648  12.201  63.378  1.00  0.00    -0.550 NA 
HETATM    7  H2  UNL     1     -10.337  11.988  62.430  1.00  0.00     0.000 HD 
HETATM    8  H1  UNL     1     -10.047  12.522  64.137  1.00  0.00     0.000 HD 
HETATM    9  H   UNL     1     -13.405  12.179  65.184  1.00  0.00     0.000 HD 
ENDROOT
BRANCH   5  10
HETATM   10  C   UNL     1     -11.580  12.767  65.974  1.00  0.00    -0.383 A  
HETATM   11  N   UNL     1     -10.439  12.237  66.388  1.00  0.00    -0.232 NA 
HETATM   12  C   UNL     1      -9.874  13.002  67.405  1.00  0.00    -0.215 A  
HETATM   13  S   UNL     1     -12.016  14.225  66.801  1.00  0.00    -0.408 SA 
HETATM   14  C   UNL     1     -10.617  14.106  67.771  1.00  0.00    -0.243 A  
BRANCH  12  15
HETATM   15  C   UNL     1      -8.569  12.571  67.997  1.00  0.00    -0.185 C  
BRANCH  15  16
HETATM   16  S   UNL     1      -7.271  13.813  67.665  1.00  0.00    -0.162 SA 
BRANCH  16  17
HETATM   17  C   UNL     1      -7.173  14.641  69.291  1.00  0.00    -0.156 C  
BRANCH  17  18
HETATM   18  C   UNL     1      -8.011  15.908  69.420  1.00  0.00    -0.184 C  
BRANCH  18  19
HETATM   19  C   UNL     1      -7.391  17.107  68.704  1.00  0.00    -0.238 C  
HETATM   20  H2  UNL     1      -5.453  16.545  69.287  1.00  0.00     0.000 HD 
HETATM   21  N   UNL     1      -6.023  17.222  68.780  1.00  0.00    -0.162 NA 
HETATM   22  H1  UNL     1      -5.609  18.023  68.302  1.00  0.00     0.000 HD 
BRANCH  19  23
HETATM   23  N   UNL     1      -8.221  17.884  68.091  1.00  0.00    -0.261 N  
HETATM   24  H   UNL     1      -8.858  18.467  68.633  1.00  0.00     0.000 HD 
BRANCH  23  25
HETATM   25  S   UNL     1      -8.263  17.945  66.481  1.00  0.00    -0.262 S  
HETATM   26  O   UNL     1      -6.958  17.629  65.952  1.00  0.00    -0.291 OA 
HETATM   27  O   UNL     1      -8.974  19.134  66.075  1.00  0.00    -0.447 OA 
HETATM   28  N   UNL     1      -9.243  16.662  66.035  1.00  0.00    -0.266 N  
HETATM   29  H1  UNL     1      -9.270  16.701  65.017  1.00  0.00     0.000 HD 
HETATM   30  H2  UNL     1      -9.710  15.991  66.646  1.00  0.00     0.000 HD 
ENDBRANCH  23  25
ENDBRANCH  19  23
ENDBRANCH  18  19
ENDBRANCH  17  18
ENDBRANCH  16  17
ENDBRANCH  15  16
ENDBRANCH  12  15
ENDBRANCH   5  10
TORSDOF 8
ENDMDL
MODEL      171
REMARK 921   NORMALIZED FREE ENERGY PREDICTED BY IDOCK:   -4.29 KCAL/MOL
REMARK 922        TOTAL FREE ENERGY PREDICTED BY IDOCK:   -7.47 KCAL/MOL
REMARK 923 INTER-LIGAND FREE ENERGY PREDICTED BY IDOCK:   -6.16 KCAL/MOL
REMARK 924 INTRA-LIGAND FREE ENERGY PREDICTED BY IDOCK:   -1.31 KCAL/MOL
REMARK 927      BINDING AFFINITY PREDICTED BY RF-SCORE:    0.00 PKD
ROOT
HETATM    1  N   UNL     1     -14.411   7.063  72.248  1.00  0.00    -0.636 NA 
HETATM    2  C   UNL     1     -13.180   7.396  71.788  1.00  0.00    -0.318 C  
HETATM    3  H2  UNL     1     -15.127   6.573  71.713  1.00  0.00     0.000 HD 
HETATM    4  H1  UNL     1     -14.508   7.379  73.212  1.00  0.00     0.000 HD 
HETATM    5  N   UNL     1     -12.338   8.002  72.552  1.00  0.00    -0.569 NA 
HETATM    6  N   UNL     1     -13.051   6.976  70.505  1.00  0.00    -0.324 NA 
HETATM    7  H2  UNL     1     -13.768   6.486  69.970  1.00  0.00     0.000 HD 
HETATM    8  H1  UNL     1     -12.125   7.226  70.159  1.00  0.00     0.000 HD 
HETATM    9  H   UNL     1     -12.579   8.231  73.516  1.00  0.00     0.000 HD 
ENDROOT
BRANCH   5  10
HETATM   10  C   UNL     1     -11.121   8.329  72.046  1.00  0.00    -0.311 A  
HETATM   11  N   UNL     1     -10.838   8.976  70.925  1.00  0.00    -0.237 NA 
HETATM   12  C   UNL     1      -9.463   9.129  70.772  1.00  0.00    -0.272 A  
HETATM   13  S   UNL     1      -9.725   7.882  72.968  1.00  0.00    -0.283 SA 
HETATM   14  C   UNL     1      -8.708   8.568  71.782  1.00  0.00    -0.201 A  
BRANCH  12  15
HETATM   15  C   UNL     1      -8.944   9.850  69.567  1.00  0.00    -0.211 C  
BRANCH  15  16
HETATM   16  S   UNL     1     -10.325  10.481  68.550  1.00  0.00    -0.192 SA 
BRANCH  16  17
HETATM   17  C   UNL     1     -10.401   9.197  67.253  1.00  0.00    -0.270 C  
BRANCH  17  18
HETATM   18  C   UNL     1      -9.402   8.057  67.414  1.00  0.00    -0.173 C  
BRANCH  18  19
HETATM   19  C   UNL     1     -10.075   6.703  67.634  1.00  0.00    -0.155 C  
HETATM   20  H2  UNL     1     -11.980   7.583  67.722  1.00  0.00     0.000 HD 
HETATM   21  N   UNL     1     -11.443   6.716  67.767  1.00  0.00    -0.658 NA 
HETATM   22  H1  UNL     1     -11.893   5.812  67.914  1.00  0.00     0.000 HD 
BRANCH  19  23
HETATM   23  N   UNL     1      -9.284   5.682  67.661  1.00  0.00    -0.106 N  
HETATM   24  H   UNL     1      -8.633   5.571  68.439  1.00  0.00     0.000 HD 
BRANCH  23  25
HETATM   25  S   UNL     1      -9.310   4.582  66.485  1.00  0.00    -0.166 S  
HETATM   26  O   UNL     1      -9.374   3.260  67.061  1.00  0.00    -0.185 OA 
HETATM   27  O   UNL     1      -8.314   4.926  65.498  1.00  0.00    -0.115 OA 
HETATM   28  N   UNL     1     -10.788   4.806  65.729  1.00  0.00    -0.779 N  
HETATM   29  H1  UNL     1     -10.804   4.110  64.984  1.00  0.00     0.000 HD 
HETATM   30  H2  UNL     1     -11.511   5.488  65.962  1.00  0.00     0.000 HD 
ENDBRANCH  23  25
ENDBRANCH  19  23
ENDBRANCH  18  19
ENDBRANCH  17  18
ENDBRANCH  16  17
ENDBRANCH  15  16
ENDBRANCH  12  15
ENDBRANCH   5  10
TORSDOF 8
ENDMDL
MODEL      172
REMARK 921   NORMALIZED FREE ENERGY PREDICTED BY IDOCK:   -4.28 KCAL/MOL
REMARK 922        TOTAL FREE ENERGY PREDICTED BY IDOCK:   -7.46 KCAL/MOL
REMARK 923 INTER-LIGAND FREE ENERGY PREDICTED BY IDOCK:   -6.55 KCAL/MOL
REMARK 924 INTRA-LIGAND FREE ENERGY PREDICTED BY IDOCK:   -0.91 KCAL/MOL
REMARK 927      BINDING AFFINITY PREDICTED BY RF-SCORE:    0.00 PKD
ROOT
HETATM    1  N   UNL     1      -6.255   9.470  71.998  1.00  0.00    -0.296 NA 
HETATM    2  C   UNL     1      -7.186   9.295  71.029  1.00  0.00    -0.072 C  
HETATM    3  H2  UNL     1      -5.829  10.361  72.252  1.00  0.00     0.000 HD 
HETATM    4  H1  UNL     1      -6.049   8.572  72.434  1.00  0.00     0.000 HD 
HETATM    5  N   UNL     1      -7.677   8.127  70.796  1.00  0.00    -0.076 NA 
HETATM    6  N   UNL     1      -7.461  10.490  70.449  1.00  0.00    -0.431 NA 
HETATM    7  H2  UNL     1      -7.035  11.381  70.703  1.00  0.00     0.000 HD 
HETATM    8  H1  UNL     1      -8.162  10.359  69.719  1.00  0.00     0.000 HD 
HETATM    9  H   UNL     1      -7.382   7.319  71.343  1.00  0.00     0.000 HD 
ENDROOT
BRANCH   5  10
HETATM   10  C   UNL     1      -8.597   7.995  69.806  1.00  0.00    -0.131 A  
HETATM   11  N   UNL     1      -8.595   8.537  68.598  1.00  0.00    -0.134 NA 
HETATM   12  C   UNL     1      -9.714   8.139  67.871  1.00  0.00    -0.161 A  
HETATM   13  S   UNL     1      -9.960   6.970  70.112  1.00  0.00    -0.183 SA 
HETATM   14  C   UNL     1     -10.575   7.306  68.556  1.00  0.00    -0.175 A  
BRANCH  12  15
HETATM   15  C   UNL     1      -9.884   8.638  66.470  1.00  0.00    -0.278 C  
BRANCH  15  16
HETATM   16  S   UNL     1      -8.336   9.398  65.866  1.00  0.00    -0.124 SA 
BRANCH  16  17
HETATM   17  C   UNL     1      -9.004  10.683  64.752  1.00  0.00    -0.199 C  
BRANCH  17  18
HETATM   18  C   UNL     1     -10.516  10.647  64.560  1.00  0.00    -0.266 C  
BRANCH  18  19
HETATM   19  C   UNL     1     -11.055  11.887  63.846  1.00  0.00    -0.412 C  
HETATM   20  H2  UNL     1     -12.511  10.761  62.837  1.00  0.00     0.000 HD 
HETATM   21  N   UNL     1     -12.110  11.686  62.989  1.00  0.00    -0.927 NA 
HETATM   22  H1  UNL     1     -12.469  12.513  62.512  1.00  0.00     0.000 HD 
BRANCH  19  23
HETATM   23  N   UNL     1     -10.464  12.999  64.134  1.00  0.00    -0.448 N  
HETATM   24  H   UNL     1      -9.487  13.132  63.873  1.00  0.00     0.000 HD 
BRANCH  23  25
HETATM   25  S   UNL     1     -11.250  14.181  64.898  1.00  0.00    -0.392 S  
HETATM   26  O   UNL     1     -10.365  15.306  65.085  1.00  0.00    -0.382 OA 
HETATM   27  O   UNL     1     -11.993  13.615  65.998  1.00  0.00    -0.368 OA 
HETATM   28  N   UNL     1     -12.402  14.702  63.799  1.00  0.00    -1.092 N  
HETATM   29  H1  UNL     1     -12.899  15.449  64.282  1.00  0.00     0.000 HD 
HETATM   30  H2  UNL     1     -12.569  14.350  62.856  1.00  0.00     0.000 HD 
ENDBRANCH  23  25
ENDBRANCH  19  23
ENDBRANCH  18  19
ENDBRANCH  17  18
ENDBRANCH  16  17
ENDBRANCH  15  16
ENDBRANCH  12  15
ENDBRANCH   5  10
TORSDOF 8
ENDMDL
MODEL      173
REMARK 921   NORMALIZED FREE ENERGY PREDICTED BY IDOCK:   -4.27 KCAL/MOL
REMARK 922        TOTAL FREE ENERGY PREDICTED BY IDOCK:   -7.45 KCAL/MOL
REMARK 923 INTER-LIGAND FREE ENERGY PREDICTED BY IDOCK:   -5.78 KCAL/MOL
REMARK 924 INTRA-LIGAND FREE ENERGY PREDICTED BY IDOCK:   -1.66 KCAL/MOL
REMARK 927      BINDING AFFINITY PREDICTED BY RF-SCORE:    0.00 PKD
ROOT
HETATM    1  N   UNL     1     -12.374  15.667  70.038  1.00  0.00    -0.466 NA 
HETATM    2  C   UNL     1     -11.988  14.633  69.252  1.00  0.00    -0.302 C  
HETATM    3  H2  UNL     1     -12.094  15.807  71.009  1.00  0.00     0.000 HD 
HETATM    4  H1  UNL     1     -12.988  16.284  69.507  1.00  0.00     0.000 HD 
HETATM    5  N   UNL     1     -12.384  14.556  68.029  1.00  0.00    -0.594 NA 
HETATM    6  N   UNL     1     -11.171  13.811  69.960  1.00  0.00    -0.479 NA 
HETATM    7  H2  UNL     1     -10.892  13.951  70.930  1.00  0.00     0.000 HD 
HETATM    8  H1  UNL     1     -10.880  13.033  69.368  1.00  0.00     0.000 HD 
HETATM    9  H   UNL     1     -12.985  15.277  67.630  1.00  0.00     0.000 HD 
ENDROOT
BRANCH   5  10
HETATM   10  C   UNL     1     -11.984  13.495  67.282  1.00  0.00    -0.365 A  
HETATM   11  N   UNL     1     -11.515  12.326  67.690  1.00  0.00    -0.314 NA 
HETATM   12  C   UNL     1     -11.233  11.496  66.609  1.00  0.00    -0.271 A  
HETATM   13  S   UNL     1     -12.111  13.636  65.560  1.00  0.00    -0.440 SA 
HETATM   14  C   UNL     1     -11.476  12.063  65.374  1.00  0.00    -0.305 A  
BRANCH  12  15
HETATM   15  C   UNL     1     -10.704  10.120  66.869  1.00  0.00    -0.161 C  
BRANCH  15  16
HETATM   16  S   UNL     1      -9.304   9.748  65.754  1.00  0.00    -0.242 SA 
BRANCH  16  17
HETATM   17  C   UNL     1      -8.155  11.099  66.195  1.00  0.00    -0.111 C  
BRANCH  17  18
HETATM   18  C   UNL     1      -7.320  10.851  67.445  1.00  0.00    -0.099 C  
BRANCH  18  19
HETATM   19  C   UNL     1      -7.922  11.486  68.698  1.00  0.00    -0.135 C  
HETATM   20  H2  UNL     1      -7.452   9.804  69.864  1.00  0.00     0.000 HD 
HETATM   21  N   UNL     1      -7.870  10.735  69.848  1.00  0.00    -0.342 NA 
HETATM   22  H1  UNL     1      -8.272  11.158  70.684  1.00  0.00     0.000 HD 
BRANCH  19  23
HETATM   23  N   UNL     1      -8.410  12.673  68.546  1.00  0.00    -0.311 N  
HETATM   24  H   UNL     1      -9.400  12.785  68.326  1.00  0.00     0.000 HD 
BRANCH  23  25
HETATM   25  S   UNL     1      -7.477  13.978  68.697  1.00  0.00    -0.124 S  
HETATM   26  O   UNL     1      -7.262  14.571  67.399  1.00  0.00    -0.188 OA 
HETATM   27  O   UNL     1      -6.374  13.667  69.576  1.00  0.00    -0.108 OA 
HETATM   28  N   UNL     1      -8.422  15.078  69.535  1.00  0.00    -0.424 N  
HETATM   29  H1  UNL     1      -7.832  15.904  69.631  1.00  0.00     0.000 HD 
HETATM   30  H2  UNL     1      -9.376  14.951  69.874  1.00  0.00     0.000 HD 
ENDBRANCH  23  25
ENDBRANCH  19  23
ENDBRANCH  18  19
ENDBRANCH  17  18
ENDBRANCH  16  17
ENDBRANCH  15  16
ENDBRANCH  12  15
ENDBRANCH   5  10
TORSDOF 8
ENDMDL
MODEL      174
REMARK 921   NORMALIZED FREE ENERGY PREDICTED BY IDOCK:   -4.27 KCAL/MOL
REMARK 922        TOTAL FREE ENERGY PREDICTED BY IDOCK:   -7.45 KCAL/MOL
REMARK 923 INTER-LIGAND FREE ENERGY PREDICTED BY IDOCK:   -5.92 KCAL/MOL
REMARK 924 INTRA-LIGAND FREE ENERGY PREDICTED BY IDOCK:   -1.52 KCAL/MOL
REMARK 927      BINDING AFFINITY PREDICTED BY RF-SCORE:    0.00 PKD
ROOT
HETATM    1  N   UNL     1      -5.864  11.610  66.161  1.00  0.00    -0.501 NA 
HETATM    2  C   UNL     1      -7.063  11.268  66.692  1.00  0.00    -0.127 C  
HETATM    3  H2  UNL     1      -5.671  11.729  65.167  1.00  0.00     0.000 HD 
HETATM    4  H1  UNL     1      -5.184  11.729  66.912  1.00  0.00     0.000 HD 
HETATM    5  N   UNL     1      -7.208  11.160  67.967  1.00  0.00    -0.077 NA 
HETATM    6  N   UNL     1      -7.967  11.108  65.693  1.00  0.00    -0.370 NA 
HETATM    7  H2  UNL     1      -7.774  11.227  64.699  1.00  0.00     0.000 HD 
HETATM    8  H1  UNL     1      -8.870  10.852  66.092  1.00  0.00     0.000 HD 
HETATM    9  H   UNL     1      -6.427  11.340  68.598  1.00  0.00     0.000 HD 
ENDROOT
BRANCH   5  10
HETATM   10  C   UNL     1      -8.424  10.802  68.455  1.00  0.00    -0.137 A  
HETATM   11  N   UNL     1      -9.560  11.481  68.422  1.00  0.00    -0.192 NA 
HETATM   12  C   UNL     1     -10.591  10.758  69.016  1.00  0.00    -0.219 A  
HETATM   13  S   UNL     1      -8.558   9.247  69.206  1.00  0.00    -0.147 SA 
HETATM   14  C   UNL     1     -10.211   9.530  69.520  1.00  0.00    -0.213 A  
BRANCH  12  15
HETATM   15  C   UNL     1     -11.962  11.355  69.065  1.00  0.00    -0.320 C  
BRANCH  15  16
HETATM   16  S   UNL     1     -12.135  12.451  70.517  1.00  0.00    -0.147 SA 
BRANCH  16  17
HETATM   17  C   UNL     1     -12.275  14.077  69.697  1.00  0.00    -0.332 C  
BRANCH  17  18
HETATM   18  C   UNL     1     -11.712  14.136  68.282  1.00  0.00    -0.383 C  
BRANCH  18  19
HETATM   19  C   UNL     1     -10.398  14.913  68.195  1.00  0.00    -0.237 C  
HETATM   20  H2  UNL     1      -9.428  13.554  69.470  1.00  0.00     0.000 HD 
HETATM   21  N   UNL     1      -9.341  14.404  68.911  1.00  0.00    -0.354 NA 
HETATM   22  H1  UNL     1      -8.464  14.922  68.855  1.00  0.00     0.000 HD 
BRANCH  19  23
HETATM   23  N   UNL     1     -10.418  15.965  67.447  1.00  0.00    -0.300 N  
HETATM   24  H   UNL     1     -10.849  16.822  67.795  1.00  0.00     0.000 HD 
BRANCH  23  25
HETATM   25  S   UNL     1      -9.771  15.944  65.971  1.00  0.00    -0.363 S  
HETATM   26  O   UNL     1      -8.595  16.781  65.948  1.00  0.00    -0.500 OA 
HETATM   27  O   UNL     1     -10.824  16.097  64.995  1.00  0.00    -0.516 OA 
HETATM   28  N   UNL     1      -9.205  14.380  65.780  1.00  0.00    -0.487 N  
HETATM   29  H1  UNL     1      -8.796  14.366  64.846  1.00  0.00     0.000 HD 
HETATM   30  H2  UNL     1      -9.258  13.611  66.449  1.00  0.00     0.000 HD 
ENDBRANCH  23  25
ENDBRANCH  19  23
ENDBRANCH  18  19
ENDBRANCH  17  18
ENDBRANCH  16  17
ENDBRANCH  15  16
ENDBRANCH  12  15
ENDBRANCH   5  10
TORSDOF 8
ENDMDL
MODEL      175
REMARK 921   NORMALIZED FREE ENERGY PREDICTED BY IDOCK:   -4.27 KCAL/MOL
REMARK 922        TOTAL FREE ENERGY PREDICTED BY IDOCK:   -7.44 KCAL/MOL
REMARK 923 INTER-LIGAND FREE ENERGY PREDICTED BY IDOCK:   -7.36 KCAL/MOL
REMARK 924 INTRA-LIGAND FREE ENERGY PREDICTED BY IDOCK:   -0.08 KCAL/MOL
REMARK 927      BINDING AFFINITY PREDICTED BY RF-SCORE:    0.00 PKD
ROOT
HETATM    1  N   UNL     1      -9.347  20.770  66.794  1.00  0.00    -0.647 NA 
HETATM    2  C   UNL     1      -9.737  19.547  67.227  1.00  0.00    -0.343 C  
HETATM    3  H2  UNL     1      -9.674  21.660  67.168  1.00  0.00     0.000 HD 
HETATM    4  H1  UNL     1      -8.676  20.661  66.035  1.00  0.00     0.000 HD 
HETATM    5  N   UNL     1      -9.250  18.478  66.698  1.00  0.00    -0.298 NA 
HETATM    6  N   UNL     1     -10.631  19.692  68.238  1.00  0.00    -0.436 NA 
HETATM    7  H2  UNL     1     -10.958  20.582  68.613  1.00  0.00     0.000 HD 
HETATM    8  H1  UNL     1     -10.924  18.771  68.565  1.00  0.00     0.000 HD 
HETATM    9  H   UNL     1      -8.556  18.536  65.952  1.00  0.00     0.000 HD 
ENDROOT
BRANCH   5  10
HETATM   10  C   UNL     1      -9.678  17.273  67.154  1.00  0.00    -0.259 A  
HETATM   11  N   UNL     1     -10.813  16.979  67.771  1.00  0.00    -0.314 NA 
HETATM   12  C   UNL     1     -10.884  15.619  68.062  1.00  0.00    -0.308 A  
HETATM   13  S   UNL     1      -8.647  15.907  66.894  1.00  0.00    -0.267 SA 
HETATM   14  C   UNL     1      -9.775  14.893  67.676  1.00  0.00    -0.212 A  
BRANCH  12  15
HETATM   15  C   UNL     1     -12.102  15.087  68.749  1.00  0.00    -0.180 C  
BRANCH  15  16
HETATM   16  S   UNL     1     -12.076  15.515  70.526  1.00  0.00    -0.405 SA 
BRANCH  16  17
HETATM   17  C   UNL     1     -13.614  14.704  71.089  1.00  0.00    -0.344 C  
BRANCH  17  18
HETATM   18  C   UNL     1     -13.443  13.731  72.249  1.00  0.00    -0.638 C  
BRANCH  18  19
HETATM   19  C   UNL     1     -12.912  12.367  71.808  1.00  0.00    -0.316 C  
HETATM   20  H2  UNL     1     -14.191  11.361  73.135  1.00  0.00     0.000 HD 
HETATM   21  N   UNL     1     -13.466  11.270  72.423  1.00  0.00    -0.442 NA 
HETATM   22  H1  UNL     1     -13.112  10.359  72.129  1.00  0.00     0.000 HD 
BRANCH  19  23
HETATM   23  N   UNL     1     -12.002  12.390  70.891  1.00  0.00    -0.375 N  
HETATM   24  H   UNL     1     -11.426  13.224  70.776  1.00  0.00     0.000 HD 
BRANCH  23  25
HETATM   25  S   UNL     1     -11.764  11.120  69.929  1.00  0.00    -0.384 S  
HETATM   26  O   UNL     1     -12.347  11.380  68.634  1.00  0.00    -0.491 OA 
HETATM   27  O   UNL     1     -12.064   9.913  70.662  1.00  0.00    -0.275 OA 
HETATM   28  N   UNL     1     -10.110  11.089  69.671  1.00  0.00    -0.429 N  
HETATM   29  H1  UNL     1      -9.959  10.285  69.062  1.00  0.00     0.000 HD 
HETATM   30  H2  UNL     1      -9.408  11.731  70.041  1.00  0.00     0.000 HD 
ENDBRANCH  23  25
ENDBRANCH  19  23
ENDBRANCH  18  19
ENDBRANCH  17  18
ENDBRANCH  16  17
ENDBRANCH  15  16
ENDBRANCH  12  15
ENDBRANCH   5  10
TORSDOF 8
ENDMDL
MODEL      176
REMARK 921   NORMALIZED FREE ENERGY PREDICTED BY IDOCK:   -4.27 KCAL/MOL
REMARK 922        TOTAL FREE ENERGY PREDICTED BY IDOCK:   -7.44 KCAL/MOL
REMARK 923 INTER-LIGAND FREE ENERGY PREDICTED BY IDOCK:   -6.49 KCAL/MOL
REMARK 924 INTRA-LIGAND FREE ENERGY PREDICTED BY IDOCK:   -0.95 KCAL/MOL
REMARK 927      BINDING AFFINITY PREDICTED BY RF-SCORE:    0.00 PKD
ROOT
HETATM    1  N   UNL     1     -11.193  16.952  69.770  1.00  0.00    -0.276 NA 
HETATM    2  C   UNL     1     -11.074  15.612  69.611  1.00  0.00    -0.299 C  
HETATM    3  H2  UNL     1     -10.437  17.585  70.030  1.00  0.00     0.000 HD 
HETATM    4  H1  UNL     1     -12.158  17.228  69.589  1.00  0.00     0.000 HD 
HETATM    5  N   UNL     1     -12.089  14.900  69.262  1.00  0.00    -0.497 NA 
HETATM    6  N   UNL     1      -9.790  15.243  69.852  1.00  0.00    -0.457 NA 
HETATM    7  H2  UNL     1      -9.034  15.876  70.112  1.00  0.00     0.000 HD 
HETATM    8  H1  UNL     1      -9.700  14.234  69.731  1.00  0.00     0.000 HD 
HETATM    9  H   UNL     1     -12.996  15.335  69.091  1.00  0.00     0.000 HD 
ENDROOT
BRANCH   5  10
HETATM   10  C   UNL     1     -11.928  13.559  69.127  1.00  0.00    -0.333 A  
HETATM   11  N   UNL     1     -11.920  12.628  70.070  1.00  0.00    -0.341 NA 
HETATM   12  C   UNL     1     -11.743  11.362  69.519  1.00  0.00    -0.348 A  
HETATM   13  S   UNL     1     -11.726  12.934  67.524  1.00  0.00    -0.356 SA 
HETATM   14  C   UNL     1     -11.595  11.351  68.146  1.00  0.00    -0.294 A  
BRANCH  12  15
HETATM   15  C   UNL     1     -11.720  10.172  70.427  1.00  0.00    -0.308 C  
BRANCH  15  16
HETATM   16  S   UNL     1     -13.035  10.301  71.689  1.00  0.00    -0.483 SA 
BRANCH  16  17
HETATM   17  C   UNL     1     -13.229   8.545  72.154  1.00  0.00    -0.352 C  
BRANCH  17  18
HETATM   18  C   UNL     1     -12.566   7.551  71.208  1.00  0.00    -0.345 C  
BRANCH  18  19
HETATM   19  C   UNL     1     -11.770   6.472  71.941  1.00  0.00    -0.324 C  
HETATM   20  H2  UNL     1     -13.500   5.718  72.861  1.00  0.00     0.000 HD 
HETATM   21  N   UNL     1     -12.490   5.629  72.753  1.00  0.00    -0.422 NA 
HETATM   22  H1  UNL     1     -11.959   4.909  73.243  1.00  0.00     0.000 HD 
BRANCH  19  23
HETATM   23  N   UNL     1     -10.499   6.460  71.711  1.00  0.00    -0.211 N  
HETATM   24  H   UNL     1     -10.146   6.026  70.857  1.00  0.00     0.000 HD 
BRANCH  23  25
HETATM   25  S   UNL     1      -9.462   7.122  72.752  1.00  0.00    -0.153 S  
HETATM   26  O   UNL     1      -8.192   6.440  72.667  1.00  0.00    -0.109 OA 
HETATM   27  O   UNL     1     -10.129   7.319  74.017  1.00  0.00    -0.307 OA 
HETATM   28  N   UNL     1      -9.180   8.658  72.149  1.00  0.00    -0.270 N  
HETATM   29  H1  UNL     1      -8.525   9.077  72.808  1.00  0.00     0.000 HD 
HETATM   30  H2  UNL     1      -9.576   9.082  71.309  1.00  0.00     0.000 HD 
ENDBRANCH  23  25
ENDBRANCH  19  23
ENDBRANCH  18  19
ENDBRANCH  17  18
ENDBRANCH  16  17
ENDBRANCH  15  16
ENDBRANCH  12  15
ENDBRANCH   5  10
TORSDOF 8
ENDMDL
MODEL      177
REMARK 921   NORMALIZED FREE ENERGY PREDICTED BY IDOCK:   -4.26 KCAL/MOL
REMARK 922        TOTAL FREE ENERGY PREDICTED BY IDOCK:   -7.43 KCAL/MOL
REMARK 923 INTER-LIGAND FREE ENERGY PREDICTED BY IDOCK:   -5.44 KCAL/MOL
REMARK 924 INTRA-LIGAND FREE ENERGY PREDICTED BY IDOCK:   -1.99 KCAL/MOL
REMARK 927      BINDING AFFINITY PREDICTED BY RF-SCORE:    0.00 PKD
ROOT
HETATM    1  N   UNL     1     -10.871  12.778  68.214  1.00  0.00    -0.238 NA 
HETATM    2  C   UNL     1     -11.463  11.742  68.856  1.00  0.00    -0.297 C  
HETATM    3  H2  UNL     1     -10.823  12.894  67.202  1.00  0.00     0.000 HD 
HETATM    4  H1  UNL     1     -10.480  13.422  68.900  1.00  0.00     0.000 HD 
HETATM    5  N   UNL     1     -11.485  11.696  70.143  1.00  0.00    -0.499 NA 
HETATM    6  N   UNL     1     -11.983  10.885  67.942  1.00  0.00    -0.735 NA 
HETATM    7  H2  UNL     1     -11.936  11.001  66.930  1.00  0.00     0.000 HD 
HETATM    8  H1  UNL     1     -12.430  10.105  68.425  1.00  0.00     0.000 HD 
HETATM    9  H   UNL     1     -11.065  12.442  70.699  1.00  0.00     0.000 HD 
ENDROOT
BRANCH   5  10
HETATM   10  C   UNL     1     -12.077  10.633  70.745  1.00  0.00    -0.374 A  
HETATM   11  N   UNL     1     -11.797   9.345  70.612  1.00  0.00    -0.244 NA 
HETATM   12  C   UNL     1     -12.626   8.569  71.419  1.00  0.00    -0.283 A  
HETATM   13  S   UNL     1     -13.359  10.959  71.864  1.00  0.00    -0.190 SA 
HETATM   14  C   UNL     1     -13.552   9.288  72.147  1.00  0.00    -0.471 A  
BRANCH  12  15
HETATM   15  C   UNL     1     -12.453   7.082  71.417  1.00  0.00    -0.384 C  
BRANCH  15  16
HETATM   16  S   UNL     1     -11.133   6.587  72.580  1.00  0.00    -0.265 SA 
BRANCH  16  17
HETATM   17  C   UNL     1      -9.648   6.973  71.587  1.00  0.00    -0.156 C  
BRANCH  17  18
HETATM   18  C   UNL     1      -8.730   8.032  72.186  1.00  0.00    -0.212 C  
BRANCH  18  19
HETATM   19  C   UNL     1      -8.149   8.979  71.135  1.00  0.00    -0.139 C  
HETATM   20  H2  UNL     1      -6.256   8.940  72.043  1.00  0.00     0.000 HD 
HETATM   21  N   UNL     1      -6.823   9.307  71.278  1.00  0.00    -0.244 NA 
HETATM   22  H1  UNL     1      -6.435   9.939  70.577  1.00  0.00     0.000 HD 
BRANCH  19  23
HETATM   23  N   UNL     1      -8.969   9.363  70.214  1.00  0.00    -0.223 N  
HETATM   24  H   UNL     1      -9.895   9.703  70.475  1.00  0.00     0.000 HD 
BRANCH  23  25
HETATM   25  S   UNL     1      -8.550   9.314  68.659  1.00  0.00    -0.128 S  
HETATM   26  O   UNL     1      -7.833  10.518  68.314  1.00  0.00    -0.104 OA 
HETATM   27  O   UNL     1      -9.679   8.860  67.882  1.00  0.00    -0.151 OA 
HETATM   28  N   UNL     1      -7.417   8.083  68.565  1.00  0.00    -0.100 N  
HETATM   29  H1  UNL     1      -7.152   8.052  67.582  1.00  0.00     0.000 HD 
HETATM   30  H2  UNL     1      -7.070   7.496  69.324  1.00  0.00     0.000 HD 
ENDBRANCH  23  25
ENDBRANCH  19  23
ENDBRANCH  18  19
ENDBRANCH  17  18
ENDBRANCH  16  17
ENDBRANCH  15  16
ENDBRANCH  12  15
ENDBRANCH   5  10
TORSDOF 8
ENDMDL
MODEL      178
REMARK 921   NORMALIZED FREE ENERGY PREDICTED BY IDOCK:   -4.26 KCAL/MOL
REMARK 922        TOTAL FREE ENERGY PREDICTED BY IDOCK:   -7.43 KCAL/MOL
REMARK 923 INTER-LIGAND FREE ENERGY PREDICTED BY IDOCK:   -6.56 KCAL/MOL
REMARK 924 INTRA-LIGAND FREE ENERGY PREDICTED BY IDOCK:   -0.86 KCAL/MOL
REMARK 927      BINDING AFFINITY PREDICTED BY RF-SCORE:    0.00 PKD
ROOT
HETATM    1  N   UNL     1      -9.272   7.039  70.665  1.00  0.00    -0.158 NA 
HETATM    2  C   UNL     1      -9.850   8.251  70.844  1.00  0.00    -0.182 C  
HETATM    3  H2  UNL     1      -8.306   6.806  70.893  1.00  0.00     0.000 HD 
HETATM    4  H1  UNL     1      -9.954   6.395  70.266  1.00  0.00     0.000 HD 
HETATM    5  N   UNL     1     -11.088   8.438  70.539  1.00  0.00    -0.254 NA 
HETATM    6  N   UNL     1      -8.942   9.108  71.375  1.00  0.00    -0.318 NA 
HETATM    7  H2  UNL     1      -7.975   8.876  71.604  1.00  0.00     0.000 HD 
HETATM    8  H1  UNL     1      -9.377  10.020  71.511  1.00  0.00     0.000 HD 
HETATM    9  H   UNL     1     -11.654   7.676  70.167  1.00  0.00     0.000 HD 
ENDROOT
BRANCH   5  10
HETATM   10  C   UNL     1     -11.622   9.673  70.722  1.00  0.00    -0.321 A  
HETATM   11  N   UNL     1     -11.333  10.801  70.093  1.00  0.00    -0.308 NA 
HETATM   12  C   UNL     1     -12.119  11.850  70.561  1.00  0.00    -0.331 A  
HETATM   13  S   UNL     1     -12.871   9.834  71.911  1.00  0.00    -0.427 SA 
HETATM   14  C   UNL     1     -12.993  11.502  71.572  1.00  0.00    -0.380 A  
BRANCH  12  15
HETATM   15  C   UNL     1     -11.948  13.210  69.960  1.00  0.00    -0.321 C  
BRANCH  15  16
HETATM   16  S   UNL     1     -11.010  13.108  68.395  1.00  0.00    -0.274 SA 
BRANCH  16  17
HETATM   17  C   UNL     1     -10.258  14.772  68.344  1.00  0.00    -0.224 C  
BRANCH  17  18
HETATM   18  C   UNL     1      -9.648  15.163  67.004  1.00  0.00    -0.235 C  
BRANCH  18  19
HETATM   19  C   UNL     1     -10.323  16.382  66.375  1.00  0.00    -0.313 C  
HETATM   20  H2  UNL     1     -10.345  15.481  64.478  1.00  0.00     0.000 HD 
HETATM   21  N   UNL     1     -10.586  16.306  65.028  1.00  0.00    -0.659 NA 
HETATM   22  H1  UNL     1     -11.037  17.119  64.608  1.00  0.00     0.000 HD 
BRANCH  19  23
HETATM   23  N   UNL     1     -10.585  17.356  67.182  1.00  0.00    -0.306 N  
HETATM   24  H   UNL     1     -11.334  17.253  67.867  1.00  0.00     0.000 HD 
BRANCH  23  25
HETATM   25  S   UNL     1      -9.745  18.730  67.123  1.00  0.00    -0.314 S  
HETATM   26  O   UNL     1     -10.633  19.848  67.337  1.00  0.00    -0.419 OA 
HETATM   27  O   UNL     1      -8.850  18.684  65.991  1.00  0.00    -0.489 OA 
HETATM   28  N   UNL     1      -8.760  18.682  68.477  1.00  0.00    -0.330 N  
HETATM   29  H1  UNL     1      -8.228  19.551  68.439  1.00  0.00     0.000 HD 
HETATM   30  H2  UNL     1      -8.704  17.947  69.182  1.00  0.00     0.000 HD 
ENDBRANCH  23  25
ENDBRANCH  19  23
ENDBRANCH  18  19
ENDBRANCH  17  18
ENDBRANCH  16  17
ENDBRANCH  15  16
ENDBRANCH  12  15
ENDBRANCH   5  10
TORSDOF 8
ENDMDL
MODEL      179
REMARK 921   NORMALIZED FREE ENERGY PREDICTED BY IDOCK:   -4.25 KCAL/MOL
REMARK 922        TOTAL FREE ENERGY PREDICTED BY IDOCK:   -7.42 KCAL/MOL
REMARK 923 INTER-LIGAND FREE ENERGY PREDICTED BY IDOCK:   -6.43 KCAL/MOL
REMARK 924 INTRA-LIGAND FREE ENERGY PREDICTED BY IDOCK:   -0.99 KCAL/MOL
REMARK 927      BINDING AFFINITY PREDICTED BY RF-SCORE:    0.00 PKD
ROOT
HETATM    1  N   UNL     1     -10.382   4.088  65.721  1.00  0.00    -0.452 NA 
HETATM    2  C   UNL     1     -10.509   4.917  66.785  1.00  0.00    -0.182 C  
HETATM    3  H2  UNL     1     -10.789   4.244  64.800  1.00  0.00     0.000 HD 
HETATM    4  H1  UNL     1      -9.814   3.284  65.987  1.00  0.00     0.000 HD 
HETATM    5  N   UNL     1      -9.938   4.638  67.906  1.00  0.00    -0.116 NA 
HETATM    6  N   UNL     1     -11.265   5.988  66.432  1.00  0.00    -0.722 NA 
HETATM    7  H2  UNL     1     -11.672   6.144  65.511  1.00  0.00     0.000 HD 
HETATM    8  H1  UNL     1     -11.360   6.613  67.233  1.00  0.00     0.000 HD 
HETATM    9  H   UNL     1      -9.374   3.794  68.007  1.00  0.00     0.000 HD 
ENDROOT
BRANCH   5  10
HETATM   10  C   UNL     1     -10.104   5.490  68.950  1.00  0.00    -0.198 A  
HETATM   11  N   UNL     1     -11.221   6.044  69.396  1.00  0.00    -0.388 NA 
HETATM   12  C   UNL     1     -10.971   6.848  70.504  1.00  0.00    -0.273 A  
HETATM   13  S   UNL     1      -8.696   5.919  69.863  1.00  0.00    -0.130 SA 
HETATM   14  C   UNL     1      -9.644   6.913  70.876  1.00  0.00    -0.164 A  
BRANCH  12  15
HETATM   15  C   UNL     1     -12.116   7.552  71.163  1.00  0.00    -0.307 C  
BRANCH  15  16
HETATM   16  S   UNL     1     -11.589   9.183  71.797  1.00  0.00    -0.379 SA 
BRANCH  16  17
HETATM   17  C   UNL     1     -12.641  10.290  70.794  1.00  0.00    -0.352 C  
BRANCH  17  18
HETATM   18  C   UNL     1     -11.979  10.844  69.537  1.00  0.00    -0.401 C  
BRANCH  18  19
HETATM   19  C   UNL     1     -11.585  12.315  69.672  1.00  0.00    -0.278 C  
HETATM   20  H2  UNL     1     -12.934  12.606  71.255  1.00  0.00     0.000 HD 
HETATM   21  N   UNL     1     -12.230  13.032  70.651  1.00  0.00    -0.448 NA 
HETATM   22  H1  UNL     1     -11.968  14.014  70.741  1.00  0.00     0.000 HD 
BRANCH  19  23
HETATM   23  N   UNL     1     -10.675  12.728  68.853  1.00  0.00    -0.377 N  
HETATM   24  H   UNL     1     -10.009  12.061  68.464  1.00  0.00     0.000 HD 
BRANCH  23  25
HETATM   25  S   UNL     1     -10.577  14.282  68.439  1.00  0.00    -0.259 S  
HETATM   26  O   UNL     1     -11.879  14.756  68.034  1.00  0.00    -0.336 OA 
HETATM   27  O   UNL     1      -9.413  14.474  67.607  1.00  0.00    -0.203 OA 
HETATM   28  N   UNL     1     -10.242  15.081  69.872  1.00  0.00    -0.461 N  
HETATM   29  H1  UNL     1     -10.180  16.064  69.610  1.00  0.00     0.000 HD 
HETATM   30  H2  UNL     1     -10.126  14.675  70.801  1.00  0.00     0.000 HD 
ENDBRANCH  23  25
ENDBRANCH  19  23
ENDBRANCH  18  19
ENDBRANCH  17  18
ENDBRANCH  16  17
ENDBRANCH  15  16
ENDBRANCH  12  15
ENDBRANCH   5  10
TORSDOF 8
ENDMDL
MODEL      180
REMARK 921   NORMALIZED FREE ENERGY PREDICTED BY IDOCK:   -4.25 KCAL/MOL
REMARK 922        TOTAL FREE ENERGY PREDICTED BY IDOCK:   -7.41 KCAL/MOL
REMARK 923 INTER-LIGAND FREE ENERGY PREDICTED BY IDOCK:   -6.89 KCAL/MOL
REMARK 924 INTRA-LIGAND FREE ENERGY PREDICTED BY IDOCK:   -0.52 KCAL/MOL
REMARK 927      BINDING AFFINITY PREDICTED BY RF-SCORE:    0.00 PKD
ROOT
HETATM    1  N   UNL     1     -13.164   8.830  72.931  1.00  0.00    -0.793 NA 
HETATM    2  C   UNL     1     -12.809   9.699  71.954  1.00  0.00    -0.425 C  
HETATM    3  H2  UNL     1     -13.806   9.033  73.697  1.00  0.00     0.000 HD 
HETATM    4  H1  UNL     1     -12.689   7.940  72.780  1.00  0.00     0.000 HD 
HETATM    5  N   UNL     1     -12.001   9.337  71.018  1.00  0.00    -0.299 NA 
HETATM    6  N   UNL     1     -13.440  10.883  72.154  1.00  0.00    -0.527 NA 
HETATM    7  H2  UNL     1     -14.082  11.087  72.920  1.00  0.00     0.000 HD 
HETATM    8  H1  UNL     1     -13.173  11.537  71.419  1.00  0.00     0.000 HD 
HETATM    9  H   UNL     1     -11.625   8.389  70.991  1.00  0.00     0.000 HD 
ENDROOT
BRANCH   5  10
HETATM   10  C   UNL     1     -11.662  10.245  70.066  1.00  0.00    -0.254 A  
HETATM   11  N   UNL     1     -12.154  11.458  69.868  1.00  0.00    -0.327 NA 
HETATM   12  C   UNL     1     -11.524  12.082  68.795  1.00  0.00    -0.300 A  
HETATM   13  S   UNL     1     -10.404   9.809  68.958  1.00  0.00    -0.218 SA 
HETATM   14  C   UNL     1     -10.563  11.313  68.170  1.00  0.00    -0.192 A  
BRANCH  12  15
HETATM   15  C   UNL     1     -11.934  13.472  68.421  1.00  0.00    -0.343 C  
BRANCH  15  16
HETATM   16  S   UNL     1     -10.570  14.339  67.569  1.00  0.00    -0.262 SA 
BRANCH  16  17
HETATM   17  C   UNL     1     -10.028  15.487  68.882  1.00  0.00    -0.218 C  
BRANCH  17  18
HETATM   18  C   UNL     1      -8.730  16.232  68.593  1.00  0.00    -0.226 C  
BRANCH  18  19
HETATM   19  C   UNL     1      -8.787  17.047  67.301  1.00  0.00    -0.211 C  
HETATM   20  H2  UNL     1      -7.162  15.997  66.483  1.00  0.00     0.000 HD 
HETATM   21  N   UNL     1      -7.854  16.733  66.341  1.00  0.00    -0.298 NA 
HETATM   22  H1  UNL     1      -7.892  17.277  65.479  1.00  0.00     0.000 HD 
BRANCH  19  23
HETATM   23  N   UNL     1      -9.716  17.942  67.244  1.00  0.00    -0.282 N  
HETATM   24  H   UNL     1     -10.664  17.667  66.987  1.00  0.00     0.000 HD 
BRANCH  23  25
HETATM   25  S   UNL     1      -9.399  19.487  67.574  1.00  0.00    -0.331 S  
HETATM   26  O   UNL     1      -7.980  19.654  67.783  1.00  0.00    -0.287 OA 
HETATM   27  O   UNL     1     -10.364  19.970  68.532  1.00  0.00    -0.438 OA 
HETATM   28  N   UNL     1      -9.734  20.301  66.149  1.00  0.00    -0.657 N  
HETATM   29  H1  UNL     1      -9.533  21.278  66.358  1.00  0.00     0.000 HD 
HETATM   30  H2  UNL     1     -10.065  19.906  65.268  1.00  0.00     0.000 HD 
ENDBRANCH  23  25
ENDBRANCH  19  23
ENDBRANCH  18  19
ENDBRANCH  17  18
ENDBRANCH  16  17
ENDBRANCH  15  16
ENDBRANCH  12  15
ENDBRANCH   5  10
TORSDOF 8
ENDMDL
MODEL      181
REMARK 921   NORMALIZED FREE ENERGY PREDICTED BY IDOCK:   -4.24 KCAL/MOL
REMARK 922        TOTAL FREE ENERGY PREDICTED BY IDOCK:   -7.40 KCAL/MOL
REMARK 923 INTER-LIGAND FREE ENERGY PREDICTED BY IDOCK:   -6.29 KCAL/MOL
REMARK 924 INTRA-LIGAND FREE ENERGY PREDICTED BY IDOCK:   -1.11 KCAL/MOL
REMARK 927      BINDING AFFINITY PREDICTED BY RF-SCORE:    0.00 PKD
ROOT
HETATM    1  N   UNL     1      -6.733  10.270  66.847  1.00  0.00    -0.078 NA 
HETATM    2  C   UNL     1      -7.979  10.770  66.664  1.00  0.00    -0.139 C  
HETATM    3  H2  UNL     1      -6.399   9.815  67.696  1.00  0.00     0.000 HD 
HETATM    4  H1  UNL     1      -6.183  10.419  66.002  1.00  0.00     0.000 HD 
HETATM    5  N   UNL     1      -8.310  11.312  65.543  1.00  0.00    -0.373 NA 
HETATM    6  N   UNL     1      -8.713  10.572  67.789  1.00  0.00    -0.122 NA 
HETATM    7  H2  UNL     1      -8.378  10.117  68.638  1.00  0.00     0.000 HD 
HETATM    8  H1  UNL     1      -9.651  10.948  67.651  1.00  0.00     0.000 HD 
HETATM    9  H   UNL     1      -7.643  11.364  64.773  1.00  0.00     0.000 HD 
ENDROOT
BRANCH   5  10
HETATM   10  C   UNL     1      -9.564  11.813  65.408  1.00  0.00    -0.190 A  
HETATM   11  N   UNL     1     -10.189  12.695  66.174  1.00  0.00    -0.253 NA 
HETATM   12  C   UNL     1     -11.465  12.963  65.687  1.00  0.00    -0.332 A  
HETATM   13  S   UNL     1     -10.500  11.274  64.054  1.00  0.00    -0.402 SA 
HETATM   14  C   UNL     1     -11.805  12.254  64.552  1.00  0.00    -0.369 A  
BRANCH  12  15
HETATM   15  C   UNL     1     -12.327  13.949  66.412  1.00  0.00    -0.426 C  
BRANCH  15  16
HETATM   16  S   UNL     1     -11.846  14.050  68.172  1.00  0.00    -0.355 SA 
BRANCH  16  17
HETATM   17  C   UNL     1     -11.438  15.826  68.308  1.00  0.00    -0.337 C  
BRANCH  17  18
HETATM   18  C   UNL     1     -10.218  16.270  67.509  1.00  0.00    -0.270 C  
BRANCH  18  19
HETATM   19  C   UNL     1      -9.836  17.727  67.768  1.00  0.00    -0.295 C  
HETATM   20  H2  UNL     1     -10.823  17.732  69.621  1.00  0.00     0.000 HD 
HETATM   21  N   UNL     1     -10.273  18.271  68.952  1.00  0.00    -0.442 NA 
HETATM   22  H1  UNL     1     -10.018  19.243  69.125  1.00  0.00     0.000 HD 
BRANCH  19  23
HETATM   23  N   UNL     1      -9.130  18.293  66.846  1.00  0.00    -0.275 N  
HETATM   24  H   UNL     1      -9.013  17.827  65.945  1.00  0.00     0.000 HD 
BRANCH  23  25
HETATM   25  S   UNL     1      -8.431  19.722  67.098  1.00  0.00    -0.331 S  
HETATM   26  O   UNL     1      -7.627  20.075  65.952  1.00  0.00    -0.326 OA 
HETATM   27  O   UNL     1      -7.890  19.751  68.436  1.00  0.00    -0.328 OA 
HETATM   28  N   UNL     1      -9.698  20.817  67.102  1.00  0.00    -0.652 N  
HETATM   29  H1  UNL     1      -9.256  21.722  67.262  1.00  0.00     0.000 HD 
HETATM   30  H2  UNL     1     -10.692  20.623  66.974  1.00  0.00     0.000 HD 
ENDBRANCH  23  25
ENDBRANCH  19  23
ENDBRANCH  18  19
ENDBRANCH  17  18
ENDBRANCH  16  17
ENDBRANCH  15  16
ENDBRANCH  12  15
ENDBRANCH   5  10
TORSDOF 8
ENDMDL
MODEL      182
REMARK 921   NORMALIZED FREE ENERGY PREDICTED BY IDOCK:   -4.23 KCAL/MOL
REMARK 922        TOTAL FREE ENERGY PREDICTED BY IDOCK:   -7.39 KCAL/MOL
REMARK 923 INTER-LIGAND FREE ENERGY PREDICTED BY IDOCK:   -6.34 KCAL/MOL
REMARK 924 INTRA-LIGAND FREE ENERGY PREDICTED BY IDOCK:   -1.05 KCAL/MOL
REMARK 927      BINDING AFFINITY PREDICTED BY RF-SCORE:    0.00 PKD
ROOT
HETATM    1  N   UNL     1     -11.078   6.069  66.597  1.00  0.00    -0.747 NA 
HETATM    2  C   UNL     1     -10.780   7.317  67.033  1.00  0.00    -0.336 C  
HETATM    3  H2  UNL     1     -11.489   5.329  67.165  1.00  0.00     0.000 HD 
HETATM    4  H1  UNL     1     -10.828   5.987  65.613  1.00  0.00     0.000 HD 
HETATM    5  N   UNL     1     -10.277   8.189  66.229  1.00  0.00    -0.445 NA 
HETATM    6  N   UNL     1     -11.113   7.427  68.344  1.00  0.00    -0.438 NA 
HETATM    7  H2  UNL     1     -11.524   6.687  68.912  1.00  0.00     0.000 HD 
HETATM    8  H1  UNL     1     -10.889   8.366  68.672  1.00  0.00     0.000 HD 
HETATM    9  H   UNL     1     -10.106   7.957  65.250  1.00  0.00     0.000 HD 
ENDROOT
BRANCH   5  10
HETATM   10  C   UNL     1      -9.981   9.423  66.711  1.00  0.00    -0.239 A  
HETATM   11  N   UNL     1     -10.803  10.341  67.195  1.00  0.00    -0.246 NA 
HETATM   12  C   UNL     1     -10.102  11.472  67.606  1.00  0.00    -0.184 A  
HETATM   13  S   UNL     1      -8.313   9.891  66.740  1.00  0.00    -0.125 SA 
HETATM   14  C   UNL     1      -8.738  11.404  67.405  1.00  0.00    -0.145 A  
BRANCH  12  15
HETATM   15  C   UNL     1     -10.860  12.620  68.196  1.00  0.00    -0.227 C  
BRANCH  15  16
HETATM   16  S   UNL     1     -12.004  13.337  66.965  1.00  0.00    -0.331 SA 
BRANCH  16  17
HETATM   17  C   UNL     1     -11.101  14.861  66.515  1.00  0.00    -0.341 C  
BRANCH  17  18
HETATM   18  C   UNL     1      -9.835  15.123  67.322  1.00  0.00    -0.228 C  
BRANCH  18  19
HETATM   19  C   UNL     1      -9.967  16.319  68.264  1.00  0.00    -0.236 C  
HETATM   20  H2  UNL     1     -11.751  15.571  69.082  1.00  0.00     0.000 HD 
HETATM   21  N   UNL     1     -11.063  16.325  69.094  1.00  0.00    -0.318 NA 
HETATM   22  H1  UNL     1     -11.151  17.124  69.722  1.00  0.00     0.000 HD 
BRANCH  19  23
HETATM   23  N   UNL     1      -9.024  17.199  68.187  1.00  0.00    -0.233 N  
HETATM   24  H   UNL     1      -8.127  17.015  68.637  1.00  0.00     0.000 HD 
BRANCH  23  25
HETATM   25  S   UNL     1      -9.245  18.582  67.390  1.00  0.00    -0.281 S  
HETATM   26  O   UNL     1      -9.017  18.368  65.981  1.00  0.00    -0.497 OA 
HETATM   27  O   UNL     1      -8.585  19.647  68.107  1.00  0.00    -0.315 OA 
HETATM   28  N   UNL     1     -10.884  18.894  67.531  1.00  0.00    -0.428 N  
HETATM   29  H1  UNL     1     -11.024  19.769  67.027  1.00  0.00     0.000 HD 
HETATM   30  H2  UNL     1     -11.587  18.333  68.014  1.00  0.00     0.000 HD 
ENDBRANCH  23  25
ENDBRANCH  19  23
ENDBRANCH  18  19
ENDBRANCH  17  18
ENDBRANCH  16  17
ENDBRANCH  15  16
ENDBRANCH  12  15
ENDBRANCH   5  10
TORSDOF 8
ENDMDL
MODEL      183
REMARK 921   NORMALIZED FREE ENERGY PREDICTED BY IDOCK:   -4.23 KCAL/MOL
REMARK 922        TOTAL FREE ENERGY PREDICTED BY IDOCK:   -7.39 KCAL/MOL
REMARK 923 INTER-LIGAND FREE ENERGY PREDICTED BY IDOCK:   -6.27 KCAL/MOL
REMARK 924 INTRA-LIGAND FREE ENERGY PREDICTED BY IDOCK:   -1.11 KCAL/MOL
REMARK 927      BINDING AFFINITY PREDICTED BY RF-SCORE:    0.00 PKD
ROOT
HETATM    1  N   UNL     1     -10.251   2.992  64.361  1.00  0.00    -0.366 NA 
HETATM    2  C   UNL     1     -10.342   4.114  65.115  1.00  0.00    -0.181 C  
HETATM    3  H2  UNL     1     -11.008   2.590  63.807  1.00  0.00     0.000 HD 
HETATM    4  H1  UNL     1      -9.308   2.612  64.433  1.00  0.00     0.000 HD 
HETATM    5  N   UNL     1      -9.319   4.550  65.766  1.00  0.00    -0.151 NA 
HETATM    6  N   UNL     1     -11.598   4.619  65.020  1.00  0.00    -1.036 NA 
HETATM    7  H2  UNL     1     -12.354   4.218  64.466  1.00  0.00     0.000 HD 
HETATM    8  H1  UNL     1     -11.666   5.464  65.587  1.00  0.00     0.000 HD 
HETATM    9  H   UNL     1      -8.424   4.064  65.716  1.00  0.00     0.000 HD 
ENDROOT
BRANCH   5  10
HETATM   10  C   UNL     1      -9.459   5.670  66.521  1.00  0.00    -0.152 A  
HETATM   11  N   UNL     1     -10.107   5.820  67.666  1.00  0.00    -0.157 NA 
HETATM   12  C   UNL     1      -9.998   7.127  68.133  1.00  0.00    -0.151 A  
HETATM   13  S   UNL     1      -8.681   7.113  65.961  1.00  0.00    -0.126 SA 
HETATM   14  C   UNL     1      -9.276   7.970  67.311  1.00  0.00    -0.139 A  
BRANCH  12  15
HETATM   15  C   UNL     1     -10.655   7.492  69.427  1.00  0.00    -0.223 C  
BRANCH  15  16
HETATM   16  S   UNL     1      -9.712   8.804  70.280  1.00  0.00    -0.185 SA 
BRANCH  16  17
HETATM   17  C   UNL     1     -11.024   9.545  71.312  1.00  0.00    -0.370 C  
BRANCH  17  18
HETATM   18  C   UNL     1     -12.202  10.126  70.539  1.00  0.00    -0.352 C  
BRANCH  18  19
HETATM   19  C   UNL     1     -11.769  11.034  69.388  1.00  0.00    -0.323 C  
HETATM   20  H2  UNL     1     -12.553   9.715  67.955  1.00  0.00     0.000 HD 
HETATM   21  N   UNL     1     -12.068  10.597  68.120  1.00  0.00    -0.707 NA 
HETATM   22  H1  UNL     1     -11.779  11.203  67.352  1.00  0.00     0.000 HD 
BRANCH  19  23
HETATM   23  N   UNL     1     -11.172  12.127  69.732  1.00  0.00    -0.488 N  
HETATM   24  H   UNL     1     -10.787  12.215  70.673  1.00  0.00     0.000 HD 
BRANCH  23  25
HETATM   25  S   UNL     1     -11.028  13.353  68.697  1.00  0.00    -0.267 S  
HETATM   26  O   UNL     1     -12.334  13.895  68.406  1.00  0.00    -0.261 OA 
HETATM   27  O   UNL     1     -10.118  12.973  67.643  1.00  0.00    -0.211 OA 
HETATM   28  N   UNL     1     -10.237  14.548  69.564  1.00  0.00    -0.428 N  
HETATM   29  H1  UNL     1     -10.146  15.324  68.909  1.00  0.00     0.000 HD 
HETATM   30  H2  UNL     1      -9.918  14.509  70.532  1.00  0.00     0.000 HD 
ENDBRANCH  23  25
ENDBRANCH  19  23
ENDBRANCH  18  19
ENDBRANCH  17  18
ENDBRANCH  16  17
ENDBRANCH  15  16
ENDBRANCH  12  15
ENDBRANCH   5  10
TORSDOF 8
ENDMDL
MODEL      184
REMARK 921   NORMALIZED FREE ENERGY PREDICTED BY IDOCK:   -4.23 KCAL/MOL
REMARK 922        TOTAL FREE ENERGY PREDICTED BY IDOCK:   -7.38 KCAL/MOL
REMARK 923 INTER-LIGAND FREE ENERGY PREDICTED BY IDOCK:   -6.24 KCAL/MOL
REMARK 924 INTRA-LIGAND FREE ENERGY PREDICTED BY IDOCK:   -1.15 KCAL/MOL
REMARK 927      BINDING AFFINITY PREDICTED BY RF-SCORE:    0.00 PKD
ROOT
HETATM    1  N   UNL     1     -13.604  15.689  70.864  1.00  0.00    -0.790 NA 
HETATM    2  C   UNL     1     -12.565  15.073  70.249  1.00  0.00    -0.317 C  
HETATM    3  H2  UNL     1     -13.705  15.810  71.872  1.00  0.00     0.000 HD 
HETATM    4  H1  UNL     1     -14.268  16.013  70.162  1.00  0.00     0.000 HD 
HETATM    5  N   UNL     1     -12.522  14.988  68.964  1.00  0.00    -0.578 NA 
HETATM    6  N   UNL     1     -11.681  14.642  71.183  1.00  0.00    -0.449 NA 
HETATM    7  H2  UNL     1     -11.782  14.762  72.191  1.00  0.00     0.000 HD 
HETATM    8  H1  UNL     1     -10.899  14.178  70.720  1.00  0.00     0.000 HD 
HETATM    9  H   UNL     1     -13.263  15.391  68.390  1.00  0.00     0.000 HD 
ENDROOT
BRANCH   5  10
HETATM   10  C   UNL     1     -11.470  14.350  68.390  1.00  0.00    -0.301 A  
HETATM   11  N   UNL     1     -10.867  13.236  68.777  1.00  0.00    -0.249 NA 
HETATM   12  C   UNL     1      -9.835  12.899  67.906  1.00  0.00    -0.227 A  
HETATM   13  S   UNL     1     -10.812  15.037  66.943  1.00  0.00    -0.318 SA 
HETATM   14  C   UNL     1      -9.652  13.788  66.865  1.00  0.00    -0.262 A  
BRANCH  12  15
HETATM   15  C   UNL     1      -9.041  11.658  68.168  1.00  0.00    -0.183 C  
BRANCH  15  16
HETATM   16  S   UNL     1     -10.036  10.168  67.809  1.00  0.00    -0.191 SA 
BRANCH  16  17
HETATM   17  C   UNL     1      -8.944   8.865  68.475  1.00  0.00    -0.134 C  
BRANCH  17  18
HETATM   18  C   UNL     1      -8.606   9.000  69.955  1.00  0.00    -0.157 C  
BRANCH  18  19
HETATM   19  C   UNL     1      -9.451   8.087  70.844  1.00  0.00    -0.161 C  
HETATM   20  H2  UNL     1      -8.039   6.538  70.717  1.00  0.00     0.000 HD 
HETATM   21  N   UNL     1      -8.936   6.839  71.099  1.00  0.00    -0.147 NA 
HETATM   22  H1  UNL     1      -9.499   6.229  71.692  1.00  0.00     0.000 HD 
BRANCH  19  23
HETATM   23  N   UNL     1     -10.561   8.592  71.271  1.00  0.00    -0.220 N  
HETATM   24  H   UNL     1     -10.612   9.590  71.478  1.00  0.00     0.000 HD 
BRANCH  23  25
HETATM   25  S   UNL     1     -11.863   7.668  71.483  1.00  0.00    -0.307 S  
HETATM   26  O   UNL     1     -13.045   8.497  71.505  1.00  0.00    -0.325 OA 
HETATM   27  O   UNL     1     -11.595   6.711  72.530  1.00  0.00    -0.266 OA 
HETATM   28  N   UNL     1     -11.979   6.771  70.073  1.00  0.00    -0.656 N  
HETATM   29  H1  UNL     1     -12.803   6.186  70.207  1.00  0.00     0.000 HD 
HETATM   30  H2  UNL     1     -11.362   6.802  69.261  1.00  0.00     0.000 HD 
ENDBRANCH  23  25
ENDBRANCH  19  23
ENDBRANCH  18  19
ENDBRANCH  17  18
ENDBRANCH  16  17
ENDBRANCH  15  16
ENDBRANCH  12  15
ENDBRANCH   5  10
TORSDOF 8
ENDMDL
MODEL      185
REMARK 921   NORMALIZED FREE ENERGY PREDICTED BY IDOCK:   -4.23 KCAL/MOL
REMARK 922        TOTAL FREE ENERGY PREDICTED BY IDOCK:   -7.38 KCAL/MOL
REMARK 923 INTER-LIGAND FREE ENERGY PREDICTED BY IDOCK:   -6.60 KCAL/MOL
REMARK 924 INTRA-LIGAND FREE ENERGY PREDICTED BY IDOCK:   -0.79 KCAL/MOL
REMARK 927      BINDING AFFINITY PREDICTED BY RF-SCORE:    0.00 PKD
ROOT
HETATM    1  N   UNL     1      -9.453   4.121  69.333  1.00  0.00    -0.176 NA 
HETATM    2  C   UNL     1      -9.762   5.346  69.823  1.00  0.00    -0.184 C  
HETATM    3  H2  UNL     1      -8.528   3.694  69.353  1.00  0.00     0.000 HD 
HETATM    4  H1  UNL     1     -10.292   3.694  68.941  1.00  0.00     0.000 HD 
HETATM    5  N   UNL     1     -10.970   5.790  69.765  1.00  0.00    -0.363 NA 
HETATM    6  N   UNL     1      -8.646   5.916  70.344  1.00  0.00    -0.133 NA 
HETATM    7  H2  UNL     1      -7.721   5.489  70.365  1.00  0.00     0.000 HD 
HETATM    8  H1  UNL     1      -8.878   6.838  70.714  1.00  0.00     0.000 HD 
HETATM    9  H   UNL     1     -11.714   5.223  69.359  1.00  0.00     0.000 HD 
ENDROOT
BRANCH   5  10
HETATM   10  C   UNL     1     -11.232   7.029  70.256  1.00  0.00    -0.298 A  
HETATM   11  N   UNL     1     -10.860   8.205  69.774  1.00  0.00    -0.227 NA 
HETATM   12  C   UNL     1     -11.348   9.244  70.562  1.00  0.00    -0.258 A  
HETATM   13  S   UNL     1     -12.198   7.133  71.689  1.00  0.00    -0.367 SA 
HETATM   14  C   UNL     1     -12.076   8.834  71.661  1.00  0.00    -0.337 A  
BRANCH  12  15
HETATM   15  C   UNL     1     -11.044  10.656  70.170  1.00  0.00    -0.268 C  
BRANCH  15  16
HETATM   16  S   UNL     1     -12.380  11.777  70.715  1.00  0.00    -0.257 SA 
BRANCH  16  17
HETATM   17  C   UNL     1     -11.980  13.273  69.747  1.00  0.00    -0.324 C  
BRANCH  17  18
HETATM   18  C   UNL     1     -11.800  13.044  68.251  1.00  0.00    -0.381 C  
BRANCH  18  19
HETATM   19  C   UNL     1     -11.142  14.228  67.542  1.00  0.00    -0.298 C  
HETATM   20  H2  UNL     1      -9.754  14.480  69.098  1.00  0.00     0.000 HD 
HETATM   21  N   UNL     1     -10.083  14.816  68.192  1.00  0.00    -0.218 NA 
HETATM   22  H1  UNL     1      -9.644  15.606  67.720  1.00  0.00     0.000 HD 
BRANCH  19  23
HETATM   23  N   UNL     1     -11.648  14.547  66.397  1.00  0.00    -0.365 N  
HETATM   24  H   UNL     1     -12.660  14.534  66.273  1.00  0.00     0.000 HD 
BRANCH  23  25
HETATM   25  S   UNL     1     -10.701  14.965  65.162  1.00  0.00    -0.435 S  
HETATM   26  O   UNL     1     -10.053  13.789  64.631  1.00  0.00    -0.363 OA 
HETATM   27  O   UNL     1      -9.948  16.142  65.524  1.00  0.00    -0.450 OA 
HETATM   28  N   UNL     1     -11.763  15.462  63.965  1.00  0.00    -0.894 N  
HETATM   29  H1  UNL     1     -11.164  15.726  63.184  1.00  0.00     0.000 HD 
HETATM   30  H2  UNL     1     -12.782  15.493  64.009  1.00  0.00     0.000 HD 
ENDBRANCH  23  25
ENDBRANCH  19  23
ENDBRANCH  18  19
ENDBRANCH  17  18
ENDBRANCH  16  17
ENDBRANCH  15  16
ENDBRANCH  12  15
ENDBRANCH   5  10
TORSDOF 8
ENDMDL
MODEL      186
REMARK 921   NORMALIZED FREE ENERGY PREDICTED BY IDOCK:   -4.22 KCAL/MOL
REMARK 922        TOTAL FREE ENERGY PREDICTED BY IDOCK:   -7.38 KCAL/MOL
REMARK 923 INTER-LIGAND FREE ENERGY PREDICTED BY IDOCK:   -6.78 KCAL/MOL
REMARK 924 INTRA-LIGAND FREE ENERGY PREDICTED BY IDOCK:   -0.59 KCAL/MOL
REMARK 927      BINDING AFFINITY PREDICTED BY RF-SCORE:    0.00 PKD
ROOT
HETATM    1  N   UNL     1      -7.583   8.611  73.791  1.00  0.00    -0.406 NA 
HETATM    2  C   UNL     1      -8.092   8.150  72.623  1.00  0.00    -0.160 C  
HETATM    3  H2  UNL     1      -6.602   8.563  74.066  1.00  0.00     0.000 HD 
HETATM    4  H1  UNL     1      -8.333   9.014  74.351  1.00  0.00     0.000 HD 
HETATM    5  N   UNL     1      -9.348   8.275  72.362  1.00  0.00    -0.241 NA 
HETATM    6  N   UNL     1      -7.094   7.613  71.877  1.00  0.00    -0.062 NA 
HETATM    7  H2  UNL     1      -6.113   7.565  72.153  1.00  0.00     0.000 HD 
HETATM    8  H1  UNL     1      -7.477   7.267  70.998  1.00  0.00     0.000 HD 
HETATM    9  H   UNL     1      -9.975   8.731  73.024  1.00  0.00     0.000 HD 
ENDROOT
BRANCH   5  10
HETATM   10  C   UNL     1      -9.818   7.786  71.186  1.00  0.00    -0.169 A  
HETATM   11  N   UNL     1      -9.647   8.266  69.963  1.00  0.00    -0.167 NA 
HETATM   12  C   UNL     1     -10.278   7.461  69.019  1.00  0.00    -0.199 A  
HETATM   13  S   UNL     1     -10.751   6.327  71.242  1.00  0.00    -0.258 SA 
HETATM   14  C   UNL     1     -10.948   6.376  69.548  1.00  0.00    -0.359 A  
BRANCH  12  15
HETATM   15  C   UNL     1     -10.187   7.833  67.572  1.00  0.00    -0.235 C  
BRANCH  15  16
HETATM   16  S   UNL     1      -8.891   9.095  67.313  1.00  0.00    -0.123 SA 
BRANCH  16  17
HETATM   17  C   UNL     1      -9.100   9.430  65.529  1.00  0.00    -0.218 C  
BRANCH  17  18
HETATM   18  C   UNL     1     -10.324  10.262  65.168  1.00  0.00    -0.198 C  
BRANCH  18  19
HETATM   19  C   UNL     1     -10.160  11.023  63.852  1.00  0.00    -0.356 C  
HETATM   20  H2  UNL     1      -8.162  10.405  63.661  1.00  0.00     0.000 HD 
HETATM   21  N   UNL     1      -8.926  10.943  63.251  1.00  0.00    -0.302 NA 
HETATM   22  H1  UNL     1      -8.816  11.450  62.373  1.00  0.00     0.000 HD 
BRANCH  19  23
HETATM   23  N   UNL     1     -11.207  11.655  63.436  1.00  0.00    -0.701 N  
HETATM   24  H   UNL     1     -11.666  11.357  62.575  1.00  0.00     0.000 HD 
BRANCH  23  25
HETATM   25  S   UNL     1     -11.798  12.908  64.259  1.00  0.00    -0.428 S  
HETATM   26  O   UNL     1     -10.714  13.641  64.866  1.00  0.00    -0.343 OA 
HETATM   27  O   UNL     1     -12.936  12.468  65.030  1.00  0.00    -0.779 OA 
HETATM   28  N   UNL     1     -12.419  13.929  63.085  1.00  0.00    -1.079 N  
HETATM   29  H1  UNL     1     -12.794  14.722  63.606  1.00  0.00     0.000 HD 
HETATM   30  H2  UNL     1     -12.423  13.789  62.074  1.00  0.00     0.000 HD 
ENDBRANCH  23  25
ENDBRANCH  19  23
ENDBRANCH  18  19
ENDBRANCH  17  18
ENDBRANCH  16  17
ENDBRANCH  15  16
ENDBRANCH  12  15
ENDBRANCH   5  10
TORSDOF 8
ENDMDL
MODEL      187
REMARK 921   NORMALIZED FREE ENERGY PREDICTED BY IDOCK:   -4.22 KCAL/MOL
REMARK 922        TOTAL FREE ENERGY PREDICTED BY IDOCK:   -7.37 KCAL/MOL
REMARK 923 INTER-LIGAND FREE ENERGY PREDICTED BY IDOCK:   -6.32 KCAL/MOL
REMARK 924 INTRA-LIGAND FREE ENERGY PREDICTED BY IDOCK:   -1.06 KCAL/MOL
REMARK 927      BINDING AFFINITY PREDICTED BY RF-SCORE:    0.00 PKD
ROOT
HETATM    1  N   UNL     1     -11.822   9.007  71.962  1.00  0.00    -0.366 NA 
HETATM    2  C   UNL     1     -11.421   9.457  70.749  1.00  0.00    -0.300 C  
HETATM    3  H2  UNL     1     -12.494   9.472  72.571  1.00  0.00     0.000 HD 
HETATM    4  H1  UNL     1     -11.346   8.129  72.170  1.00  0.00     0.000 HD 
HETATM    5  N   UNL     1     -10.577   8.784  70.046  1.00  0.00    -0.220 NA 
HETATM    6  N   UNL     1     -12.054  10.625  70.471  1.00  0.00    -0.324 NA 
HETATM    7  H2  UNL     1     -12.726  11.090  71.081  1.00  0.00     0.000 HD 
HETATM    8  H1  UNL     1     -11.752  10.964  69.558  1.00  0.00     0.000 HD 
HETATM    9  H   UNL     1     -10.205   7.897  70.387  1.00  0.00     0.000 HD 
ENDROOT
BRANCH   5  10
HETATM   10  C   UNL     1     -10.192   9.279  68.842  1.00  0.00    -0.202 A  
HETATM   11  N   UNL     1      -9.615  10.440  68.572  1.00  0.00    -0.152 NA 
HETATM   12  C   UNL     1      -9.362  10.566  67.208  1.00  0.00    -0.146 A  
HETATM   13  S   UNL     1     -10.449   8.283  67.448  1.00  0.00    -0.256 SA 
HETATM   14  C   UNL     1      -9.778   9.492  66.448  1.00  0.00    -0.232 A  
BRANCH  12  15
HETATM   15  C   UNL     1      -8.699  11.810  66.706  1.00  0.00    -0.192 C  
BRANCH  15  16
HETATM   16  S   UNL     1      -9.106  13.234  67.776  1.00  0.00    -0.213 SA 
BRANCH  16  17
HETATM   17  C   UNL     1     -10.694  13.762  67.042  1.00  0.00    -0.283 C  
BRANCH  17  18
HETATM   18  C   UNL     1     -10.600  14.301  65.619  1.00  0.00    -0.328 C  
BRANCH  18  19
HETATM   19  C   UNL     1     -10.775  15.817  65.544  1.00  0.00    -0.383 C  
HETATM   20  H2  UNL     1     -11.055  15.754  63.464  1.00  0.00     0.000 HD 
HETATM   21  N   UNL     1     -11.004  16.344  64.296  1.00  0.00    -1.139 NA 
HETATM   22  H1  UNL     1     -11.121  17.356  64.245  1.00  0.00     0.000 HD 
BRANCH  19  23
HETATM   23  N   UNL     1     -10.697  16.446  66.670  1.00  0.00    -0.233 N  
HETATM   24  H   UNL     1     -11.443  16.340  67.358  1.00  0.00     0.000 HD 
BRANCH  23  25
HETATM   25  S   UNL     1      -9.439  17.396  67.004  1.00  0.00    -0.275 S  
HETATM   26  O   UNL     1      -8.655  17.595  65.808  1.00  0.00    -0.516 OA 
HETATM   27  O   UNL     1      -8.833  16.957  68.238  1.00  0.00    -0.214 OA 
HETATM   28  N   UNL     1     -10.115  18.890  67.342  1.00  0.00    -0.341 N  
HETATM   29  H1  UNL     1      -9.319  19.491  67.553  1.00  0.00     0.000 HD 
HETATM   30  H2  UNL     1     -11.104  19.144  67.338  1.00  0.00     0.000 HD 
ENDBRANCH  23  25
ENDBRANCH  19  23
ENDBRANCH  18  19
ENDBRANCH  17  18
ENDBRANCH  16  17
ENDBRANCH  15  16
ENDBRANCH  12  15
ENDBRANCH   5  10
TORSDOF 8
ENDMDL
MODEL      188
REMARK 921   NORMALIZED FREE ENERGY PREDICTED BY IDOCK:   -4.22 KCAL/MOL
REMARK 922        TOTAL FREE ENERGY PREDICTED BY IDOCK:   -7.37 KCAL/MOL
REMARK 923 INTER-LIGAND FREE ENERGY PREDICTED BY IDOCK:   -5.92 KCAL/MOL
REMARK 924 INTRA-LIGAND FREE ENERGY PREDICTED BY IDOCK:   -1.45 KCAL/MOL
REMARK 927      BINDING AFFINITY PREDICTED BY RF-SCORE:    0.00 PKD
ROOT
HETATM    1  N   UNL     1     -13.223   8.565  72.646  1.00  0.00    -0.642 NA 
HETATM    2  C   UNL     1     -12.125   8.247  71.918  1.00  0.00    -0.332 C  
HETATM    3  H2  UNL     1     -13.252   8.649  73.662  1.00  0.00     0.000 HD 
HETATM    4  H1  UNL     1     -14.014   8.707  72.020  1.00  0.00     0.000 HD 
HETATM    5  N   UNL     1     -12.188   8.182  70.633  1.00  0.00    -0.491 NA 
HETATM    6  N   UNL     1     -11.071   8.058  72.751  1.00  0.00    -0.392 NA 
HETATM    7  H2  UNL     1     -11.101   8.142  73.767  1.00  0.00     0.000 HD 
HETATM    8  H1  UNL     1     -10.245   7.819  72.203  1.00  0.00     0.000 HD 
HETATM    9  H   UNL     1     -13.061   8.379  70.143  1.00  0.00     0.000 HD 
ENDROOT
BRANCH   5  10
HETATM   10  C   UNL     1     -11.067   7.847  69.943  1.00  0.00    -0.120 A  
HETATM   11  N   UNL     1      -9.983   8.574  69.724  1.00  0.00    -0.187 NA 
HETATM   12  C   UNL     1      -9.044   7.859  68.984  1.00  0.00    -0.144 A  
HETATM   13  S   UNL     1     -10.993   6.255  69.264  1.00  0.00    -0.392 SA 
HETATM   14  C   UNL     1      -9.445   6.587  68.628  1.00  0.00    -0.123 A  
BRANCH  12  15
HETATM   15  C   UNL     1      -7.740   8.510  68.645  1.00  0.00    -0.103 C  
BRANCH  15  16
HETATM   16  S   UNL     1      -7.431   9.941  69.739  1.00  0.00    -0.157 SA 
BRANCH  16  17
HETATM   17  C   UNL     1      -7.703  11.321  68.573  1.00  0.00    -0.131 C  
BRANCH  17  18
HETATM   18  C   UNL     1      -8.005  10.903  67.139  1.00  0.00    -0.127 C  
BRANCH  18  19
HETATM   19  C   UNL     1      -9.479  11.070  66.768  1.00  0.00    -0.182 C  
HETATM   20  H2  UNL     1      -9.499   9.244  65.731  1.00  0.00     0.000 HD 
HETATM   21  N   UNL     1     -10.037  10.060  66.022  1.00  0.00    -0.260 NA 
HETATM   22  H1  UNL     1     -11.021  10.171  65.774  1.00  0.00     0.000 HD 
BRANCH  19  23
HETATM   23  N   UNL     1     -10.049  12.143  67.207  1.00  0.00    -0.202 N  
HETATM   24  H   UNL     1      -9.477  12.952  67.451  1.00  0.00     0.000 HD 
BRANCH  23  25
HETATM   25  S   UNL     1     -11.649  12.222  67.373  1.00  0.00    -0.338 S  
HETATM   26  O   UNL     1     -12.104  11.122  68.190  1.00  0.00    -0.633 OA 
HETATM   27  O   UNL     1     -12.242  12.501  66.087  1.00  0.00    -0.609 OA 
HETATM   28  N   UNL     1     -11.911  13.596  68.296  1.00  0.00    -0.357 N  
HETATM   29  H1  UNL     1     -12.924  13.646  68.401  1.00  0.00     0.000 HD 
HETATM   30  H2  UNL     1     -11.213  14.239  68.669  1.00  0.00     0.000 HD 
ENDBRANCH  23  25
ENDBRANCH  19  23
ENDBRANCH  18  19
ENDBRANCH  17  18
ENDBRANCH  16  17
ENDBRANCH  15  16
ENDBRANCH  12  15
ENDBRANCH   5  10
TORSDOF 8
ENDMDL
MODEL      189
REMARK 921   NORMALIZED FREE ENERGY PREDICTED BY IDOCK:   -4.21 KCAL/MOL
REMARK 922        TOTAL FREE ENERGY PREDICTED BY IDOCK:   -7.36 KCAL/MOL
REMARK 923 INTER-LIGAND FREE ENERGY PREDICTED BY IDOCK:   -5.45 KCAL/MOL
REMARK 924 INTRA-LIGAND FREE ENERGY PREDICTED BY IDOCK:   -1.91 KCAL/MOL
REMARK 927      BINDING AFFINITY PREDICTED BY RF-SCORE:    0.00 PKD
ROOT
HETATM    1  N   UNL     1     -11.926  12.340  70.203  1.00  0.00    -0.425 NA 
HETATM    2  C   UNL     1     -11.292  11.498  69.352  1.00  0.00    -0.289 C  
HETATM    3  H2  UNL     1     -12.934  12.494  70.239  1.00  0.00     0.000 HD 
HETATM    4  H1  UNL     1     -11.239  12.795  70.802  1.00  0.00     0.000 HD 
HETATM    5  N   UNL     1     -10.012  11.361  69.399  1.00  0.00    -0.413 NA 
HETATM    6  N   UNL     1     -12.207  10.891  68.555  1.00  0.00    -0.809 NA 
HETATM    7  H2  UNL     1     -13.214  11.045  68.590  1.00  0.00     0.000 HD 
HETATM    8  H1  UNL     1     -11.729  10.257  67.914  1.00  0.00     0.000 HD 
HETATM    9  H   UNL     1      -9.457  11.876  70.083  1.00  0.00     0.000 HD 
ENDROOT
BRANCH   5  10
HETATM   10  C   UNL     1      -9.416  10.516  68.518  1.00  0.00    -0.164 A  
HETATM   11  N   UNL     1      -9.431   9.192  68.503  1.00  0.00    -0.145 NA 
HETATM   12  C   UNL     1      -8.710   8.698  67.419  1.00  0.00    -0.134 A  
HETATM   13  S   UNL     1      -8.527  11.223  67.210  1.00  0.00    -0.149 SA 
HETATM   14  C   UNL     1      -8.130   9.669  66.627  1.00  0.00    -0.119 A  
BRANCH  12  15
HETATM   15  C   UNL     1      -8.622   7.217  67.221  1.00  0.00    -0.121 C  
BRANCH  15  16
HETATM   16  S   UNL     1     -10.259   6.527  66.791  1.00  0.00    -0.171 SA 
BRANCH  16  17
HETATM   17  C   UNL     1     -10.646   5.602  68.318  1.00  0.00    -0.181 C  
BRANCH  17  18
HETATM   18  C   UNL     1      -9.601   5.713  69.422  1.00  0.00    -0.187 C  
BRANCH  18  19
HETATM   19  C   UNL     1     -10.194   6.153  70.760  1.00  0.00    -0.198 C  
HETATM   20  H2  UNL     1     -10.013   4.220  71.558  1.00  0.00     0.000 HD 
HETATM   21  N   UNL     1     -10.308   5.182  71.725  1.00  0.00    -0.208 NA 
HETATM   22  H1  UNL     1     -10.704   5.475  72.619  1.00  0.00     0.000 HD 
BRANCH  19  23
HETATM   23  N   UNL     1     -10.518   7.401  70.846  1.00  0.00    -0.216 N  
HETATM   24  H   UNL     1      -9.871   8.113  70.508  1.00  0.00     0.000 HD 
BRANCH  23  25
HETATM   25  S   UNL     1     -11.931   7.848  71.479  1.00  0.00    -0.311 S  
HETATM   26  O   UNL     1     -12.951   6.899  71.102  1.00  0.00    -0.336 OA 
HETATM   27  O   UNL     1     -12.109   9.266  71.276  1.00  0.00    -0.303 OA 
HETATM   28  N   UNL     1     -11.734   7.652  73.131  1.00  0.00    -0.569 N  
HETATM   29  H1  UNL     1     -12.628   7.935  73.532  1.00  0.00     0.000 HD 
HETATM   30  H2  UNL     1     -10.905   7.323  73.626  1.00  0.00     0.000 HD 
ENDBRANCH  23  25
ENDBRANCH  19  23
ENDBRANCH  18  19
ENDBRANCH  17  18
ENDBRANCH  16  17
ENDBRANCH  15  16
ENDBRANCH  12  15
ENDBRANCH   5  10
TORSDOF 8
ENDMDL
MODEL      190
REMARK 921   NORMALIZED FREE ENERGY PREDICTED BY IDOCK:   -4.20 KCAL/MOL
REMARK 922        TOTAL FREE ENERGY PREDICTED BY IDOCK:   -7.34 KCAL/MOL
REMARK 923 INTER-LIGAND FREE ENERGY PREDICTED BY IDOCK:   -5.97 KCAL/MOL
REMARK 924 INTRA-LIGAND FREE ENERGY PREDICTED BY IDOCK:   -1.37 KCAL/MOL
REMARK 927      BINDING AFFINITY PREDICTED BY RF-SCORE:    0.00 PKD
ROOT
HETATM    1  N   UNL     1      -5.801  20.138  69.723  1.00  0.00    -0.305 NA 
HETATM    2  C   UNL     1      -6.749  19.450  69.041  1.00  0.00    -0.324 C  
HETATM    3  H2  UNL     1      -4.808  19.907  69.747  1.00  0.00     0.000 HD 
HETATM    4  H1  UNL     1      -6.236  20.923  70.207  1.00  0.00     0.000 HD 
HETATM    5  N   UNL     1      -7.978  19.835  69.060  1.00  0.00    -0.214 NA 
HETATM    6  N   UNL     1      -6.171  18.405  68.397  1.00  0.00    -0.195 NA 
HETATM    7  H2  UNL     1      -5.178  18.175  68.422  1.00  0.00     0.000 HD 
HETATM    8  H1  UNL     1      -6.884  17.888  67.883  1.00  0.00     0.000 HD 
HETATM    9  H   UNL     1      -8.256  20.668  69.579  1.00  0.00     0.000 HD 
ENDROOT
BRANCH   5  10
HETATM   10  C   UNL     1      -8.898  19.108  68.374  1.00  0.00    -0.347 A  
HETATM   11  N   UNL     1      -9.397  17.917  68.669  1.00  0.00    -0.293 NA 
HETATM   12  C   UNL     1     -10.333  17.520  67.718  1.00  0.00    -0.367 A  
HETATM   13  S   UNL     1      -9.549  19.803  66.928  1.00  0.00    -0.408 SA 
HETATM   14  C   UNL     1     -10.518  18.419  66.687  1.00  0.00    -0.385 A  
BRANCH  12  15
HETATM   15  C   UNL     1     -11.022  16.202  67.885  1.00  0.00    -0.318 C  
BRANCH  15  16
HETATM   16  S   UNL     1     -11.008  15.266  66.315  1.00  0.00    -0.262 SA 
BRANCH  16  17
HETATM   17  C   UNL     1      -9.246  14.790  66.224  1.00  0.00    -0.243 C  
BRANCH  17  18
HETATM   18  C   UNL     1      -8.703  14.088  67.463  1.00  0.00    -0.201 C  
BRANCH  18  19
HETATM   19  C   UNL     1      -9.385  12.747  67.734  1.00  0.00    -0.199 C  
HETATM   20  H2  UNL     1     -10.094  13.404  69.599  1.00  0.00     0.000 HD 
HETATM   21  N   UNL     1     -10.055  12.635  68.929  1.00  0.00    -0.425 NA 
HETATM   22  H1  UNL     1     -10.510  11.740  69.111  1.00  0.00     0.000 HD 
BRANCH  19  23
HETATM   23  N   UNL     1      -9.268  11.860  66.802  1.00  0.00    -0.189 N  
HETATM   24  H   UNL     1      -8.389  11.781  66.291  1.00  0.00     0.000 HD 
BRANCH  23  25
HETATM   25  S   UNL     1     -10.491  10.878  66.436  1.00  0.00    -0.230 S  
HETATM   26  O   UNL     1     -10.130  10.060  65.303  1.00  0.00    -0.321 OA 
HETATM   27  O   UNL     1     -11.723  11.632  66.460  1.00  0.00    -0.498 OA 
HETATM   28  N   UNL     1     -10.587   9.820  67.731  1.00  0.00    -0.250 N  
HETATM   29  H1  UNL     1     -11.361   9.199  67.499  1.00  0.00     0.000 HD 
HETATM   30  H2  UNL     1     -10.001   9.802  68.567  1.00  0.00     0.000 HD 
ENDBRANCH  23  25
ENDBRANCH  19  23
ENDBRANCH  18  19
ENDBRANCH  17  18
ENDBRANCH  16  17
ENDBRANCH  15  16
ENDBRANCH  12  15
ENDBRANCH   5  10
TORSDOF 8
ENDMDL
MODEL      191
REMARK 921   NORMALIZED FREE ENERGY PREDICTED BY IDOCK:   -4.20 KCAL/MOL
REMARK 922        TOTAL FREE ENERGY PREDICTED BY IDOCK:   -7.34 KCAL/MOL
REMARK 923 INTER-LIGAND FREE ENERGY PREDICTED BY IDOCK:   -6.41 KCAL/MOL
REMARK 924 INTRA-LIGAND FREE ENERGY PREDICTED BY IDOCK:   -0.92 KCAL/MOL
REMARK 927      BINDING AFFINITY PREDICTED BY RF-SCORE:    0.00 PKD
ROOT
HETATM    1  N   UNL     1     -12.478  14.359  68.949  1.00  0.00    -0.553 NA 
HETATM    2  C   UNL     1     -11.822  13.234  68.573  1.00  0.00    -0.349 C  
HETATM    3  H2  UNL     1     -12.498  14.742  69.894  1.00  0.00     0.000 HD 
HETATM    4  H1  UNL     1     -12.946  14.763  68.139  1.00  0.00     0.000 HD 
HETATM    5  N   UNL     1     -11.844  12.843  67.346  1.00  0.00    -0.374 NA 
HETATM    6  N   UNL     1     -11.198  12.696  69.651  1.00  0.00    -0.478 NA 
HETATM    7  H2  UNL     1     -11.219  13.079  70.596  1.00  0.00     0.000 HD 
HETATM    8  H1  UNL     1     -10.705  11.850  69.368  1.00  0.00     0.000 HD 
HETATM    9  H   UNL     1     -12.345  13.378  66.637  1.00  0.00     0.000 HD 
ENDROOT
BRANCH   5  10
HETATM   10  C   UNL     1     -11.184  11.703  67.016  1.00  0.00    -0.314 A  
HETATM   11  N   UNL     1     -11.363  10.478  67.488  1.00  0.00    -0.409 NA 
HETATM   12  C   UNL     1     -10.495   9.577  66.878  1.00  0.00    -0.208 A  
HETATM   13  S   UNL     1      -9.954  11.813  65.802  1.00  0.00    -0.245 SA 
HETATM   14  C   UNL     1      -9.641  10.142  65.953  1.00  0.00    -0.218 A  
BRANCH  12  15
HETATM   15  C   UNL     1     -10.555   8.134  67.270  1.00  0.00    -0.273 C  
BRANCH  15  16
HETATM   16  S   UNL     1      -9.090   7.676  68.263  1.00  0.00    -0.135 SA 
BRANCH  16  17
HETATM   17  C   UNL     1      -9.755   6.264  69.213  1.00  0.00    -0.136 C  
BRANCH  17  18
HETATM   18  C   UNL     1     -11.269   6.265  69.395  1.00  0.00    -0.489 C  
BRANCH  18  19
HETATM   19  C   UNL     1     -11.714   6.974  70.674  1.00  0.00    -0.338 C  
HETATM   20  H2  UNL     1     -13.724   6.959  70.069  1.00  0.00     0.000 HD 
HETATM   21  N   UNL     1     -13.059   7.228  70.794  1.00  0.00    -0.576 NA 
HETATM   22  H1  UNL     1     -13.357   7.701  71.647  1.00  0.00     0.000 HD 
BRANCH  19  23
HETATM   23  N   UNL     1     -10.774   7.251  71.517  1.00  0.00    -0.219 N  
HETATM   24  H   UNL     1     -10.257   8.125  71.423  1.00  0.00     0.000 HD 
BRANCH  23  25
HETATM   25  S   UNL     1     -10.408   6.236  72.713  1.00  0.00    -0.206 S  
HETATM   26  O   UNL     1      -9.024   5.841  72.605  1.00  0.00    -0.132 OA 
HETATM   27  O   UNL     1     -11.463   5.258  72.838  1.00  0.00    -0.307 OA 
HETATM   28  N   UNL     1     -10.494   7.170  74.101  1.00  0.00    -0.454 N  
HETATM   29  H1  UNL     1     -10.263   6.527  74.858  1.00  0.00     0.000 HD 
HETATM   30  H2  UNL     1     -10.727   8.161  74.173  1.00  0.00     0.000 HD 
ENDBRANCH  23  25
ENDBRANCH  19  23
ENDBRANCH  18  19
ENDBRANCH  17  18
ENDBRANCH  16  17
ENDBRANCH  15  16
ENDBRANCH  12  15
ENDBRANCH   5  10
TORSDOF 8
ENDMDL
MODEL      192
REMARK 921   NORMALIZED FREE ENERGY PREDICTED BY IDOCK:   -4.19 KCAL/MOL
REMARK 922        TOTAL FREE ENERGY PREDICTED BY IDOCK:   -7.33 KCAL/MOL
REMARK 923 INTER-LIGAND FREE ENERGY PREDICTED BY IDOCK:   -5.81 KCAL/MOL
REMARK 924 INTRA-LIGAND FREE ENERGY PREDICTED BY IDOCK:   -1.52 KCAL/MOL
REMARK 927      BINDING AFFINITY PREDICTED BY RF-SCORE:    0.00 PKD
ROOT
HETATM    1  N   UNL     1      -8.549   8.370  65.489  1.00  0.00    -0.174 NA 
HETATM    2  C   UNL     1      -9.466   9.365  65.566  1.00  0.00    -0.260 C  
HETATM    3  H2  UNL     1      -8.481   7.580  66.130  1.00  0.00     0.000 HD 
HETATM    4  H1  UNL     1      -7.939   8.535  64.689  1.00  0.00     0.000 HD 
HETATM    5  N   UNL     1      -9.479  10.313  64.693  1.00  0.00    -0.268 NA 
HETATM    6  N   UNL     1     -10.278   9.147  66.631  1.00  0.00    -0.268 NA 
HETATM    7  H2  UNL     1     -10.209   8.357  67.272  1.00  0.00     0.000 HD 
HETATM    8  H1  UNL     1     -10.968   9.896  66.689  1.00  0.00     0.000 HD 
HETATM    9  H   UNL     1      -8.808  10.323  63.925  1.00  0.00     0.000 HD 
ENDROOT
BRANCH   5  10
HETATM   10  C   UNL     1     -10.407  11.297  64.817  1.00  0.00    -0.307 A  
HETATM   11  N   UNL     1     -10.719  12.008  65.889  1.00  0.00    -0.266 NA 
HETATM   12  C   UNL     1     -11.715  12.937  65.599  1.00  0.00    -0.387 A  
HETATM   13  S   UNL     1     -11.306  11.731  63.402  1.00  0.00    -0.264 SA 
HETATM   14  C   UNL     1     -12.167  12.903  64.295  1.00  0.00    -0.410 A  
BRANCH  12  15
HETATM   15  C   UNL     1     -12.196  13.848  66.685  1.00  0.00    -0.424 C  
BRANCH  15  16
HETATM   16  S   UNL     1     -10.784  14.542  67.615  1.00  0.00    -0.258 SA 
BRANCH  16  17
HETATM   17  C   UNL     1     -10.813  13.487  69.107  1.00  0.00    -0.134 C  
BRANCH  17  18
HETATM   18  C   UNL     1     -12.201  13.202  69.668  1.00  0.00    -0.241 C  
BRANCH  18  19
HETATM   19  C   UNL     1     -12.279  11.869  70.412  1.00  0.00    -0.314 C  
HETATM   20  H2  UNL     1     -12.906  12.811  72.181  1.00  0.00     0.000 HD 
HETATM   21  N   UNL     1     -12.676  11.927  71.726  1.00  0.00    -0.245 NA 
HETATM   22  H1  UNL     1     -12.729  11.037  72.223  1.00  0.00     0.000 HD 
BRANCH  19  23
HETATM   23  N   UNL     1     -11.972  10.823  69.719  1.00  0.00    -0.337 N  
HETATM   24  H   UNL     1     -12.448  10.648  68.834  1.00  0.00     0.000 HD 
BRANCH  23  25
HETATM   25  S   UNL     1     -10.847   9.790  70.234  1.00  0.00    -0.323 S  
HETATM   26  O   UNL     1     -10.889   9.709  71.674  1.00  0.00    -0.290 OA 
HETATM   27  O   UNL     1      -9.614  10.050  69.529  1.00  0.00    -0.207 OA 
HETATM   28  N   UNL     1     -11.367   8.293  69.692  1.00  0.00    -0.437 N  
HETATM   29  H1  UNL     1     -10.655   7.640  70.017  1.00  0.00     0.000 HD 
HETATM   30  H2  UNL     1     -12.209   8.082  69.155  1.00  0.00     0.000 HD 
ENDBRANCH  23  25
ENDBRANCH  19  23
ENDBRANCH  18  19
ENDBRANCH  17  18
ENDBRANCH  16  17
ENDBRANCH  15  16
ENDBRANCH  12  15
ENDBRANCH   5  10
TORSDOF 8
ENDMDL
MODEL      193
REMARK 921   NORMALIZED FREE ENERGY PREDICTED BY IDOCK:   -4.19 KCAL/MOL
REMARK 922        TOTAL FREE ENERGY PREDICTED BY IDOCK:   -7.33 KCAL/MOL
REMARK 923 INTER-LIGAND FREE ENERGY PREDICTED BY IDOCK:   -6.34 KCAL/MOL
REMARK 924 INTRA-LIGAND FREE ENERGY PREDICTED BY IDOCK:   -0.99 KCAL/MOL
REMARK 927      BINDING AFFINITY PREDICTED BY RF-SCORE:    0.00 PKD
ROOT
HETATM    1  N   UNL     1      -6.668  14.634  67.103  1.00  0.00    -0.348 NA 
HETATM    2  C   UNL     1      -7.783  13.883  67.275  1.00  0.00    -0.084 C  
HETATM    3  H2  UNL     1      -5.790  14.303  66.704  1.00  0.00     0.000 HD 
HETATM    4  H1  UNL     1      -6.844  15.581  67.436  1.00  0.00     0.000 HD 
HETATM    5  N   UNL     1      -8.851  14.401  67.774  1.00  0.00    -0.178 NA 
HETATM    6  N   UNL     1      -7.548  12.622  66.832  1.00  0.00    -0.386 NA 
HETATM    7  H2  UNL     1      -6.670  12.291  66.432  1.00  0.00     0.000 HD 
HETATM    8  H1  UNL     1      -8.387  12.057  66.960  1.00  0.00     0.000 HD 
HETATM    9  H   UNL     1      -8.878  15.386  68.039  1.00  0.00     0.000 HD 
ENDROOT
BRANCH   5  10
HETATM   10  C   UNL     1      -9.941  13.609  67.941  1.00  0.00    -0.244 A  
HETATM   11  N   UNL     1     -10.062  12.512  68.674  1.00  0.00    -0.179 NA 
HETATM   12  C   UNL     1     -11.353  11.999  68.594  1.00  0.00    -0.277 A  
HETATM   13  S   UNL     1     -11.397  14.069  67.124  1.00  0.00    -0.348 SA 
HETATM   14  C   UNL     1     -12.202  12.711  67.771  1.00  0.00     0.122 A  
BRANCH  12  15
HETATM   15  C   UNL     1     -11.692  10.763  69.368  1.00  0.00    -0.306 C  
BRANCH  15  16
HETATM   16  S   UNL     1     -12.379  11.198  71.005  1.00  0.00    -0.358 SA 
BRANCH  16  17
HETATM   17  C   UNL     1     -12.994   9.567  71.555  1.00  0.00    -0.386 C  
BRANCH  17  18
HETATM   18  C   UNL     1     -11.925   8.625  72.096  1.00  0.00    -0.449 C  
BRANCH  18  19
HETATM   19  C   UNL     1     -12.049   7.205  71.543  1.00  0.00    -0.342 C  
HETATM   20  H2  UNL     1     -11.994   6.373  73.470  1.00  0.00     0.000 HD 
HETATM   21  N   UNL     1     -12.063   6.189  72.469  1.00  0.00    -0.537 NA 
HETATM   22  H1  UNL     1     -12.145   5.242  72.100  1.00  0.00     0.000 HD 
BRANCH  19  23
HETATM   23  N   UNL     1     -12.138   7.111  70.258  1.00  0.00    -0.588 N  
HETATM   24  H   UNL     1     -13.015   7.353  69.796  1.00  0.00     0.000 HD 
BRANCH  23  25
HETATM   25  S   UNL     1     -10.885   6.616  69.375  1.00  0.00    -0.311 S  
HETATM   26  O   UNL     1     -10.537   5.265  69.745  1.00  0.00    -0.307 OA 
HETATM   27  O   UNL     1      -9.894   7.665  69.337  1.00  0.00    -0.167 OA 
HETATM   28  N   UNL     1     -11.484   6.507  67.814  1.00  0.00    -0.663 N  
HETATM   29  H1  UNL     1     -10.690   6.194  67.256  1.00  0.00     0.000 HD 
HETATM   30  H2  UNL     1     -12.431   6.709  67.494  1.00  0.00     0.000 HD 
ENDBRANCH  23  25
ENDBRANCH  19  23
ENDBRANCH  18  19
ENDBRANCH  17  18
ENDBRANCH  16  17
ENDBRANCH  15  16
ENDBRANCH  12  15
ENDBRANCH   5  10
TORSDOF 8
ENDMDL
MODEL      194
REMARK 921   NORMALIZED FREE ENERGY PREDICTED BY IDOCK:   -4.17 KCAL/MOL
REMARK 922        TOTAL FREE ENERGY PREDICTED BY IDOCK:   -7.30 KCAL/MOL
REMARK 923 INTER-LIGAND FREE ENERGY PREDICTED BY IDOCK:   -6.17 KCAL/MOL
REMARK 924 INTRA-LIGAND FREE ENERGY PREDICTED BY IDOCK:   -1.13 KCAL/MOL
REMARK 927      BINDING AFFINITY PREDICTED BY RF-SCORE:    0.00 PKD
ROOT
HETATM    1  N   UNL     1     -13.258   9.117  71.958  1.00  0.00    -0.405 NA 
HETATM    2  C   UNL     1     -13.134  10.357  71.425  1.00  0.00    -0.413 C  
HETATM    3  H2  UNL     1     -13.224   8.244  71.433  1.00  0.00     0.000 HD 
HETATM    4  H1  UNL     1     -13.389   9.195  72.966  1.00  0.00     0.000 HD 
HETATM    5  N   UNL     1     -13.172  11.401  72.179  1.00  0.00    -0.556 NA 
HETATM    6  N   UNL     1     -12.958  10.254  70.084  1.00  0.00    -0.549 NA 
HETATM    7  H2  UNL     1     -12.925   9.380  69.559  1.00  0.00     0.000 HD 
HETATM    8  H1  UNL     1     -12.864  11.187  69.682  1.00  0.00     0.000 HD 
HETATM    9  H   UNL     1     -13.287  11.311  73.189  1.00  0.00     0.000 HD 
ENDROOT
BRANCH   5  10
HETATM   10  C   UNL     1     -13.058  12.624  71.601  1.00  0.00    -0.323 A  
HETATM   11  N   UNL     1     -12.251  13.004  70.622  1.00  0.00    -0.359 NA 
HETATM   12  C   UNL     1     -12.453  14.343  70.300  1.00  0.00    -0.354 A  
HETATM   13  S   UNL     1     -14.105  13.880  72.173  1.00  0.00    -0.481 SA 
HETATM   14  C   UNL     1     -13.409  14.978  71.067  1.00  0.00    -0.419 A  
BRANCH  12  15
HETATM   15  C   UNL     1     -11.640  14.956  69.203  1.00  0.00    -0.307 C  
BRANCH  15  16
HETATM   16  S   UNL     1     -11.782  13.970  67.671  1.00  0.00    -0.395 SA 
BRANCH  16  17
HETATM   17  C   UNL     1     -10.083  13.313  67.535  1.00  0.00    -0.223 C  
BRANCH  17  18
HETATM   18  C   UNL     1      -9.920  11.856  67.951  1.00  0.00    -0.195 C  
BRANCH  18  19
HETATM   19  C   UNL     1      -8.458  11.411  67.999  1.00  0.00    -0.145 C  
HETATM   20  H2  UNL     1      -8.278  11.971  70.014  1.00  0.00     0.000 HD 
HETATM   21  N   UNL     1      -7.810  11.574  69.199  1.00  0.00    -0.346 NA 
HETATM   22  H1  UNL     1      -6.834  11.278  69.232  1.00  0.00     0.000 HD 
BRANCH  19  23
HETATM   23  N   UNL     1      -7.987  10.917  66.902  1.00  0.00    -0.132 N  
HETATM   24  H   UNL     1      -8.609  10.411  66.271  1.00  0.00     0.000 HD 
BRANCH  23  25
HETATM   25  S   UNL     1      -6.432  11.089  66.516  1.00  0.00    -0.127 S  
HETATM   26  O   UNL     1      -6.003  12.430  66.832  1.00  0.00    -0.273 OA 
HETATM   27  O   UNL     1      -6.205  10.511  65.213  1.00  0.00    -0.126 OA 
HETATM   28  N   UNL     1      -5.618  10.099  67.595  1.00  0.00    -0.042 N  
HETATM   29  H1  UNL     1      -4.634  10.208  67.351  1.00  0.00     0.000 HD 
HETATM   30  H2  UNL     1      -6.017   9.517  68.332  1.00  0.00     0.000 HD 
ENDBRANCH  23  25
ENDBRANCH  19  23
ENDBRANCH  18  19
ENDBRANCH  17  18
ENDBRANCH  16  17
ENDBRANCH  15  16
ENDBRANCH  12  15
ENDBRANCH   5  10
TORSDOF 8
ENDMDL
MODEL      195
REMARK 921   NORMALIZED FREE ENERGY PREDICTED BY IDOCK:   -4.17 KCAL/MOL
REMARK 922        TOTAL FREE ENERGY PREDICTED BY IDOCK:   -7.30 KCAL/MOL
REMARK 923 INTER-LIGAND FREE ENERGY PREDICTED BY IDOCK:   -5.81 KCAL/MOL
REMARK 924 INTRA-LIGAND FREE ENERGY PREDICTED BY IDOCK:   -1.49 KCAL/MOL
REMARK 927      BINDING AFFINITY PREDICTED BY RF-SCORE:    0.00 PKD
ROOT
HETATM    1  N   UNL     1      -7.177  10.584  64.799  1.00  0.00    -0.343 NA 
HETATM    2  C   UNL     1      -7.617   9.725  65.751  1.00  0.00    -0.108 C  
HETATM    3  H2  UNL     1      -6.350  10.448  64.219  1.00  0.00     0.000 HD 
HETATM    4  H1  UNL     1      -7.804  11.387  64.754  1.00  0.00     0.000 HD 
HETATM    5  N   UNL     1      -8.688   9.981  66.420  1.00  0.00    -0.128 NA 
HETATM    6  N   UNL     1      -6.783   8.657  65.812  1.00  0.00    -0.063 NA 
HETATM    7  H2  UNL     1      -5.956   8.521  65.232  1.00  0.00     0.000 HD 
HETATM    8  H1  UNL     1      -7.115   8.010  66.528  1.00  0.00     0.000 HD 
HETATM    9  H   UNL     1      -9.227  10.828  66.237  1.00  0.00     0.000 HD 
ENDROOT
BRANCH   5  10
HETATM   10  C   UNL     1      -9.085   9.100  67.374  1.00  0.00    -0.127 A  
HETATM   11  N   UNL     1      -8.522   8.840  68.544  1.00  0.00    -0.129 NA 
HETATM   12  C   UNL     1      -9.248   7.879  69.244  1.00  0.00    -0.148 A  
HETATM   13  S   UNL     1     -10.527   8.191  67.072  1.00  0.00    -0.276 SA 
HETATM   14  C   UNL     1     -10.356   7.400  68.574  1.00  0.00    -0.198 A  
BRANCH  12  15
HETATM   15  C   UNL     1      -8.776   7.460  70.601  1.00  0.00    -0.142 C  
BRANCH  15  16
HETATM   16  S   UNL     1     -10.191   6.978  71.653  1.00  0.00    -0.193 SA 
BRANCH  16  17
HETATM   17  C   UNL     1     -10.889   8.618  72.051  1.00  0.00    -0.360 C  
BRANCH  17  18
HETATM   18  C   UNL     1     -12.384   8.762  71.795  1.00  0.00    -0.412 C  
BRANCH  18  19
HETATM   19  C   UNL     1     -12.759  10.120  71.200  1.00  0.00    -0.396 C  
HETATM   20  H2  UNL     1     -13.283  10.882  73.085  1.00  0.00     0.000 HD 
HETATM   21  N   UNL     1     -13.205  11.071  72.086  1.00  0.00    -0.583 NA 
HETATM   22  H1  UNL     1     -13.456  11.977  71.689  1.00  0.00     0.000 HD 
BRANCH  19  23
HETATM   23  N   UNL     1     -12.605  10.232  69.922  1.00  0.00    -0.550 N  
HETATM   24  H   UNL     1     -12.971   9.507  69.306  1.00  0.00     0.000 HD 
BRANCH  23  25
HETATM   25  S   UNL     1     -11.843  11.503  69.289  1.00  0.00    -0.348 S  
HETATM   26  O   UNL     1     -12.197  12.693  70.024  1.00  0.00    -0.276 OA 
HETATM   27  O   UNL     1     -11.951  11.446  67.850  1.00  0.00    -0.626 OA 
HETATM   28  N   UNL     1     -10.225  11.238  69.629  1.00  0.00    -0.401 N  
HETATM   29  H1  UNL     1      -9.742  12.041  69.228  1.00  0.00     0.000 HD 
HETATM   30  H2  UNL     1      -9.812  10.448  70.126  1.00  0.00     0.000 HD 
ENDBRANCH  23  25
ENDBRANCH  19  23
ENDBRANCH  18  19
ENDBRANCH  17  18
ENDBRANCH  16  17
ENDBRANCH  15  16
ENDBRANCH  12  15
ENDBRANCH   5  10
TORSDOF 8
ENDMDL
MODEL      196
REMARK 921   NORMALIZED FREE ENERGY PREDICTED BY IDOCK:   -4.17 KCAL/MOL
REMARK 922        TOTAL FREE ENERGY PREDICTED BY IDOCK:   -7.29 KCAL/MOL
REMARK 923 INTER-LIGAND FREE ENERGY PREDICTED BY IDOCK:   -6.30 KCAL/MOL
REMARK 924 INTRA-LIGAND FREE ENERGY PREDICTED BY IDOCK:   -0.99 KCAL/MOL
REMARK 927      BINDING AFFINITY PREDICTED BY RF-SCORE:    0.00 PKD
ROOT
HETATM    1  N   UNL     1     -12.543   8.159  71.770  1.00  0.00    -0.320 NA 
HETATM    2  C   UNL     1     -11.754   8.495  70.721  1.00  0.00    -0.205 C  
HETATM    3  H2  UNL     1     -12.954   8.816  72.434  1.00  0.00     0.000 HD 
HETATM    4  H1  UNL     1     -12.661   7.147  71.793  1.00  0.00     0.000 HD 
HETATM    5  N   UNL     1     -11.297   7.588  69.928  1.00  0.00    -0.461 NA 
HETATM    6  N   UNL     1     -11.596   9.843  70.691  1.00  0.00    -0.311 NA 
HETATM    7  H2  UNL     1     -12.008  10.499  71.354  1.00  0.00     0.000 HD 
HETATM    8  H1  UNL     1     -11.003  10.096  69.901  1.00  0.00     0.000 HD 
HETATM    9  H   UNL     1     -11.530   6.606  70.071  1.00  0.00     0.000 HD 
ENDROOT
BRANCH   5  10
HETATM   10  C   UNL     1     -10.499   7.969  68.898  1.00  0.00    -0.191 A  
HETATM   11  N   UNL     1      -9.432   8.753  68.924  1.00  0.00    -0.145 NA 
HETATM   12  C   UNL     1      -8.878   8.885  67.654  1.00  0.00    -0.134 A  
HETATM   13  S   UNL     1     -10.875   7.350  67.324  1.00  0.00    -0.172 SA 
HETATM   14  C   UNL     1      -9.556   8.206  66.661  1.00  0.00    -0.229 A  
BRANCH  12  15
HETATM   15  C   UNL     1      -7.652   9.725  67.480  1.00  0.00    -0.091 C  
BRANCH  15  16
HETATM   16  S   UNL     1      -7.797  11.278  68.432  1.00  0.00    -0.143 SA 
BRANCH  16  17
HETATM   17  C   UNL     1      -8.584  12.362  67.189  1.00  0.00    -0.189 C  
BRANCH  17  18
HETATM   18  C   UNL     1     -10.005  11.971  66.801  1.00  0.00    -0.218 C  
BRANCH  18  19
HETATM   19  C   UNL     1     -10.207  11.884  65.289  1.00  0.00    -0.272 C  
HETATM   20  H2  UNL     1      -8.215  11.292  64.985  1.00  0.00     0.000 HD 
HETATM   21  N   UNL     1      -9.113  11.504  64.549  1.00  0.00    -0.405 NA 
HETATM   22  H1  UNL     1      -9.247  11.446  63.539  1.00  0.00     0.000 HD 
BRANCH  19  23
HETATM   23  N   UNL     1     -11.393  12.169  64.864  1.00  0.00    -0.322 N  
HETATM   24  H   UNL     1     -12.053  11.415  64.672  1.00  0.00     0.000 HD 
BRANCH  23  25
HETATM   25  S   UNL     1     -11.846  13.698  64.635  1.00  0.00    -0.418 S  
HETATM   26  O   UNL     1     -10.679  14.548  64.606  1.00  0.00    -0.399 OA 
HETATM   27  O   UNL     1     -12.969  13.990  65.494  1.00  0.00    -0.681 OA 
HETATM   28  N   UNL     1     -12.454  13.730  63.075  1.00  0.00    -1.000 N  
HETATM   29  H1  UNL     1     -12.740  14.698  62.930  1.00  0.00     0.000 HD 
HETATM   30  H2  UNL     1     -12.523  12.954  62.416  1.00  0.00     0.000 HD 
ENDBRANCH  23  25
ENDBRANCH  19  23
ENDBRANCH  18  19
ENDBRANCH  17  18
ENDBRANCH  16  17
ENDBRANCH  15  16
ENDBRANCH  12  15
ENDBRANCH   5  10
TORSDOF 8
ENDMDL
MODEL      197
REMARK 921   NORMALIZED FREE ENERGY PREDICTED BY IDOCK:   -4.17 KCAL/MOL
REMARK 922        TOTAL FREE ENERGY PREDICTED BY IDOCK:   -7.29 KCAL/MOL
REMARK 923 INTER-LIGAND FREE ENERGY PREDICTED BY IDOCK:   -6.13 KCAL/MOL
REMARK 924 INTRA-LIGAND FREE ENERGY PREDICTED BY IDOCK:   -1.16 KCAL/MOL
REMARK 927      BINDING AFFINITY PREDICTED BY RF-SCORE:    0.00 PKD
ROOT
HETATM    1  N   UNL     1     -11.714  16.498  69.154  1.00  0.00    -0.162 NA 
HETATM    2  C   UNL     1     -11.472  15.177  69.334  1.00  0.00    -0.306 C  
HETATM    3  H2  UNL     1     -11.199  17.258  69.599  1.00  0.00     0.000 HD 
HETATM    4  H1  UNL     1     -12.490  16.614  68.504  1.00  0.00     0.000 HD 
HETATM    5  N   UNL     1     -12.170  14.293  68.708  1.00  0.00    -0.562 NA 
HETATM    6  N   UNL     1     -10.439  15.023  70.199  1.00  0.00    -0.488 NA 
HETATM    7  H2  UNL     1      -9.924  15.782  70.645  1.00  0.00     0.000 HD 
HETATM    8  H1  UNL     1     -10.257  14.028  70.334  1.00  0.00     0.000 HD 
HETATM    9  H   UNL     1     -12.907  14.573  68.062  1.00  0.00     0.000 HD 
ENDROOT
BRANCH   5  10
HETATM   10  C   UNL     1     -11.903  12.980  68.929  1.00  0.00    -0.316 A  
HETATM   11  N   UNL     1     -11.997  12.295  70.058  1.00  0.00    -0.333 NA 
HETATM   12  C   UNL     1     -11.649  10.961  69.863  1.00  0.00    -0.331 A  
HETATM   13  S   UNL     1     -11.391  12.030  67.574  1.00  0.00    -0.333 SA 
HETATM   14  C   UNL     1     -11.268  10.652  68.573  1.00  0.00    -0.282 A  
BRANCH  12  15
HETATM   15  C   UNL     1     -11.706  10.020  71.025  1.00  0.00    -0.392 C  
BRANCH  15  16
HETATM   16  S   UNL     1     -10.503   8.661  70.812  1.00  0.00    -0.216 SA 
BRANCH  16  17
HETATM   17  C   UNL     1     -11.625   7.278  70.403  1.00  0.00    -0.219 C  
BRANCH  17  18
HETATM   18  C   UNL     1     -10.940   6.031  69.858  1.00  0.00    -0.458 C  
BRANCH  18  19
HETATM   19  C   UNL     1     -10.518   6.174  68.396  1.00  0.00    -0.231 C  
HETATM   20  H2  UNL     1     -12.463   6.712  67.814  1.00  0.00     0.000 HD 
HETATM   21  N   UNL     1     -11.504   6.543  67.511  1.00  0.00    -0.714 NA 
HETATM   22  H1  UNL     1     -11.223   6.639  66.535  1.00  0.00     0.000 HD 
BRANCH  19  23
HETATM   23  N   UNL     1      -9.272   5.942  68.147  1.00  0.00    -0.116 N  
HETATM   24  H   UNL     1      -8.740   5.335  68.770  1.00  0.00     0.000 HD 
BRANCH  23  25
HETATM   25  S   UNL     1      -8.548   6.597  66.865  1.00  0.00    -0.118 S  
HETATM   26  O   UNL     1      -7.143   6.267  66.884  1.00  0.00    -0.069 OA 
HETATM   27  O   UNL     1      -9.001   7.959  66.715  1.00  0.00    -0.132 OA 
HETATM   28  N   UNL     1      -9.179   5.767  65.554  1.00  0.00    -0.351 N  
HETATM   29  H1  UNL     1      -8.720   6.182  64.743  1.00  0.00     0.000 HD 
HETATM   30  H2  UNL     1      -9.868   5.015  65.564  1.00  0.00     0.000 HD 
ENDBRANCH  23  25
ENDBRANCH  19  23
ENDBRANCH  18  19
ENDBRANCH  17  18
ENDBRANCH  16  17
ENDBRANCH  15  16
ENDBRANCH  12  15
ENDBRANCH   5  10
TORSDOF 8
ENDMDL
MODEL      198
REMARK 921   NORMALIZED FREE ENERGY PREDICTED BY IDOCK:   -4.17 KCAL/MOL
REMARK 922        TOTAL FREE ENERGY PREDICTED BY IDOCK:   -7.29 KCAL/MOL
REMARK 923 INTER-LIGAND FREE ENERGY PREDICTED BY IDOCK:   -5.91 KCAL/MOL
REMARK 924 INTRA-LIGAND FREE ENERGY PREDICTED BY IDOCK:   -1.38 KCAL/MOL
REMARK 927      BINDING AFFINITY PREDICTED BY RF-SCORE:    0.00 PKD
ROOT
HETATM    1  N   UNL     1      -8.298   8.432  73.057  1.00  0.00    -0.354 NA 
HETATM    2  C   UNL     1      -8.979   8.501  71.887  1.00  0.00    -0.231 C  
HETATM    3  H2  UNL     1      -8.106   7.577  73.578  1.00  0.00     0.000 HD 
HETATM    4  H1  UNL     1      -8.006   9.369  73.333  1.00  0.00     0.000 HD 
HETATM    5  N   UNL     1      -9.153   9.632  71.296  1.00  0.00    -0.280 NA 
HETATM    6  N   UNL     1      -9.367   7.254  71.519  1.00  0.00    -0.149 NA 
HETATM    7  H2  UNL     1      -9.176   6.399  72.041  1.00  0.00     0.000 HD 
HETATM    8  H1  UNL     1      -9.879   7.305  70.639  1.00  0.00     0.000 HD 
HETATM    9  H   UNL     1      -8.772  10.491  71.693  1.00  0.00     0.000 HD 
ENDROOT
BRANCH   5  10
HETATM   10  C   UNL     1      -9.853   9.657  70.133  1.00  0.00    -0.262 A  
HETATM   11  N   UNL     1      -9.557   9.083  68.977  1.00  0.00    -0.158 NA 
HETATM   12  C   UNL     1     -10.545   9.331  68.029  1.00  0.00    -0.208 A  
HETATM   13  S   UNL     1     -11.354  10.521  70.122  1.00  0.00    -0.333 SA 
HETATM   14  C   UNL     1     -11.584  10.121  68.479  1.00  0.00     0.087 A  
BRANCH  12  15
HETATM   15  C   UNL     1     -10.396   8.752  66.657  1.00  0.00    -0.228 C  
BRANCH  15  16
HETATM   16  S   UNL     1      -8.718   9.068  66.004  1.00  0.00    -0.171 SA 
BRANCH  16  17
HETATM   17  C   UNL     1      -8.993  10.640  65.116  1.00  0.00    -0.198 C  
BRANCH  17  18
HETATM   18  C   UNL     1      -8.961  11.889  65.989  1.00  0.00    -0.066 C  
BRANCH  18  19
HETATM   19  C   UNL     1     -10.100  12.860  65.681  1.00  0.00    -0.272 C  
HETATM   20  H2  UNL     1      -8.781  14.492  65.594  1.00  0.00     0.000 HD 
HETATM   21  N   UNL     1      -9.749  14.179  65.515  1.00  0.00    -0.539 NA 
HETATM   22  H1  UNL     1     -10.509  14.827  65.310  1.00  0.00     0.000 HD 
BRANCH  19  23
HETATM   23  N   UNL     1     -11.277  12.335  65.599  1.00  0.00    -0.320 N  
HETATM   24  H   UNL     1     -11.536  11.579  66.233  1.00  0.00     0.000 HD 
BRANCH  23  25
HETATM   25  S   UNL     1     -12.343  12.857  64.509  1.00  0.00    -0.408 S  
HETATM   26  O   UNL     1     -12.766  14.194  64.850  1.00  0.00    -0.645 OA 
HETATM   27  O   UNL     1     -13.299  11.807  64.247  1.00  0.00    -0.447 OA 
HETATM   28  N   UNL     1     -11.457  13.020  63.096  1.00  0.00    -0.727 N  
HETATM   29  H1  UNL     1     -12.131  13.350  62.407  1.00  0.00     0.000 HD 
HETATM   30  H2  UNL     1     -10.464  12.831  62.957  1.00  0.00     0.000 HD 
ENDBRANCH  23  25
ENDBRANCH  19  23
ENDBRANCH  18  19
ENDBRANCH  17  18
ENDBRANCH  16  17
ENDBRANCH  15  16
ENDBRANCH  12  15
ENDBRANCH   5  10
TORSDOF 8
ENDMDL
MODEL      199
REMARK 921   NORMALIZED FREE ENERGY PREDICTED BY IDOCK:   -4.16 KCAL/MOL
REMARK 922        TOTAL FREE ENERGY PREDICTED BY IDOCK:   -7.28 KCAL/MOL
REMARK 923 INTER-LIGAND FREE ENERGY PREDICTED BY IDOCK:   -6.16 KCAL/MOL
REMARK 924 INTRA-LIGAND FREE ENERGY PREDICTED BY IDOCK:   -1.13 KCAL/MOL
REMARK 927      BINDING AFFINITY PREDICTED BY RF-SCORE:    0.00 PKD
ROOT
HETATM    1  N   UNL     1     -12.517  14.347  68.991  1.00  0.00    -0.552 NA 
HETATM    2  C   UNL     1     -11.651  13.563  68.305  1.00  0.00    -0.346 C  
HETATM    3  H2  UNL     1     -13.371  14.755  68.612  1.00  0.00     0.000 HD 
HETATM    4  H1  UNL     1     -12.181  14.465  69.947  1.00  0.00     0.000 HD 
HETATM    5  N   UNL     1     -10.605  13.081  68.882  1.00  0.00    -0.399 NA 
HETATM    6  N   UNL     1     -12.098  13.406  67.033  1.00  0.00    -0.369 NA 
HETATM    7  H2  UNL     1     -12.952  13.814  66.654  1.00  0.00     0.000 HD 
HETATM    8  H1  UNL     1     -11.447  12.815  66.517  1.00  0.00     0.000 HD 
HETATM    9  H   UNL     1     -10.418  13.273  69.866  1.00  0.00     0.000 HD 
ENDROOT
BRANCH   5  10
HETATM   10  C   UNL     1      -9.757  12.311  68.152  1.00  0.00    -0.213 A  
HETATM   11  N   UNL     1      -9.882  11.038  67.811  1.00  0.00    -0.171 NA 
HETATM   12  C   UNL     1      -8.801  10.619  67.040  1.00  0.00    -0.137 A  
HETATM   13  S   UNL     1      -8.318  13.061  67.546  1.00  0.00    -0.195 SA 
HETATM   14  C   UNL     1      -7.844  11.590  66.823  1.00  0.00    -0.146 A  
BRANCH  12  15
HETATM   15  C   UNL     1      -8.767   9.208  66.544  1.00  0.00    -0.128 C  
BRANCH  15  16
HETATM   16  S   UNL     1     -10.385   8.397  66.800  1.00  0.00    -0.221 SA 
BRANCH  16  17
HETATM   17  C   UNL     1      -9.926   7.105  68.008  1.00  0.00    -0.158 C  
BRANCH  17  18
HETATM   18  C   UNL     1     -11.101   6.428  68.705  1.00  0.00    -0.393 C  
BRANCH  18  19
HETATM   19  C   UNL     1     -11.108   6.657  70.216  1.00  0.00    -0.326 C  
HETATM   20  H2  UNL     1      -9.345   5.543  70.465  1.00  0.00     0.000 HD 
HETATM   21  N   UNL     1     -10.076   6.088  70.923  1.00  0.00    -0.190 NA 
HETATM   22  H1  UNL     1     -10.081   6.240  71.932  1.00  0.00     0.000 HD 
BRANCH  19  23
HETATM   23  N   UNL     1     -12.083   7.372  70.669  1.00  0.00    -0.522 N  
HETATM   24  H   UNL     1     -12.993   7.330  70.210  1.00  0.00     0.000 HD 
BRANCH  23  25
HETATM   25  S   UNL     1     -11.883   8.329  71.950  1.00  0.00    -0.350 S  
HETATM   26  O   UNL     1     -13.159   8.872  72.351  1.00  0.00    -0.407 OA 
HETATM   27  O   UNL     1     -10.739   9.180  71.725  1.00  0.00    -0.355 OA 
HETATM   28  N   UNL     1     -11.436   7.292  73.187  1.00  0.00    -0.580 N  
HETATM   29  H1  UNL     1     -11.309   7.898  73.997  1.00  0.00     0.000 HD 
HETATM   30  H2  UNL     1     -11.317   6.280  73.140  1.00  0.00     0.000 HD 
ENDBRANCH  23  25
ENDBRANCH  19  23
ENDBRANCH  18  19
ENDBRANCH  17  18
ENDBRANCH  16  17
ENDBRANCH  15  16
ENDBRANCH  12  15
ENDBRANCH   5  10
TORSDOF 8
ENDMDL
MODEL      200
REMARK 921   NORMALIZED FREE ENERGY PREDICTED BY IDOCK:   -4.15 KCAL/MOL
REMARK 922        TOTAL FREE ENERGY PREDICTED BY IDOCK:   -7.27 KCAL/MOL
REMARK 923 INTER-LIGAND FREE ENERGY PREDICTED BY IDOCK:   -6.34 KCAL/MOL
REMARK 924 INTRA-LIGAND FREE ENERGY PREDICTED BY IDOCK:   -0.93 KCAL/MOL
REMARK 927      BINDING AFFINITY PREDICTED BY RF-SCORE:    0.00 PKD
ROOT
HETATM    1  N   UNL     1      -6.184  20.033  69.588  1.00  0.00    -0.330 NA 
HETATM    2  C   UNL     1      -7.026  19.216  68.909  1.00  0.00    -0.336 C  
HETATM    3  H2  UNL     1      -5.198  19.848  69.766  1.00  0.00     0.000 HD 
HETATM    4  H1  UNL     1      -6.693  20.862  69.894  1.00  0.00     0.000 HD 
HETATM    5  N   UNL     1      -8.255  19.551  68.723  1.00  0.00    -0.347 NA 
HETATM    6  N   UNL     1      -6.349  18.112  68.503  1.00  0.00    -0.200 NA 
HETATM    7  H2  UNL     1      -5.362  17.927  68.680  1.00  0.00     0.000 HD 
HETATM    8  H1  UNL     1      -6.982  17.497  67.991  1.00  0.00     0.000 HD 
HETATM    9  H   UNL     1      -8.613  20.439  69.074  1.00  0.00     0.000 HD 
ENDROOT
BRANCH   5  10
HETATM   10  C   UNL     1      -9.067  18.696  68.049  1.00  0.00    -0.305 A  
HETATM   11  N   UNL     1      -9.481  17.491  68.410  1.00  0.00    -0.283 NA 
HETATM   12  C   UNL     1     -10.321  16.942  67.445  1.00  0.00    -0.309 A  
HETATM   13  S   UNL     1      -9.686  19.220  66.518  1.00  0.00    -0.390 SA 
HETATM   14  C   UNL     1     -10.518  17.741  66.337  1.00  0.00    -0.297 A  
BRANCH  12  15
HETATM   15  C   UNL     1     -10.904  15.584  67.679  1.00  0.00    -0.306 C  
BRANCH  15  16
HETATM   16  S   UNL     1     -11.340  14.788  66.092  1.00  0.00    -0.301 SA 
BRANCH  16  17
HETATM   17  C   UNL     1     -10.872  13.057  66.444  1.00  0.00    -0.278 C  
BRANCH  17  18
HETATM   18  C   UNL     1     -11.508  12.459  67.693  1.00  0.00    -0.399 C  
BRANCH  18  19
HETATM   19  C   UNL     1     -10.480  12.056  68.749  1.00  0.00    -0.183 C  
HETATM   20  H2  UNL     1      -8.929  13.020  67.712  1.00  0.00     0.000 HD 
HETATM   21  N   UNL     1      -9.188  12.472  68.533  1.00  0.00    -0.373 NA 
HETATM   22  H1  UNL     1      -8.501  12.203  69.237  1.00  0.00     0.000 HD 
BRANCH  19  23
HETATM   23  N   UNL     1     -10.938  11.371  69.745  1.00  0.00    -0.467 N  
HETATM   24  H   UNL     1     -11.649  11.780  70.351  1.00  0.00     0.000 HD 
BRANCH  23  25
HETATM   25  S   UNL     1     -10.402   9.881  70.041  1.00  0.00    -0.279 S  
HETATM   26  O   UNL     1     -10.988   9.392  71.266  1.00  0.00    -0.317 OA 
HETATM   27  O   UNL     1      -8.975   9.843  69.821  1.00  0.00    -0.207 OA 
HETATM   28  N   UNL     1     -11.069   8.942  68.826  1.00  0.00    -0.433 N  
HETATM   29  H1  UNL     1     -10.730   7.999  69.013  1.00  0.00     0.000 HD 
HETATM   30  H2  UNL     1     -11.680   9.245  68.066  1.00  0.00     0.000 HD 
ENDBRANCH  23  25
ENDBRANCH  19  23
ENDBRANCH  18  19
ENDBRANCH  17  18
ENDBRANCH  16  17
ENDBRANCH  15  16
ENDBRANCH  12  15
ENDBRANCH   5  10
TORSDOF 8
ENDMDL
MODEL      201
REMARK 921   NORMALIZED FREE ENERGY PREDICTED BY IDOCK:   -4.15 KCAL/MOL
REMARK 922        TOTAL FREE ENERGY PREDICTED BY IDOCK:   -7.26 KCAL/MOL
REMARK 923 INTER-LIGAND FREE ENERGY PREDICTED BY IDOCK:   -6.29 KCAL/MOL
REMARK 924 INTRA-LIGAND FREE ENERGY PREDICTED BY IDOCK:   -0.97 KCAL/MOL
REMARK 927      BINDING AFFINITY PREDICTED BY RF-SCORE:    0.00 PKD
ROOT
HETATM    1  N   UNL     1     -13.780  16.325  73.404  1.00  0.00    -0.739 NA 
HETATM    2  C   UNL     1     -13.100  15.811  72.350  1.00  0.00    -0.465 C  
HETATM    3  H2  UNL     1     -13.400  16.978  74.088  1.00  0.00     0.000 HD 
HETATM    4  H1  UNL     1     -14.730  15.955  73.405  1.00  0.00     0.000 HD 
HETATM    5  N   UNL     1     -13.678  15.004  71.529  1.00  0.00    -0.429 NA 
HETATM    6  N   UNL     1     -11.835  16.303  72.348  1.00  0.00    -0.533 NA 
HETATM    7  H2  UNL     1     -11.456  16.956  73.033  1.00  0.00     0.000 HD 
HETATM    8  H1  UNL     1     -11.324  15.917  71.554  1.00  0.00     0.000 HD 
HETATM    9  H   UNL     1     -14.657  14.746  71.653  1.00  0.00     0.000 HD 
ENDROOT
BRANCH   5  10
HETATM   10  C   UNL     1     -12.955  14.502  70.494  1.00  0.00    -0.249 A  
HETATM   11  N   UNL     1     -12.495  15.133  69.424  1.00  0.00    -0.106 NA 
HETATM   12  C   UNL     1     -11.781  14.266  68.602  1.00  0.00    -0.345 A  
HETATM   13  S   UNL     1     -12.534  12.823  70.552  1.00  0.00    -0.131 SA 
HETATM   14  C   UNL     1     -11.727  12.963  69.055  1.00  0.00    -0.327 A  
BRANCH  12  15
HETATM   15  C   UNL     1     -11.169  14.798  67.344  1.00  0.00    -0.339 C  
BRANCH  15  16
HETATM   16  S   UNL     1     -11.804  13.895  65.888  1.00  0.00    -0.403 SA 
BRANCH  16  17
HETATM   17  C   UNL     1     -10.326  12.926  65.423  1.00  0.00    -0.296 C  
BRANCH  17  18
HETATM   18  C   UNL     1     -10.469  11.417  65.581  1.00  0.00    -0.316 C  
BRANCH  18  19
HETATM   19  C   UNL     1      -9.220  10.760  66.168  1.00  0.00    -0.180 C  
HETATM   20  H2  UNL     1      -8.013  11.503  64.619  1.00  0.00     0.000 HD 
HETATM   21  N   UNL     1      -8.048  10.952  65.477  1.00  0.00    -0.335 NA 
HETATM   22  H1  UNL     1      -7.214  10.513  65.868  1.00  0.00     0.000 HD 
BRANCH  19  23
HETATM   23  N   UNL     1      -9.398  10.098  67.264  1.00  0.00    -0.151 N  
HETATM   24  H   UNL     1      -9.543  10.603  68.138  1.00  0.00     0.000 HD 
BRANCH  23  25
HETATM   25  S   UNL     1      -9.393   8.487  67.267  1.00  0.00    -0.155 S  
HETATM   26  O   UNL     1      -8.778   8.009  68.483  1.00  0.00    -0.131 OA 
HETATM   27  O   UNL     1      -8.966   8.015  65.971  1.00  0.00    -0.168 OA 
HETATM   28  N   UNL     1     -11.008   8.060  67.391  1.00  0.00    -0.495 N  
HETATM   29  H1  UNL     1     -11.005   7.040  67.394  1.00  0.00     0.000 HD 
HETATM   30  H2  UNL     1     -11.815   8.681  67.451  1.00  0.00     0.000 HD 
ENDBRANCH  23  25
ENDBRANCH  19  23
ENDBRANCH  18  19
ENDBRANCH  17  18
ENDBRANCH  16  17
ENDBRANCH  15  16
ENDBRANCH  12  15
ENDBRANCH   5  10
TORSDOF 8
ENDMDL
MODEL      202
REMARK 921   NORMALIZED FREE ENERGY PREDICTED BY IDOCK:   -4.15 KCAL/MOL
REMARK 922        TOTAL FREE ENERGY PREDICTED BY IDOCK:   -7.26 KCAL/MOL
REMARK 923 INTER-LIGAND FREE ENERGY PREDICTED BY IDOCK:   -6.12 KCAL/MOL
REMARK 924 INTRA-LIGAND FREE ENERGY PREDICTED BY IDOCK:   -1.15 KCAL/MOL
REMARK 927      BINDING AFFINITY PREDICTED BY RF-SCORE:    0.00 PKD
ROOT
HETATM    1  N   UNL     1     -12.327   6.140  72.481  1.00  0.00    -0.542 NA 
HETATM    2  C   UNL     1     -11.927   7.338  71.989  1.00  0.00    -0.296 C  
HETATM    3  H2  UNL     1     -11.721   5.455  72.932  1.00  0.00     0.000 HD 
HETATM    4  H1  UNL     1     -13.329   6.031  72.329  1.00  0.00     0.000 HD 
HETATM    5  N   UNL     1     -12.777   8.142  71.451  1.00  0.00    -0.407 NA 
HETATM    6  N   UNL     1     -10.593   7.483  72.190  1.00  0.00    -0.213 NA 
HETATM    7  H2  UNL     1      -9.987   6.798  72.641  1.00  0.00     0.000 HD 
HETATM    8  H1  UNL     1     -10.291   8.384  71.820  1.00  0.00     0.000 HD 
HETATM    9  H   UNL     1     -13.765   7.896  71.396  1.00  0.00     0.000 HD 
ENDROOT
BRANCH   5  10
HETATM   10  C   UNL     1     -12.329   9.326  70.959  1.00  0.00    -0.233 A  
HETATM   11  N   UNL     1     -11.411   9.541  70.028  1.00  0.00    -0.166 NA 
HETATM   12  C   UNL     1     -11.251  10.903  69.791  1.00  0.00    -0.281 A  
HETATM   13  S   UNL     1     -13.045  10.774  71.584  1.00  0.00    -0.408 SA 
HETATM   14  C   UNL     1     -12.046  11.717  70.573  1.00  0.00    -0.347 A  
BRANCH  12  15
HETATM   15  C   UNL     1     -10.263  11.348  68.759  1.00  0.00    -0.197 C  
BRANCH  15  16
HETATM   16  S   UNL     1     -11.046  11.426  67.110  1.00  0.00    -0.298 SA 
BRANCH  16  17
HETATM   17  C   UNL     1      -9.650  10.913  66.049  1.00  0.00    -0.209 C  
BRANCH  17  18
HETATM   18  C   UNL     1      -9.761   9.506  65.473  1.00  0.00    -0.344 C  
BRANCH  18  19
HETATM   19  C   UNL     1      -9.685   8.417  66.544  1.00  0.00    -0.260 C  
HETATM   20  H2  UNL     1      -8.003   9.307  67.431  1.00  0.00     0.000 HD 
HETATM   21  N   UNL     1      -8.669   8.536  67.462  1.00  0.00    -0.135 NA 
HETATM   22  H1  UNL     1      -8.618   7.809  68.177  1.00  0.00     0.000 HD 
BRANCH  19  23
HETATM   23  N   UNL     1     -10.594   7.502  66.477  1.00  0.00    -0.438 N  
HETATM   24  H   UNL     1     -11.473   7.700  66.000  1.00  0.00     0.000 HD 
BRANCH  23  25
HETATM   25  S   UNL     1     -10.358   6.051  67.137  1.00  0.00    -0.264 S  
HETATM   26  O   UNL     1     -11.100   5.956  68.372  1.00  0.00    -0.268 OA 
HETATM   27  O   UNL     1      -8.952   5.731  67.077  1.00  0.00    -0.115 OA 
HETATM   28  N   UNL     1     -11.108   4.982  66.088  1.00  0.00    -0.694 N  
HETATM   29  H1  UNL     1     -10.958   4.064  66.506  1.00  0.00     0.000 HD 
HETATM   30  H2  UNL     1     -11.603   5.201  65.223  1.00  0.00     0.000 HD 
ENDBRANCH  23  25
ENDBRANCH  19  23
ENDBRANCH  18  19
ENDBRANCH  17  18
ENDBRANCH  16  17
ENDBRANCH  15  16
ENDBRANCH  12  15
ENDBRANCH   5  10
TORSDOF 8
ENDMDL
MODEL      203
REMARK 921   NORMALIZED FREE ENERGY PREDICTED BY IDOCK:   -4.15 KCAL/MOL
REMARK 922        TOTAL FREE ENERGY PREDICTED BY IDOCK:   -7.26 KCAL/MOL
REMARK 923 INTER-LIGAND FREE ENERGY PREDICTED BY IDOCK:   -6.01 KCAL/MOL
REMARK 924 INTRA-LIGAND FREE ENERGY PREDICTED BY IDOCK:   -1.25 KCAL/MOL
REMARK 927      BINDING AFFINITY PREDICTED BY RF-SCORE:    0.00 PKD
ROOT
HETATM    1  N   UNL     1     -12.888   8.712  71.420  1.00  0.00    -0.423 NA 
HETATM    2  C   UNL     1     -12.149   9.687  70.838  1.00  0.00    -0.300 C  
HETATM    3  H2  UNL     1     -12.539   8.029  72.092  1.00  0.00     0.000 HD 
HETATM    4  H1  UNL     1     -13.847   8.768  71.081  1.00  0.00     0.000 HD 
HETATM    5  N   UNL     1     -12.690  10.515  70.012  1.00  0.00    -0.522 NA 
HETATM    6  N   UNL     1     -10.871   9.612  71.289  1.00  0.00    -0.343 NA 
HETATM    7  H2  UNL     1     -10.522   8.929  71.961  1.00  0.00     0.000 HD 
HETATM    8  H1  UNL     1     -10.315  10.347  70.852  1.00  0.00     0.000 HD 
HETATM    9  H   UNL     1     -13.684  10.455  69.791  1.00  0.00     0.000 HD 
ENDROOT
BRANCH   5  10
HETATM   10  C   UNL     1     -11.909  11.468  69.442  1.00  0.00    -0.350 A  
HETATM   11  N   UNL     1     -11.061  11.347  68.431  1.00  0.00    -0.221 NA 
HETATM   12  C   UNL     1     -10.464  12.568  68.133  1.00  0.00    -0.229 A  
HETATM   13  S   UNL     1     -12.021  13.077  70.073  1.00  0.00    -0.251 SA 
HETATM   14  C   UNL     1     -10.855  13.611  68.948  1.00  0.00    -0.235 A  
BRANCH  12  15
HETATM   15  C   UNL     1      -9.481  12.638  67.006  1.00  0.00    -0.220 C  
BRANCH  15  16
HETATM   16  S   UNL     1     -10.246  13.402  65.532  1.00  0.00    -0.271 SA 
BRANCH  16  17
HETATM   17  C   UNL     1      -9.732  15.142  65.749  1.00  0.00    -0.344 C  
BRANCH  17  18
HETATM   18  C   UNL     1      -8.488  15.344  66.607  1.00  0.00    -0.296 C  
BRANCH  18  19
HETATM   19  C   UNL     1      -8.594  16.558  67.530  1.00  0.00    -0.177 C  
HETATM   20  H2  UNL     1      -7.502  15.593  69.042  1.00  0.00     0.000 HD 
HETATM   21  N   UNL     1      -7.992  16.443  68.760  1.00  0.00    -0.220 NA 
HETATM   22  H1  UNL     1      -8.062  17.252  69.377  1.00  0.00     0.000 HD 
BRANCH  19  23
HETATM   23  N   UNL     1      -9.232  17.573  67.050  1.00  0.00    -0.242 N  
HETATM   24  H   UNL     1      -9.077  17.852  66.081  1.00  0.00     0.000 HD 
BRANCH  23  25
HETATM   25  S   UNL     1     -10.271  18.404  67.959  1.00  0.00    -0.385 S  
HETATM   26  O   UNL     1     -10.877  17.522  68.928  1.00  0.00    -0.168 OA 
HETATM   27  O   UNL     1     -11.071  19.249  67.105  1.00  0.00    -0.425 OA 
HETATM   28  N   UNL     1      -9.311  19.447  68.851  1.00  0.00    -0.386 N  
HETATM   29  H1  UNL     1      -9.968  19.973  69.426  1.00  0.00     0.000 HD 
HETATM   30  H2  UNL     1      -8.295  19.537  68.825  1.00  0.00     0.000 HD 
ENDBRANCH  23  25
ENDBRANCH  19  23
ENDBRANCH  18  19
ENDBRANCH  17  18
ENDBRANCH  16  17
ENDBRANCH  15  16
ENDBRANCH  12  15
ENDBRANCH   5  10
TORSDOF 8
ENDMDL
MODEL      204
REMARK 921   NORMALIZED FREE ENERGY PREDICTED BY IDOCK:   -4.13 KCAL/MOL
REMARK 922        TOTAL FREE ENERGY PREDICTED BY IDOCK:   -7.24 KCAL/MOL
REMARK 923 INTER-LIGAND FREE ENERGY PREDICTED BY IDOCK:   -5.45 KCAL/MOL
REMARK 924 INTRA-LIGAND FREE ENERGY PREDICTED BY IDOCK:   -1.79 KCAL/MOL
REMARK 927      BINDING AFFINITY PREDICTED BY RF-SCORE:    0.00 PKD
ROOT
HETATM    1  N   UNL     1     -10.196   4.018  65.745  1.00  0.00    -0.438 NA 
HETATM    2  C   UNL     1     -10.371   4.840  66.809  1.00  0.00    -0.181 C  
HETATM    3  H2  UNL     1     -10.543   4.192  64.802  1.00  0.00     0.000 HD 
HETATM    4  H1  UNL     1      -9.662   3.200  66.036  1.00  0.00     0.000 HD 
HETATM    5  N   UNL     1      -9.876   4.537  67.959  1.00  0.00    -0.127 NA 
HETATM    6  N   UNL     1     -11.082   5.929  66.423  1.00  0.00    -0.759 NA 
HETATM    7  H2  UNL     1     -11.429   6.103  65.480  1.00  0.00     0.000 HD 
HETATM    8  H1  UNL     1     -11.214   6.548  67.223  1.00  0.00     0.000 HD 
HETATM    9  H   UNL     1      -9.336   3.681  68.085  1.00  0.00     0.000 HD 
ENDROOT
BRANCH   5  10
HETATM   10  C   UNL     1     -10.088   5.382  69.001  1.00  0.00    -0.213 A  
HETATM   11  N   UNL     1     -11.175   6.081  69.290  1.00  0.00    -0.365 NA 
HETATM   12  C   UNL     1     -10.999   6.817  70.458  1.00  0.00    -0.280 A  
HETATM   13  S   UNL     1      -8.801   5.583  70.142  1.00  0.00    -0.138 SA 
HETATM   14  C   UNL     1      -9.753   6.681  71.037  1.00  0.00    -0.175 A  
BRANCH  12  15
HETATM   15  C   UNL     1     -12.126   7.665  70.959  1.00  0.00    -0.258 C  
BRANCH  15  16
HETATM   16  S   UNL     1     -11.501   9.268  71.575  1.00  0.00    -0.403 SA 
BRANCH  16  17
HETATM   17  C   UNL     1     -11.373  10.203  70.010  1.00  0.00    -0.287 C  
BRANCH  17  18
HETATM   18  C   UNL     1     -10.014  10.129  69.324  1.00  0.00    -0.234 C  
BRANCH  18  19
HETATM   19  C   UNL     1     -10.115   9.766  67.842  1.00  0.00    -0.173 C  
HETATM   20  H2  UNL     1     -11.540   8.274  68.230  1.00  0.00     0.000 HD 
HETATM   21  N   UNL     1     -10.989   8.756  67.520  1.00  0.00    -0.453 NA 
HETATM   22  H1  UNL     1     -11.056   8.513  66.531  1.00  0.00     0.000 HD 
BRANCH  19  23
HETATM   23  N   UNL     1      -9.371  10.458  67.044  1.00  0.00    -0.153 N  
HETATM   24  H   UNL     1      -9.353  11.475  67.129  1.00  0.00     0.000 HD 
BRANCH  23  25
HETATM   25  S   UNL     1      -8.471   9.738  65.918  1.00  0.00    -0.132 S  
HETATM   26  O   UNL     1      -8.132   8.404  66.352  1.00  0.00    -0.100 OA 
HETATM   27  O   UNL     1      -7.460  10.663  65.464  1.00  0.00    -0.138 OA 
HETATM   28  N   UNL     1      -9.507   9.531  64.619  1.00  0.00    -0.441 N  
HETATM   29  H1  UNL     1      -8.937   9.076  63.906  1.00  0.00     0.000 HD 
HETATM   30  H2  UNL     1     -10.489   9.800  64.554  1.00  0.00     0.000 HD 
ENDBRANCH  23  25
ENDBRANCH  19  23
ENDBRANCH  18  19
ENDBRANCH  17  18
ENDBRANCH  16  17
ENDBRANCH  15  16
ENDBRANCH  12  15
ENDBRANCH   5  10
TORSDOF 8
ENDMDL
MODEL      205
REMARK 921   NORMALIZED FREE ENERGY PREDICTED BY IDOCK:   -4.11 KCAL/MOL
REMARK 922        TOTAL FREE ENERGY PREDICTED BY IDOCK:   -7.21 KCAL/MOL
REMARK 923 INTER-LIGAND FREE ENERGY PREDICTED BY IDOCK:   -6.35 KCAL/MOL
REMARK 924 INTRA-LIGAND FREE ENERGY PREDICTED BY IDOCK:   -0.86 KCAL/MOL
REMARK 927      BINDING AFFINITY PREDICTED BY RF-SCORE:    0.00 PKD
ROOT
HETATM    1  N   UNL     1      -9.754   3.739  67.413  1.00  0.00    -0.223 NA 
HETATM    2  C   UNL     1      -9.758   4.892  68.125  1.00  0.00    -0.148 C  
HETATM    3  H2  UNL     1      -8.925   3.285  67.030  1.00  0.00     0.000 HD 
HETATM    4  H1  UNL     1     -10.710   3.396  67.321  1.00  0.00     0.000 HD 
HETATM    5  N   UNL     1     -10.862   5.376  68.581  1.00  0.00    -0.037 NA 
HETATM    6  N   UNL     1      -8.487   5.349  68.248  1.00  0.00    -0.097 NA 
HETATM    7  H2  UNL     1      -7.658   4.895  67.865  1.00  0.00     0.000 HD 
HETATM    8  H1  UNL     1      -8.489   6.216  68.784  1.00  0.00     0.000 HD 
HETATM    9  H   UNL     1     -11.747   4.894  68.424  1.00  0.00     0.000 HD 
ENDROOT
BRANCH   5  10
HETATM   10  C   UNL     1     -10.821   6.541  69.278  1.00  0.00    -0.307 A  
HETATM   11  N   UNL     1     -10.522   7.755  68.841  1.00  0.00    -0.212 NA 
HETATM   12  C   UNL     1     -10.612   8.691  69.868  1.00  0.00    -0.224 A  
HETATM   13  S   UNL     1     -11.232   6.482  70.959  1.00  0.00    -0.326 SA 
HETATM   14  C   UNL     1     -10.962   8.162  71.095  1.00  0.00    -0.237 A  
BRANCH  12  15
HETATM   15  C   UNL     1     -10.323  10.128  69.568  1.00  0.00    -0.240 C  
BRANCH  15  16
HETATM   16  S   UNL     1     -11.655  10.852  68.546  1.00  0.00    -0.239 SA 
BRANCH  16  17
HETATM   17  C   UNL     1     -10.687  11.975  67.479  1.00  0.00    -0.226 C  
BRANCH  17  18
HETATM   18  C   UNL     1     -11.195  13.411  67.426  1.00  0.00    -0.311 C  
BRANCH  18  19
HETATM   19  C   UNL     1     -11.621  13.840  66.022  1.00  0.00    -0.346 C  
HETATM   20  H2  UNL     1     -11.016  15.821  66.366  1.00  0.00     0.000 HD 
HETATM   21  N   UNL     1     -11.424  15.162  65.703  1.00  0.00    -0.255 NA 
HETATM   22  H1  UNL     1     -11.709  15.449  64.766  1.00  0.00     0.000 HD 
BRANCH  19  23
HETATM   23  N   UNL     1     -12.115  12.907  65.277  1.00  0.00    -0.425 N  
HETATM   24  H   UNL     1     -12.651  12.153  65.706  1.00  0.00     0.000 HD 
BRANCH  23  25
HETATM   25  S   UNL     1     -11.896  12.920  63.681  1.00  0.00    -0.540 S  
HETATM   26  O   UNL     1     -10.541  12.527  63.377  1.00  0.00    -0.415 OA 
HETATM   27  O   UNL     1     -12.471  14.127  63.138  1.00  0.00    -0.678 OA 
HETATM   28  N   UNL     1     -12.856  11.670  63.113  1.00  0.00    -0.865 N  
HETATM   29  H1  UNL     1     -12.718  11.678  62.103  1.00  0.00     0.000 HD 
HETATM   30  H2  UNL     1     -13.448  11.041  63.657  1.00  0.00     0.000 HD 
ENDBRANCH  23  25
ENDBRANCH  19  23
ENDBRANCH  18  19
ENDBRANCH  17  18
ENDBRANCH  16  17
ENDBRANCH  15  16
ENDBRANCH  12  15
ENDBRANCH   5  10
TORSDOF 8
ENDMDL
MODEL      206
REMARK 921   NORMALIZED FREE ENERGY PREDICTED BY IDOCK:   -4.11 KCAL/MOL
REMARK 922        TOTAL FREE ENERGY PREDICTED BY IDOCK:   -7.20 KCAL/MOL
REMARK 923 INTER-LIGAND FREE ENERGY PREDICTED BY IDOCK:   -6.57 KCAL/MOL
REMARK 924 INTRA-LIGAND FREE ENERGY PREDICTED BY IDOCK:   -0.63 KCAL/MOL
REMARK 927      BINDING AFFINITY PREDICTED BY RF-SCORE:    0.00 PKD
ROOT
HETATM    1  N   UNL     1     -13.956  13.849  72.830  1.00  0.00    -0.658 NA 
HETATM    2  C   UNL     1     -13.132  13.492  71.815  1.00  0.00    -0.387 C  
HETATM    3  H2  UNL     1     -14.102  14.801  73.164  1.00  0.00     0.000 HD 
HETATM    4  H1  UNL     1     -14.408  13.016  73.206  1.00  0.00     0.000 HD 
HETATM    5  N   UNL     1     -13.031  12.259  71.456  1.00  0.00    -0.354 NA 
HETATM    6  N   UNL     1     -12.531  14.600  71.313  1.00  0.00    -0.317 NA 
HETATM    7  H2  UNL     1     -12.677  15.552  71.648  1.00  0.00     0.000 HD 
HETATM    8  H1  UNL     1     -11.911  14.332  70.549  1.00  0.00     0.000 HD 
HETATM    9  H   UNL     1     -13.576  11.534  71.923  1.00  0.00     0.000 HD 
ENDROOT
BRANCH   5  10
HETATM   10  C   UNL     1     -12.183  11.944  70.444  1.00  0.00    -0.314 A  
HETATM   11  N   UNL     1     -11.732  12.722  69.471  1.00  0.00    -0.316 NA 
HETATM   12  C   UNL     1     -10.862  12.024  68.637  1.00  0.00    -0.237 A  
HETATM   13  S   UNL     1     -11.563  10.328  70.393  1.00  0.00    -0.349 SA 
HETATM   14  C   UNL     1     -10.679  10.700  68.981  1.00  0.00    -0.221 A  
BRANCH  12  15
HETATM   15  C   UNL     1     -10.235  12.740  67.482  1.00  0.00    -0.216 C  
BRANCH  15  16
HETATM   16  S   UNL     1     -11.396  13.962  66.775  1.00  0.00    -0.348 SA 
BRANCH  16  17
HETATM   17  C   UNL     1     -10.861  15.476  67.646  1.00  0.00    -0.306 C  
BRANCH  17  18
HETATM   18  C   UNL     1      -9.979  16.412  66.829  1.00  0.00    -0.277 C  
BRANCH  18  19
HETATM   19  C   UNL     1      -8.841  17.023  67.647  1.00  0.00    -0.220 C  
HETATM   20  H2  UNL     1      -8.943  15.484  69.072  1.00  0.00     0.000 HD 
HETATM   21  N   UNL     1      -8.479  16.346  68.787  1.00  0.00    -0.238 NA 
HETATM   22  H1  UNL     1      -7.720  16.754  69.334  1.00  0.00     0.000 HD 
BRANCH  19  23
HETATM   23  N   UNL     1      -8.332  18.111  67.173  1.00  0.00    -0.233 N  
HETATM   24  H   UNL     1      -7.900  18.103  66.248  1.00  0.00     0.000 HD 
BRANCH  23  25
HETATM   25  S   UNL     1      -8.369  19.481  68.020  1.00  0.00    -0.325 S  
HETATM   26  O   UNL     1      -7.025  19.855  68.391  1.00  0.00    -0.286 OA 
HETATM   27  O   UNL     1      -9.426  19.399  69.000  1.00  0.00    -0.391 OA 
HETATM   28  N   UNL     1      -8.864  20.645  66.921  1.00  0.00    -0.578 N  
HETATM   29  H1  UNL     1      -8.887  21.511  67.458  1.00  0.00     0.000 HD 
HETATM   30  H2  UNL     1      -9.091  20.515  65.935  1.00  0.00     0.000 HD 
ENDBRANCH  23  25
ENDBRANCH  19  23
ENDBRANCH  18  19
ENDBRANCH  17  18
ENDBRANCH  16  17
ENDBRANCH  15  16
ENDBRANCH  12  15
ENDBRANCH   5  10
TORSDOF 8
ENDMDL
MODEL      207
REMARK 921   NORMALIZED FREE ENERGY PREDICTED BY IDOCK:   -4.09 KCAL/MOL
REMARK 922        TOTAL FREE ENERGY PREDICTED BY IDOCK:   -7.18 KCAL/MOL
REMARK 923 INTER-LIGAND FREE ENERGY PREDICTED BY IDOCK:   -5.13 KCAL/MOL
REMARK 924 INTRA-LIGAND FREE ENERGY PREDICTED BY IDOCK:   -2.05 KCAL/MOL
REMARK 927      BINDING AFFINITY PREDICTED BY RF-SCORE:    0.00 PKD
ROOT
HETATM    1  N   UNL     1     -12.333  15.360  68.973  1.00  0.00    -0.612 NA 
HETATM    2  C   UNL     1     -11.854  14.835  67.819  1.00  0.00    -0.294 C  
HETATM    3  H2  UNL     1     -12.190  16.320  69.288  1.00  0.00     0.000 HD 
HETATM    4  H1  UNL     1     -12.859  14.647  69.476  1.00  0.00     0.000 HD 
HETATM    5  N   UNL     1     -12.107  13.612  67.502  1.00  0.00    -0.355 NA 
HETATM    6  N   UNL     1     -11.154  15.784  67.149  1.00  0.00    -0.241 NA 
HETATM    7  H2  UNL     1     -11.011  16.744  67.464  1.00  0.00     0.000 HD 
HETATM    8  H1  UNL     1     -10.794  15.389  66.281  1.00  0.00     0.000 HD 
HETATM    9  H   UNL     1     -12.678  13.024  68.108  1.00  0.00     0.000 HD 
ENDROOT
BRANCH   5  10
HETATM   10  C   UNL     1     -11.595  13.122  66.344  1.00  0.00    -0.349 A  
HETATM   11  N   UNL     1     -10.408  12.575  66.130  1.00  0.00    -0.248 NA 
HETATM   12  C   UNL     1     -10.273  12.181  64.801  1.00  0.00    -0.281 A  
HETATM   13  S   UNL     1     -12.605  13.178  64.937  1.00  0.00    -0.365 SA 
HETATM   14  C   UNL     1     -11.367  12.460  64.007  1.00  0.00    -0.399 A  
BRANCH  12  15
HETATM   15  C   UNL     1      -8.999  11.527  64.365  1.00  0.00     0.305 C  
BRANCH  15  16
HETATM   16  S   UNL     1      -9.287   9.769  63.958  1.00  0.00    -0.044 SA 
BRANCH  16  17
HETATM   17  C   UNL     1      -8.505   8.958  65.397  1.00  0.00    -0.160 C  
BRANCH  17  18
HETATM   18  C   UNL     1      -9.407   8.001  66.166  1.00  0.00    -0.212 C  
BRANCH  18  19
HETATM   19  C   UNL     1      -9.970   8.614  67.448  1.00  0.00    -0.210 C  
HETATM   20  H2  UNL     1     -10.841   6.792  68.023  1.00  0.00     0.000 HD 
HETATM   21  N   UNL     1     -10.690   7.773  68.262  1.00  0.00    -0.404 NA 
HETATM   22  H1  UNL     1     -11.066   8.182  69.117  1.00  0.00     0.000 HD 
BRANCH  19  23
HETATM   23  N   UNL     1      -9.699   9.864  67.637  1.00  0.00    -0.152 N  
HETATM   24  H   UNL     1      -9.186  10.380  66.922  1.00  0.00     0.000 HD 
BRANCH  23  25
HETATM   25  S   UNL     1     -10.160  10.616  68.985  1.00  0.00    -0.213 S  
HETATM   26  O   UNL     1      -9.521  10.001  70.123  1.00  0.00    -0.213 OA 
HETATM   27  O   UNL     1     -11.588  10.823  68.942  1.00  0.00    -0.281 OA 
HETATM   28  N   UNL     1      -9.481  12.143  68.869  1.00  0.00    -0.406 N  
HETATM   29  H1  UNL     1      -9.772  12.619  69.722  1.00  0.00     0.000 HD 
HETATM   30  H2  UNL     1      -8.904  12.514  68.114  1.00  0.00     0.000 HD 
ENDBRANCH  23  25
ENDBRANCH  19  23
ENDBRANCH  18  19
ENDBRANCH  17  18
ENDBRANCH  16  17
ENDBRANCH  15  16
ENDBRANCH  12  15
ENDBRANCH   5  10
TORSDOF 8
ENDMDL
MODEL      208
REMARK 921   NORMALIZED FREE ENERGY PREDICTED BY IDOCK:   -4.09 KCAL/MOL
REMARK 922        TOTAL FREE ENERGY PREDICTED BY IDOCK:   -7.17 KCAL/MOL
REMARK 923 INTER-LIGAND FREE ENERGY PREDICTED BY IDOCK:   -5.70 KCAL/MOL
REMARK 924 INTRA-LIGAND FREE ENERGY PREDICTED BY IDOCK:   -1.47 KCAL/MOL
REMARK 927      BINDING AFFINITY PREDICTED BY RF-SCORE:    0.00 PKD
ROOT
HETATM    1  N   UNL     1     -13.365  15.544  71.267  1.00  0.00    -0.518 NA 
HETATM    2  C   UNL     1     -12.393  15.272  70.363  1.00  0.00    -0.380 C  
HETATM    3  H2  UNL     1     -13.316  15.339  72.265  1.00  0.00     0.000 HD 
HETATM    4  H1  UNL     1     -14.152  15.986  70.794  1.00  0.00     0.000 HD 
HETATM    5  N   UNL     1     -12.544  15.589  69.124  1.00  0.00    -0.476 NA 
HETATM    6  N   UNL     1     -11.345  14.683  70.993  1.00  0.00    -0.529 NA 
HETATM    7  H2  UNL     1     -11.296  14.478  71.990  1.00  0.00     0.000 HD 
HETATM    8  H1  UNL     1     -10.613  14.479  70.312  1.00  0.00     0.000 HD 
HETATM    9  H   UNL     1     -13.393  16.057  68.805  1.00  0.00     0.000 HD 
ENDROOT
BRANCH   5  10
HETATM   10  C   UNL     1     -11.551  15.285  68.249  1.00  0.00    -0.341 A  
HETATM   11  N   UNL     1     -10.289  15.687  68.260  1.00  0.00    -0.239 NA 
HETATM   12  C   UNL     1      -9.581  15.136  67.195  1.00  0.00    -0.218 A  
HETATM   13  S   UNL     1     -11.934  14.212  66.945  1.00  0.00    -0.434 SA 
HETATM   14  C   UNL     1     -10.333  14.329  66.365  1.00  0.00    -0.286 A  
BRANCH  12  15
HETATM   15  C   UNL     1      -8.128  15.463  67.043  1.00  0.00    -0.230 C  
BRANCH  15  16
HETATM   16  S   UNL     1      -7.143  14.628  68.335  1.00  0.00    -0.128 SA 
BRANCH  16  17
HETATM   17  C   UNL     1      -7.331  12.883  67.826  1.00  0.00    -0.134 C  
BRANCH  17  18
HETATM   18  C   UNL     1      -7.184  11.864  68.950  1.00  0.00    -0.098 C  
BRANCH  18  19
HETATM   19  C   UNL     1      -8.024  10.607  68.727  1.00  0.00    -0.135 C  
HETATM   20  H2  UNL     1      -6.678   9.425  69.823  1.00  0.00     0.000 HD 
HETATM   21  N   UNL     1      -7.546   9.447  69.288  1.00  0.00    -0.078 NA 
HETATM   22  H1  UNL     1      -8.107   8.607  69.139  1.00  0.00     0.000 HD 
BRANCH  19  23
HETATM   23  N   UNL     1      -9.106  10.771  68.040  1.00  0.00    -0.146 N  
HETATM   24  H   UNL     1      -9.041  11.010  67.050  1.00  0.00     0.000 HD 
BRANCH  23  25
HETATM   25  S   UNL     1     -10.555  10.603  68.724  1.00  0.00    -0.223 S  
HETATM   26  O   UNL     1     -10.481   9.617  69.775  1.00  0.00    -0.207 OA 
HETATM   27  O   UNL     1     -11.557  10.526  67.687  1.00  0.00    -0.447 OA 
HETATM   28  N   UNL     1     -10.826  12.060  69.503  1.00  0.00    -0.452 N  
HETATM   29  H1  UNL     1     -11.743  11.954  69.936  1.00  0.00     0.000 HD 
HETATM   30  H2  UNL     1     -10.211  12.874  69.538  1.00  0.00     0.000 HD 
ENDBRANCH  23  25
ENDBRANCH  19  23
ENDBRANCH  18  19
ENDBRANCH  17  18
ENDBRANCH  16  17
ENDBRANCH  15  16
ENDBRANCH  12  15
ENDBRANCH   5  10
TORSDOF 8
ENDMDL
MODEL      209
REMARK 921   NORMALIZED FREE ENERGY PREDICTED BY IDOCK:   -4.08 KCAL/MOL
REMARK 922        TOTAL FREE ENERGY PREDICTED BY IDOCK:   -7.16 KCAL/MOL
REMARK 923 INTER-LIGAND FREE ENERGY PREDICTED BY IDOCK:   -7.67 KCAL/MOL
REMARK 924 INTRA-LIGAND FREE ENERGY PREDICTED BY IDOCK:    0.51 KCAL/MOL
REMARK 927      BINDING AFFINITY PREDICTED BY RF-SCORE:    0.00 PKD
ROOT
HETATM    1  N   UNL     1     -13.178  16.113  74.453  1.00  0.00    -0.789 NA 
HETATM    2  C   UNL     1     -12.798  15.512  73.299  1.00  0.00    -0.517 C  
HETATM    3  H2  UNL     1     -12.878  17.036  74.763  1.00  0.00     0.000 HD 
HETATM    4  H1  UNL     1     -13.812  15.497  74.961  1.00  0.00     0.000 HD 
HETATM    5  N   UNL     1     -13.250  14.346  72.988  1.00  0.00    -0.598 NA 
HETATM    6  N   UNL     1     -11.955  16.331  72.622  1.00  0.00    -0.545 NA 
HETATM    7  H2  UNL     1     -11.655  17.255  72.933  1.00  0.00     0.000 HD 
HETATM    8  H1  UNL     1     -11.669  15.879  71.753  1.00  0.00     0.000 HD 
HETATM    9  H   UNL     1     -13.908  13.862  73.599  1.00  0.00     0.000 HD 
ENDROOT
BRANCH   5  10
HETATM   10  C   UNL     1     -12.832  13.775  71.829  1.00  0.00    -0.326 A  
HETATM   11  N   UNL     1     -12.627  12.493  71.566  1.00  0.00    -0.216 NA 
HETATM   12  C   UNL     1     -12.216  12.315  70.247  1.00  0.00    -0.262 A  
HETATM   13  S   UNL     1     -12.540  14.823  70.482  1.00  0.00    -0.354 SA 
HETATM   14  C   UNL     1     -12.092  13.484  69.524  1.00  0.00    -0.297 A  
BRANCH  12  15
HETATM   15  C   UNL     1     -11.946  10.928  69.754  1.00  0.00    -0.351 C  
BRANCH  15  16
HETATM   16  S   UNL     1     -10.200  10.756  69.243  1.00  0.00    -0.154 SA 
BRANCH  16  17
HETATM   17  C   UNL     1     -10.237  11.603  67.625  1.00  0.00    -0.188 C  
BRANCH  17  18
HETATM   18  C   UNL     1      -8.925  12.258  67.209  1.00  0.00    -0.187 C  
BRANCH  18  19
HETATM   19  C   UNL     1      -8.959  13.782  67.322  1.00  0.00    -0.224 C  
HETATM   20  H2  UNL     1      -8.820  13.701  69.416  1.00  0.00     0.000 HD 
HETATM   21  N   UNL     1      -8.890  14.300  68.593  1.00  0.00    -0.257 NA 
HETATM   22  H1  UNL     1      -8.914  15.318  68.669  1.00  0.00     0.000 HD 
BRANCH  19  23
HETATM   23  N   UNL     1      -9.040  14.425  66.205  1.00  0.00    -0.504 N  
HETATM   24  H   UNL     1      -8.241  14.432  65.570  1.00  0.00     0.000 HD 
BRANCH  23  25
HETATM   25  S   UNL     1     -10.384  15.215  65.799  1.00  0.00    -0.369 S  
HETATM   26  O   UNL     1     -10.049  16.557  65.387  1.00  0.00    -0.570 OA 
HETATM   27  O   UNL     1     -11.396  14.963  66.797  1.00  0.00    -0.344 OA 
HETATM   28  N   UNL     1     -10.923  14.448  64.411  1.00  0.00    -0.618 N  
HETATM   29  H1  UNL     1     -11.773  14.948  64.154  1.00  0.00     0.000 HD 
HETATM   30  H2  UNL     1     -10.495  13.657  63.929  1.00  0.00     0.000 HD 
ENDBRANCH  23  25
ENDBRANCH  19  23
ENDBRANCH  18  19
ENDBRANCH  17  18
ENDBRANCH  16  17
ENDBRANCH  15  16
ENDBRANCH  12  15
ENDBRANCH   5  10
TORSDOF 8
ENDMDL
MODEL      210
REMARK 921   NORMALIZED FREE ENERGY PREDICTED BY IDOCK:   -4.07 KCAL/MOL
REMARK 922        TOTAL FREE ENERGY PREDICTED BY IDOCK:   -7.16 KCAL/MOL
REMARK 923 INTER-LIGAND FREE ENERGY PREDICTED BY IDOCK:   -6.00 KCAL/MOL
REMARK 924 INTRA-LIGAND FREE ENERGY PREDICTED BY IDOCK:   -1.16 KCAL/MOL
REMARK 927      BINDING AFFINITY PREDICTED BY RF-SCORE:    0.00 PKD
ROOT
HETATM    1  N   UNL     1      -9.378  15.465  65.922  1.00  0.00    -0.365 NA 
HETATM    2  C   UNL     1      -9.738  14.186  66.190  1.00  0.00    -0.290 C  
HETATM    3  H2  UNL     1     -10.022  16.228  65.717  1.00  0.00     0.000 HD 
HETATM    4  H1  UNL     1      -8.362  15.543  65.957  1.00  0.00     0.000 HD 
HETATM    5  N   UNL     1      -8.845  13.296  66.455  1.00  0.00    -0.449 NA 
HETATM    6  N   UNL     1     -11.090  14.081  66.144  1.00  0.00    -0.299 NA 
HETATM    7  H2  UNL     1     -11.734  14.845  65.939  1.00  0.00     0.000 HD 
HETATM    8  H1  UNL     1     -11.362  13.119  66.346  1.00  0.00     0.000 HD 
HETATM    9  H   UNL     1      -7.856  13.541  66.477  1.00  0.00     0.000 HD 
ENDROOT
BRANCH   5  10
HETATM   10  C   UNL     1      -9.250  12.024  66.705  1.00  0.00    -0.201 A  
HETATM   11  N   UNL     1      -9.677  11.501  67.845  1.00  0.00    -0.178 NA 
HETATM   12  C   UNL     1     -10.017  10.161  67.682  1.00  0.00    -0.181 A  
HETATM   13  S   UNL     1      -9.249  10.910  65.380  1.00  0.00    -0.210 SA 
HETATM   14  C   UNL     1      -9.819   9.672  66.407  1.00  0.00    -0.244 A  
BRANCH  12  15
HETATM   15  C   UNL     1     -10.536   9.396  68.860  1.00  0.00    -0.216 C  
BRANCH  15  16
HETATM   16  S   UNL     1     -11.088  10.538  70.175  1.00  0.00    -0.270 SA 
BRANCH  16  17
HETATM   17  C   UNL     1     -12.835  10.033  70.348  1.00  0.00    -0.027 C  
BRANCH  17  18
HETATM   18  C   UNL     1     -13.205   9.442  71.703  1.00  0.00    -0.470 C  
BRANCH  18  19
HETATM   19  C   UNL     1     -12.625   8.044  71.921  1.00  0.00    -0.328 C  
HETATM   20  H2  UNL     1     -13.218   7.421  70.005  1.00  0.00     0.000 HD 
HETATM   21  N   UNL     1     -12.758   7.160  70.878  1.00  0.00    -0.586 NA 
HETATM   22  H1  UNL     1     -12.371   6.227  71.023  1.00  0.00     0.000 HD 
BRANCH  19  23
HETATM   23  N   UNL     1     -12.059   7.845  73.065  1.00  0.00    -0.541 N  
HETATM   24  H   UNL     1     -12.445   8.286  73.900  1.00  0.00     0.000 HD 
BRANCH  23  25
HETATM   25  S   UNL     1     -10.754   6.909  73.192  1.00  0.00    -0.313 S  
HETATM   26  O   UNL     1     -10.264   6.946  74.549  1.00  0.00    -0.259 OA 
HETATM   27  O   UNL     1      -9.883   7.164  72.069  1.00  0.00    -0.159 OA 
HETATM   28  N   UNL     1     -11.327   5.351  72.971  1.00  0.00    -0.410 N  
HETATM   29  H1  UNL     1     -10.501   4.759  73.051  1.00  0.00     0.000 HD 
HETATM   30  H2  UNL     1     -12.289   5.059  72.795  1.00  0.00     0.000 HD 
ENDBRANCH  23  25
ENDBRANCH  19  23
ENDBRANCH  18  19
ENDBRANCH  17  18
ENDBRANCH  16  17
ENDBRANCH  15  16
ENDBRANCH  12  15
ENDBRANCH   5  10
TORSDOF 8
ENDMDL
MODEL      211
REMARK 921   NORMALIZED FREE ENERGY PREDICTED BY IDOCK:   -4.06 KCAL/MOL
REMARK 922        TOTAL FREE ENERGY PREDICTED BY IDOCK:   -7.14 KCAL/MOL
REMARK 923 INTER-LIGAND FREE ENERGY PREDICTED BY IDOCK:   -5.14 KCAL/MOL
REMARK 924 INTRA-LIGAND FREE ENERGY PREDICTED BY IDOCK:   -2.00 KCAL/MOL
REMARK 927      BINDING AFFINITY PREDICTED BY RF-SCORE:    0.00 PKD
ROOT
HETATM    1  N   UNL     1     -11.899  11.424  67.387  1.00  0.00    -0.601 NA 
HETATM    2  C   UNL     1     -11.079  10.345  67.370  1.00  0.00    -0.226 C  
HETATM    3  H2  UNL     1     -12.567  11.645  68.124  1.00  0.00     0.000 HD 
HETATM    4  H1  UNL     1     -11.742  11.980  66.547  1.00  0.00     0.000 HD 
HETATM    5  N   UNL     1     -10.254  10.165  66.397  1.00  0.00    -0.233 NA 
HETATM    6  N   UNL     1     -11.287   9.605  68.488  1.00  0.00    -0.491 NA 
HETATM    7  H2  UNL     1     -11.956   9.826  69.225  1.00  0.00     0.000 HD 
HETATM    8  H1  UNL     1     -10.670   8.793  68.476  1.00  0.00     0.000 HD 
HETATM    9  H   UNL     1     -10.197  10.835  65.630  1.00  0.00     0.000 HD 
ENDROOT
BRANCH   5  10
HETATM   10  C   UNL     1      -9.460   9.063  66.414  1.00  0.00    -0.226 A  
HETATM   11  N   UNL     1      -9.808   7.797  66.589  1.00  0.00    -0.231 NA 
HETATM   12  C   UNL     1      -8.696   6.961  66.520  1.00  0.00    -0.133 A  
HETATM   13  S   UNL     1      -7.764   9.295  66.152  1.00  0.00    -0.096 SA 
HETATM   14  C   UNL     1      -7.499   7.616  66.313  1.00  0.00    -0.083 A  
BRANCH  12  15
HETATM   15  C   UNL     1      -8.888   5.485  66.681  1.00  0.00    -0.117 C  
BRANCH  15  16
HETATM   16  S   UNL     1      -8.277   4.931  68.312  1.00  0.00    -0.084 SA 
BRANCH  16  17
HETATM   17  C   UNL     1      -9.845   4.435  69.107  1.00  0.00    -0.128 C  
BRANCH  17  18
HETATM   18  C   UNL     1     -10.181   5.183  70.392  1.00  0.00    -0.334 C  
BRANCH  18  19
HETATM   19  C   UNL     1     -11.007   6.446  70.147  1.00  0.00    -0.334 C  
HETATM   20  H2  UNL     1     -11.308   5.944  68.130  1.00  0.00     0.000 HD 
HETATM   21  N   UNL     1     -11.490   6.620  68.872  1.00  0.00    -0.602 NA 
HETATM   22  H1  UNL     1     -12.041   7.463  68.708  1.00  0.00     0.000 HD 
BRANCH  19  23
HETATM   23  N   UNL     1     -11.172   7.215  71.172  1.00  0.00    -0.254 N  
HETATM   24  H   UNL     1     -11.953   7.047  71.806  1.00  0.00     0.000 HD 
BRANCH  23  25
HETATM   25  S   UNL     1     -10.162   8.436  71.462  1.00  0.00    -0.251 S  
HETATM   26  O   UNL     1      -9.391   8.152  72.649  1.00  0.00    -0.217 OA 
HETATM   27  O   UNL     1     -10.874   9.682  71.306  1.00  0.00    -0.350 OA 
HETATM   28  N   UNL     1      -9.063   8.385  70.199  1.00  0.00    -0.148 N  
HETATM   29  H1  UNL     1      -8.424   9.158  70.383  1.00  0.00     0.000 HD 
HETATM   30  H2  UNL     1      -9.039   7.728  69.419  1.00  0.00     0.000 HD 
ENDBRANCH  23  25
ENDBRANCH  19  23
ENDBRANCH  18  19
ENDBRANCH  17  18
ENDBRANCH  16  17
ENDBRANCH  15  16
ENDBRANCH  12  15
ENDBRANCH   5  10
TORSDOF 8
ENDMDL
MODEL      212
REMARK 921   NORMALIZED FREE ENERGY PREDICTED BY IDOCK:   -4.04 KCAL/MOL
REMARK 922        TOTAL FREE ENERGY PREDICTED BY IDOCK:   -7.10 KCAL/MOL
REMARK 923 INTER-LIGAND FREE ENERGY PREDICTED BY IDOCK:   -6.26 KCAL/MOL
REMARK 924 INTRA-LIGAND FREE ENERGY PREDICTED BY IDOCK:   -0.84 KCAL/MOL
REMARK 927      BINDING AFFINITY PREDICTED BY RF-SCORE:    0.00 PKD
ROOT
HETATM    1  N   UNL     1     -14.366   7.552  71.570  1.00  0.00    -0.519 NA 
HETATM    2  C   UNL     1     -13.024   7.631  71.400  1.00  0.00    -0.311 C  
HETATM    3  H2  UNL     1     -14.986   6.907  71.080  1.00  0.00     0.000 HD 
HETATM    4  H1  UNL     1     -14.659   8.237  72.266  1.00  0.00     0.000 HD 
HETATM    5  N   UNL     1     -12.326   8.470  72.084  1.00  0.00    -0.359 NA 
HETATM    6  N   UNL     1     -12.634   6.719  70.475  1.00  0.00    -0.478 NA 
HETATM    7  H2  UNL     1     -13.253   6.075  69.984  1.00  0.00     0.000 HD 
HETATM    8  H1  UNL     1     -11.624   6.778  70.347  1.00  0.00     0.000 HD 
HETATM    9  H   UNL     1     -12.769   9.081  72.770  1.00  0.00     0.000 HD 
ENDROOT
BRANCH   5  10
HETATM   10  C   UNL     1     -10.986   8.526  71.871  1.00  0.00    -0.324 A  
HETATM   11  N   UNL     1     -10.329   9.110  70.881  1.00  0.00    -0.255 NA 
HETATM   12  C   UNL     1      -8.954   8.955  71.034  1.00  0.00    -0.241 A  
HETATM   13  S   UNL     1      -9.959   7.764  73.040  1.00  0.00    -0.307 SA 
HETATM   14  C   UNL     1      -8.581   8.225  72.145  1.00  0.00    -0.188 A  
BRANCH  12  15
HETATM   15  C   UNL     1      -8.038   9.561  70.017  1.00  0.00    -0.167 C  
BRANCH  15  16
HETATM   16  S   UNL     1      -8.873   9.693  68.397  1.00  0.00    -0.124 SA 
BRANCH  16  17
HETATM   17  C   UNL     1      -8.509  11.432  67.972  1.00  0.00    -0.145 C  
BRANCH  17  18
HETATM   18  C   UNL     1      -9.160  11.931  66.687  1.00  0.00    -0.203 C  
BRANCH  18  19
HETATM   19  C   UNL     1     -10.612  12.366  66.886  1.00  0.00    -0.229 C  
HETATM   20  H2  UNL     1     -10.150  13.334  68.691  1.00  0.00     0.000 HD 
HETATM   21  N   UNL     1     -10.880  13.096  68.019  1.00  0.00    -0.235 NA 
HETATM   22  H1  UNL     1     -11.849  13.386  68.153  1.00  0.00     0.000 HD 
BRANCH  19  23
HETATM   23  N   UNL     1     -11.436  12.008  65.958  1.00  0.00    -0.357 N  
HETATM   24  H   UNL     1     -11.667  11.021  65.845  1.00  0.00     0.000 HD 
BRANCH  23  25
HETATM   25  S   UNL     1     -12.102  13.097  64.976  1.00  0.00    -0.444 S  
HETATM   26  O   UNL     1     -11.238  14.250  64.878  1.00  0.00    -0.344 OA 
HETATM   27  O   UNL     1     -13.502  13.230  65.302  1.00  0.00    -0.452 OA 
HETATM   28  N   UNL     1     -12.059  12.384  63.461  1.00  0.00    -0.575 N  
HETATM   29  H1  UNL     1     -12.481  13.073  62.840  1.00  0.00     0.000 HD 
HETATM   30  H2  UNL     1     -11.693  11.464  63.215  1.00  0.00     0.000 HD 
ENDBRANCH  23  25
ENDBRANCH  19  23
ENDBRANCH  18  19
ENDBRANCH  17  18
ENDBRANCH  16  17
ENDBRANCH  15  16
ENDBRANCH  12  15
ENDBRANCH   5  10
TORSDOF 8
ENDMDL
MODEL      213
REMARK 921   NORMALIZED FREE ENERGY PREDICTED BY IDOCK:   -4.01 KCAL/MOL
REMARK 922        TOTAL FREE ENERGY PREDICTED BY IDOCK:   -7.06 KCAL/MOL
REMARK 923 INTER-LIGAND FREE ENERGY PREDICTED BY IDOCK:   -7.55 KCAL/MOL
REMARK 924 INTRA-LIGAND FREE ENERGY PREDICTED BY IDOCK:    0.48 KCAL/MOL
REMARK 927      BINDING AFFINITY PREDICTED BY RF-SCORE:    0.00 PKD
ROOT
HETATM    1  N   UNL     1     -12.994  11.691  62.878  1.00  0.00    -0.792 NA 
HETATM    2  C   UNL     1     -12.425  12.606  63.699  1.00  0.00    -0.427 C  
HETATM    3  H2  UNL     1     -13.323  11.874  61.929  1.00  0.00     0.000 HD 
HETATM    4  H1  UNL     1     -13.043  10.792  63.356  1.00  0.00     0.000 HD 
HETATM    5  N   UNL     1     -12.026  12.270  64.877  1.00  0.00    -0.377 NA 
HETATM    6  N   UNL     1     -12.361  13.803  63.063  1.00  0.00    -1.030 NA 
HETATM    7  H2  UNL     1     -12.689  13.985  62.115  1.00  0.00     0.000 HD 
HETATM    8  H1  UNL     1     -11.932  14.492  63.682  1.00  0.00     0.000 HD 
HETATM    9  H   UNL     1     -12.123  11.310  65.206  1.00  0.00     0.000 HD 
ENDROOT
BRANCH   5  10
HETATM   10  C   UNL     1     -11.474  13.222  65.672  1.00  0.00    -0.318 A  
HETATM   11  N   UNL     1     -12.079  14.188  66.347  1.00  0.00    -0.441 NA 
HETATM   12  C   UNL     1     -11.157  14.950  67.061  1.00  0.00    -0.338 A  
HETATM   13  S   UNL     1      -9.755  13.192  65.880  1.00  0.00    -0.116 SA 
HETATM   14  C   UNL     1      -9.843  14.559  66.898  1.00  0.00    -0.262 A  
BRANCH  12  15
HETATM   15  C   UNL     1     -11.651  16.086  67.901  1.00  0.00    -0.054 C  
BRANCH  15  16
HETATM   16  S   UNL     1     -11.424  15.720  69.677  1.00  0.00    -0.360 SA 
BRANCH  16  17
HETATM   17  C   UNL     1     -11.591  13.900  69.669  1.00  0.00    -0.286 C  
BRANCH  17  18
HETATM   18  C   UNL     1     -12.870  13.367  70.305  1.00  0.00     0.044 C  
BRANCH  18  19
HETATM   19  C   UNL     1     -13.186  14.028  71.647  1.00  0.00    -0.368 C  
HETATM   20  H2  UNL     1     -13.912  12.226  72.444  1.00  0.00     0.000 HD 
HETATM   21  N   UNL     1     -13.730  13.215  72.613  1.00  0.00    -0.717 NA 
HETATM   22  H1  UNL     1     -13.942  13.656  73.509  1.00  0.00     0.000 HD 
BRANCH  19  23
HETATM   23  N   UNL     1     -12.899  15.284  71.734  1.00  0.00    -0.349 N  
HETATM   24  H   UNL     1     -12.787  15.834  70.883  1.00  0.00     0.000 HD 
BRANCH  23  25
HETATM   25  S   UNL     1     -12.715  15.994  73.169  1.00  0.00    -0.520 S  
HETATM   26  O   UNL     1     -14.007  16.176  73.786  1.00  0.00    -0.119 OA 
HETATM   27  O   UNL     1     -11.782  17.087  73.036  1.00  0.00    -0.228 OA 
HETATM   28  N   UNL     1     -11.934  14.849  74.110  1.00  0.00    -0.487 N  
HETATM   29  H1  UNL     1     -11.817  15.298  75.018  1.00  0.00     0.000 HD 
HETATM   30  H2  UNL     1     -11.640  13.911  73.836  1.00  0.00     0.000 HD 
ENDBRANCH  23  25
ENDBRANCH  19  23
ENDBRANCH  18  19
ENDBRANCH  17  18
ENDBRANCH  16  17
ENDBRANCH  15  16
ENDBRANCH  12  15
ENDBRANCH   5  10
TORSDOF 8
ENDMDL
MODEL      214
REMARK 921   NORMALIZED FREE ENERGY PREDICTED BY IDOCK:   -4.00 KCAL/MOL
REMARK 922        TOTAL FREE ENERGY PREDICTED BY IDOCK:   -7.05 KCAL/MOL
REMARK 923 INTER-LIGAND FREE ENERGY PREDICTED BY IDOCK:   -5.48 KCAL/MOL
REMARK 924 INTRA-LIGAND FREE ENERGY PREDICTED BY IDOCK:   -1.57 KCAL/MOL
REMARK 927      BINDING AFFINITY PREDICTED BY RF-SCORE:    0.00 PKD
ROOT
HETATM    1  N   UNL     1     -11.123  20.064  65.081  1.00  0.00    -0.074 NA 
HETATM    2  C   UNL     1     -10.120  19.436  65.741  1.00  0.00    -0.194 C  
HETATM    3  H2  UNL     1     -12.005  19.635  64.801  1.00  0.00     0.000 HD 
HETATM    4  H1  UNL     1     -10.858  21.033  64.908  1.00  0.00     0.000 HD 
HETATM    5  N   UNL     1      -9.049  20.074  66.065  1.00  0.00    -0.535 NA 
HETATM    6  N   UNL     1     -10.472  18.146  65.971  1.00  0.00    -0.505 NA 
HETATM    7  H2  UNL     1     -11.354  17.717  65.691  1.00  0.00     0.000 HD 
HETATM    8  H1  UNL     1      -9.718  17.673  66.468  1.00  0.00     0.000 HD 
HETATM    9  H   UNL     1      -8.944  21.063  65.840  1.00  0.00     0.000 HD 
ENDROOT
BRANCH   5  10
HETATM   10  C   UNL     1      -8.064  19.402  66.714  1.00  0.00    -0.284 A  
HETATM   11  N   UNL     1      -7.752  18.117  66.639  1.00  0.00    -0.225 NA 
HETATM   12  C   UNL     1      -6.660  17.821  67.450  1.00  0.00    -0.164 A  
HETATM   13  S   UNL     1      -7.038  20.312  67.773  1.00  0.00    -0.304 SA 
HETATM   14  C   UNL     1      -6.165  18.898  68.158  1.00  0.00    -0.220 A  
BRANCH  12  15
HETATM   15  C   UNL     1      -6.146  16.416  67.491  1.00  0.00    -0.155 C  
BRANCH  15  16
HETATM   16  S   UNL     1      -5.851  15.888  69.215  1.00  0.00    -0.127 SA 
BRANCH  16  17
HETATM   17  C   UNL     1      -7.061  14.526  69.361  1.00  0.00    -0.140 C  
BRANCH  17  18
HETATM   18  C   UNL     1      -7.790  14.171  68.071  1.00  0.00    -0.146 C  
BRANCH  18  19
HETATM   19  C   UNL     1      -9.249  14.626  68.067  1.00  0.00    -0.197 C  
HETATM   20  H2  UNL     1      -8.916  15.921  66.448  1.00  0.00     0.000 HD 
HETATM   21  N   UNL     1      -9.595  15.555  67.115  1.00  0.00    -0.219 NA 
HETATM   22  H1  UNL     1     -10.569  15.860  67.112  1.00  0.00     0.000 HD 
BRANCH  19  23
HETATM   23  N   UNL     1     -10.009  14.079  68.957  1.00  0.00    -0.421 N  
HETATM   24  H   UNL     1      -9.587  13.574  69.736  1.00  0.00     0.000 HD 
BRANCH  23  25
HETATM   25  S   UNL     1     -11.614  14.184  68.854  1.00  0.00    -0.333 S  
HETATM   26  O   UNL     1     -12.208  13.703  70.078  1.00  0.00    -0.330 OA 
HETATM   27  O   UNL     1     -12.035  13.688  67.565  1.00  0.00    -0.363 OA 
HETATM   28  N   UNL     1     -11.929  15.829  68.826  1.00  0.00    -0.546 N  
HETATM   29  H1  UNL     1     -12.944  15.896  68.761  1.00  0.00     0.000 HD 
HETATM   30  H2  UNL     1     -11.255  16.594  68.865  1.00  0.00     0.000 HD 
ENDBRANCH  23  25
ENDBRANCH  19  23
ENDBRANCH  18  19
ENDBRANCH  17  18
ENDBRANCH  16  17
ENDBRANCH  15  16
ENDBRANCH  12  15
ENDBRANCH   5  10
TORSDOF 8
ENDMDL
MODEL      215
REMARK 921   NORMALIZED FREE ENERGY PREDICTED BY IDOCK:   -3.98 KCAL/MOL
REMARK 922        TOTAL FREE ENERGY PREDICTED BY IDOCK:   -7.02 KCAL/MOL
REMARK 923 INTER-LIGAND FREE ENERGY PREDICTED BY IDOCK:   -5.64 KCAL/MOL
REMARK 924 INTRA-LIGAND FREE ENERGY PREDICTED BY IDOCK:   -1.38 KCAL/MOL
REMARK 927      BINDING AFFINITY PREDICTED BY RF-SCORE:    0.00 PKD
ROOT
HETATM    1  N   UNL     1     -12.429  14.480  68.214  1.00  0.00    -0.517 NA 
HETATM    2  C   UNL     1     -11.116  14.396  67.890  1.00  0.00    -0.274 C  
HETATM    3  H2  UNL     1     -13.125  15.035  67.717  1.00  0.00     0.000 HD 
HETATM    4  H1  UNL     1     -12.612  13.900  69.033  1.00  0.00     0.000 HD 
HETATM    5  N   UNL     1     -10.319  13.650  68.574  1.00  0.00    -0.243 NA 
HETATM    6  N   UNL     1     -10.872  15.168  66.801  1.00  0.00    -0.319 NA 
HETATM    7  H2  UNL     1     -11.568  15.723  66.304  1.00  0.00     0.000 HD 
HETATM    8  H1  UNL     1      -9.884  15.104  66.556  1.00  0.00     0.000 HD 
HETATM    9  H   UNL     1     -10.665  13.103  69.362  1.00  0.00     0.000 HD 
ENDROOT
BRANCH   5  10
HETATM   10  C   UNL     1      -9.008  13.607  68.222  1.00  0.00    -0.187 A  
HETATM   11  N   UNL     1      -8.119  14.588  68.224  1.00  0.00    -0.132 NA 
HETATM   12  C   UNL     1      -6.871  14.131  67.810  1.00  0.00    -0.176 A  
HETATM   13  S   UNL     1      -8.364  12.079  67.722  1.00  0.00    -0.167 SA 
HETATM   14  C   UNL     1      -6.834  12.793  67.474  1.00  0.00    -0.153 A  
BRANCH  12  15
HETATM   15  C   UNL     1      -5.726  15.094  67.758  1.00  0.00    -0.101 C  
BRANCH  15  16
HETATM   16  S   UNL     1      -5.877  16.344  69.083  1.00  0.00    -0.150 SA 
BRANCH  16  17
HETATM   17  C   UNL     1      -5.888  17.881  68.095  1.00  0.00    -0.170 C  
BRANCH  17  18
HETATM   18  C   UNL     1      -7.222  18.617  68.062  1.00  0.00    -0.261 C  
BRANCH  18  19
HETATM   19  C   UNL     1      -7.805  18.730  66.654  1.00  0.00    -0.262 C  
HETATM   20  H2  UNL     1      -6.647  17.118  65.968  1.00  0.00     0.000 HD 
HETATM   21  N   UNL     1      -7.342  17.826  65.728  1.00  0.00    -0.525 NA 
HETATM   22  H1  UNL     1      -7.730  17.901  64.788  1.00  0.00     0.000 HD 
BRANCH  19  23
HETATM   23  N   UNL     1      -8.683  19.662  66.484  1.00  0.00    -0.346 N  
HETATM   24  H   UNL     1      -8.410  20.638  66.604  1.00  0.00     0.000 HD 
BRANCH  23  25
HETATM   25  S   UNL     1     -10.204  19.305  66.088  1.00  0.00    -0.467 S  
HETATM   26  O   UNL     1     -10.266  17.954  65.583  1.00  0.00    -0.589 OA 
HETATM   27  O   UNL     1     -10.769  20.411  65.352  1.00  0.00    -0.177 OA 
HETATM   28  N   UNL     1     -11.024  19.270  67.547  1.00  0.00    -0.423 N  
HETATM   29  H1  UNL     1     -11.986  19.044  67.296  1.00  0.00     0.000 HD 
HETATM   30  H2  UNL     1     -10.646  19.437  68.480  1.00  0.00     0.000 HD 
ENDBRANCH  23  25
ENDBRANCH  19  23
ENDBRANCH  18  19
ENDBRANCH  17  18
ENDBRANCH  16  17
ENDBRANCH  15  16
ENDBRANCH  12  15
ENDBRANCH   5  10
TORSDOF 8
ENDMDL
MODEL      216
REMARK 921   NORMALIZED FREE ENERGY PREDICTED BY IDOCK:   -3.97 KCAL/MOL
REMARK 922        TOTAL FREE ENERGY PREDICTED BY IDOCK:   -7.01 KCAL/MOL
REMARK 923 INTER-LIGAND FREE ENERGY PREDICTED BY IDOCK:   -6.05 KCAL/MOL
REMARK 924 INTRA-LIGAND FREE ENERGY PREDICTED BY IDOCK:   -0.96 KCAL/MOL
REMARK 927      BINDING AFFINITY PREDICTED BY RF-SCORE:    0.00 PKD
ROOT
HETATM    1  N   UNL     1      -9.244   9.288  62.438  1.00  0.00    -0.553 NA 
HETATM    2  C   UNL     1      -9.118   9.795  63.688  1.00  0.00    -0.232 C  
HETATM    3  H2  UNL     1      -9.032   9.787  61.575  1.00  0.00     0.000 HD 
HETATM    4  H1  UNL     1      -9.585   8.329  62.497  1.00  0.00     0.000 HD 
HETATM    5  N   UNL     1      -9.396   9.074  64.719  1.00  0.00    -0.413 NA 
HETATM    6  N   UNL     1      -8.665  11.072  63.611  1.00  0.00    -0.377 NA 
HETATM    7  H2  UNL     1      -8.453  11.571  62.748  1.00  0.00     0.000 HD 
HETATM    8  H1  UNL     1      -8.569  11.454  64.552  1.00  0.00     0.000 HD 
HETATM    9  H   UNL     1      -9.706   8.109  64.612  1.00  0.00     0.000 HD 
ENDROOT
BRANCH   5  10
HETATM   10  C   UNL     1      -9.268   9.628  65.953  1.00  0.00    -0.194 A  
HETATM   11  N   UNL     1      -9.513  10.874  66.329  1.00  0.00    -0.188 NA 
HETATM   12  C   UNL     1      -9.274  11.039  67.691  1.00  0.00    -0.149 A  
HETATM   13  S   UNL     1      -8.742   8.597  67.241  1.00  0.00    -0.130 SA 
HETATM   14  C   UNL     1      -8.823   9.904  68.334  1.00  0.00    -0.120 A  
BRANCH  12  15
HETATM   15  C   UNL     1      -9.507  12.382  68.310  1.00  0.00    -0.203 C  
BRANCH  15  16
HETATM   16  S   UNL     1      -8.637  13.684  67.369  1.00  0.00    -0.217 SA 
BRANCH  16  17
HETATM   17  C   UNL     1      -9.337  15.184  68.144  1.00  0.00    -0.192 C  
BRANCH  17  18
HETATM   18  C   UNL     1     -10.663  15.653  67.556  1.00  0.00    -0.303 C  
BRANCH  18  19
HETATM   19  C   UNL     1     -10.519  16.901  66.685  1.00  0.00    -0.257 C  
HETATM   20  H2  UNL     1      -9.965  15.757  65.013  1.00  0.00     0.000 HD 
HETATM   21  N   UNL     1     -10.140  16.693  65.380  1.00  0.00    -0.590 NA 
HETATM   22  H1  UNL     1     -10.043  17.526  64.799  1.00  0.00     0.000 HD 
BRANCH  19  23
HETATM   23  N   UNL     1     -10.779  18.024  67.268  1.00  0.00    -0.342 N  
HETATM   24  H   UNL     1     -11.451  18.049  68.035  1.00  0.00     0.000 HD 
BRANCH  23  25
HETATM   25  S   UNL     1     -10.056  19.387  66.801  1.00  0.00    -0.436 S  
HETATM   26  O   UNL     1     -10.026  20.319  67.903  1.00  0.00    -0.396 OA 
HETATM   27  O   UNL     1     -10.566  19.768  65.505  1.00  0.00    -0.468 OA 
HETATM   28  N   UNL     1      -8.459  18.952  66.545  1.00  0.00    -0.296 N  
HETATM   29  H1  UNL     1      -8.002  19.814  66.250  1.00  0.00     0.000 HD 
HETATM   30  H2  UNL     1      -8.037  18.030  66.660  1.00  0.00     0.000 HD 
ENDBRANCH  23  25
ENDBRANCH  19  23
ENDBRANCH  18  19
ENDBRANCH  17  18
ENDBRANCH  16  17
ENDBRANCH  15  16
ENDBRANCH  12  15
ENDBRANCH   5  10
TORSDOF 8
ENDMDL
MODEL      217
REMARK 921   NORMALIZED FREE ENERGY PREDICTED BY IDOCK:   -3.97 KCAL/MOL
REMARK 922        TOTAL FREE ENERGY PREDICTED BY IDOCK:   -7.01 KCAL/MOL
REMARK 923 INTER-LIGAND FREE ENERGY PREDICTED BY IDOCK:   -6.21 KCAL/MOL
REMARK 924 INTRA-LIGAND FREE ENERGY PREDICTED BY IDOCK:   -0.80 KCAL/MOL
REMARK 927      BINDING AFFINITY PREDICTED BY RF-SCORE:    0.00 PKD
ROOT
HETATM    1  N   UNL     1     -11.650  16.308  63.720  1.00  0.00    -1.482 NA 
HETATM    2  C   UNL     1     -11.574  15.468  64.780  1.00  0.00    -0.256 C  
HETATM    3  H2  UNL     1     -12.209  16.152  62.882  1.00  0.00     0.000 HD 
HETATM    4  H1  UNL     1     -11.060  17.122  63.892  1.00  0.00     0.000 HD 
HETATM    5  N   UNL     1     -10.849  15.766  65.803  1.00  0.00    -0.308 NA 
HETATM    6  N   UNL     1     -12.359  14.385  64.552  1.00  0.00    -0.611 NA 
HETATM    7  H2  UNL     1     -12.919  14.229  63.714  1.00  0.00     0.000 HD 
HETATM    8  H1  UNL     1     -12.303  13.752  65.350  1.00  0.00     0.000 HD 
HETATM    9  H   UNL     1     -10.329  16.643  65.835  1.00  0.00     0.000 HD 
ENDROOT
BRANCH   5  10
HETATM   10  C   UNL     1     -10.791  14.888  66.837  1.00  0.00    -0.319 A  
HETATM   11  N   UNL     1     -10.760  13.564  66.797  1.00  0.00    -0.277 NA 
HETATM   12  C   UNL     1     -10.683  13.028  68.080  1.00  0.00    -0.232 A  
HETATM   13  S   UNL     1     -10.722  15.542  68.439  1.00  0.00    -0.275 SA 
HETATM   14  C   UNL     1     -10.680  13.967  69.092  1.00  0.00    -0.147 A  
BRANCH  12  15
HETATM   15  C   UNL     1     -10.624  11.542  68.242  1.00  0.00    -0.200 C  
BRANCH  15  16
HETATM   16  S   UNL     1     -11.935  10.967  69.379  1.00  0.00    -0.284 SA 
BRANCH  16  17
HETATM   17  C   UNL     1     -11.386   9.251  69.684  1.00  0.00     0.049 C  
BRANCH  17  18
HETATM   18  C   UNL     1     -12.175   8.502  70.751  1.00  0.00    -0.018 C  
BRANCH  18  19
HETATM   19  C   UNL     1     -11.469   8.479  72.106  1.00  0.00    -0.376 C  
HETATM   20  H2  UNL     1     -13.234   7.924  73.098  1.00  0.00     0.000 HD 
HETATM   21  N   UNL     1     -12.243   8.144  73.192  1.00  0.00    -0.513 NA 
HETATM   22  H1  UNL     1     -11.772   8.130  74.097  1.00  0.00     0.000 HD 
BRANCH  19  23
HETATM   23  N   UNL     1     -10.210   8.768  72.087  1.00  0.00    -0.326 N  
HETATM   24  H   UNL     1      -9.914   9.708  71.820  1.00  0.00     0.000 HD 
BRANCH  23  25
HETATM   25  S   UNL     1      -9.100   7.667  72.477  1.00  0.00    -0.170 S  
HETATM   26  O   UNL     1      -9.688   6.350  72.420  1.00  0.00    -0.155 OA 
HETATM   27  O   UNL     1      -8.379   8.120  73.642  1.00  0.00    -0.215 OA 
HETATM   28  N   UNL     1      -7.997   7.714  71.219  1.00  0.00    -0.093 N  
HETATM   29  H1  UNL     1      -7.295   7.017  71.466  1.00  0.00     0.000 HD 
HETATM   30  H2  UNL     1      -8.021   8.308  70.389  1.00  0.00     0.000 HD 
ENDBRANCH  23  25
ENDBRANCH  19  23
ENDBRANCH  18  19
ENDBRANCH  17  18
ENDBRANCH  16  17
ENDBRANCH  15  16
ENDBRANCH  12  15
ENDBRANCH   5  10
TORSDOF 8
ENDMDL
MODEL      218
REMARK 921   NORMALIZED FREE ENERGY PREDICTED BY IDOCK:   -3.97 KCAL/MOL
REMARK 922        TOTAL FREE ENERGY PREDICTED BY IDOCK:   -7.00 KCAL/MOL
REMARK 923 INTER-LIGAND FREE ENERGY PREDICTED BY IDOCK:   -5.66 KCAL/MOL
REMARK 924 INTRA-LIGAND FREE ENERGY PREDICTED BY IDOCK:   -1.34 KCAL/MOL
REMARK 927      BINDING AFFINITY PREDICTED BY RF-SCORE:    0.00 PKD
ROOT
HETATM    1  N   UNL     1     -13.814  13.255  72.419  1.00  0.00    -0.663 NA 
HETATM    2  C   UNL     1     -12.967  12.645  71.556  1.00  0.00    -0.282 C  
HETATM    3  H2  UNL     1     -13.845  14.257  72.606  1.00  0.00     0.000 HD 
HETATM    4  H1  UNL     1     -14.416  12.556  72.852  1.00  0.00     0.000 HD 
HETATM    5  N   UNL     1     -13.020  11.370  71.377  1.00  0.00    -0.412 NA 
HETATM    6  N   UNL     1     -12.165  13.575  70.979  1.00  0.00    -0.440 NA 
HETATM    7  H2  UNL     1     -12.196  14.577  71.166  1.00  0.00     0.000 HD 
HETATM    8  H1  UNL     1     -11.528  13.116  70.329  1.00  0.00     0.000 HD 
HETATM    9  H   UNL     1     -13.706  10.802  71.874  1.00  0.00     0.000 HD 
ENDROOT
BRANCH   5  10
HETATM   10  C   UNL     1     -12.143  10.798  70.512  1.00  0.00    -0.366 A  
HETATM   11  N   UNL     1     -11.960  11.059  69.227  1.00  0.00    -0.340 NA 
HETATM   12  C   UNL     1     -10.947  10.265  68.696  1.00  0.00    -0.244 A  
HETATM   13  S   UNL     1     -11.085   9.577  71.137  1.00  0.00    -0.393 SA 
HETATM   14  C   UNL     1     -10.381   9.383  69.595  1.00  0.00    -0.216 A  
BRANCH  12  15
HETATM   15  C   UNL     1     -10.582  10.423  67.253  1.00  0.00    -0.267 C  
BRANCH  15  16
HETATM   16  S   UNL     1      -8.935  11.198  67.088  1.00  0.00    -0.147 SA 
BRANCH  16  17
HETATM   17  C   UNL     1      -9.302  12.511  65.872  1.00  0.00    -0.032 C  
BRANCH  17  18
HETATM   18  C   UNL     1     -10.277  13.580  66.352  1.00  0.00    -0.291 C  
BRANCH  18  19
HETATM   19  C   UNL     1      -9.733  14.398  67.524  1.00  0.00    -0.215 C  
HETATM   20  H2  UNL     1     -11.242  13.697  68.806  1.00  0.00     0.000 HD 
HETATM   21  N   UNL     1     -10.417  14.290  68.711  1.00  0.00    -0.247 NA 
HETATM   22  H1  UNL     1     -10.054  14.836  69.493  1.00  0.00     0.000 HD 
BRANCH  19  23
HETATM   23  N   UNL     1      -8.677  15.100  67.275  1.00  0.00    -0.189 N  
HETATM   24  H   UNL     1      -8.702  15.800  66.533  1.00  0.00     0.000 HD 
BRANCH  23  25
HETATM   25  S   UNL     1      -7.322  14.885  68.119  1.00  0.00    -0.130 S  
HETATM   26  O   UNL     1      -6.924  16.137  68.718  1.00  0.00    -0.131 OA 
HETATM   27  O   UNL     1      -6.401  14.097  67.336  1.00  0.00    -0.324 OA 
HETATM   28  N   UNL     1      -7.774  13.906  69.401  1.00  0.00    -0.331 N  
HETATM   29  H1  UNL     1      -6.916  13.770  69.936  1.00  0.00     0.000 HD 
HETATM   30  H2  UNL     1      -8.701  13.529  69.603  1.00  0.00     0.000 HD 
ENDBRANCH  23  25
ENDBRANCH  19  23
ENDBRANCH  18  19
ENDBRANCH  17  18
ENDBRANCH  16  17
ENDBRANCH  15  16
ENDBRANCH  12  15
ENDBRANCH   5  10
TORSDOF 8
ENDMDL
MODEL      219
REMARK 921   NORMALIZED FREE ENERGY PREDICTED BY IDOCK:   -3.95 KCAL/MOL
REMARK 922        TOTAL FREE ENERGY PREDICTED BY IDOCK:   -6.98 KCAL/MOL
REMARK 923 INTER-LIGAND FREE ENERGY PREDICTED BY IDOCK:   -5.79 KCAL/MOL
REMARK 924 INTRA-LIGAND FREE ENERGY PREDICTED BY IDOCK:   -1.19 KCAL/MOL
REMARK 927      BINDING AFFINITY PREDICTED BY RF-SCORE:    0.00 PKD
ROOT
HETATM    1  N   UNL     1     -10.119  10.211  62.407  1.00  0.00    -0.617 NA 
HETATM    2  C   UNL     1     -10.200  11.229  63.297  1.00  0.00    -0.368 C  
HETATM    3  H2  UNL     1      -9.368   9.523  62.365  1.00  0.00     0.000 HD 
HETATM    4  H1  UNL     1     -10.927  10.240  61.786  1.00  0.00     0.000 HD 
HETATM    5  N   UNL     1     -11.203  12.038  63.278  1.00  0.00    -0.691 NA 
HETATM    6  N   UNL     1      -9.125  11.191  64.123  1.00  0.00    -0.378 NA 
HETATM    7  H2  UNL     1      -8.374  10.502  64.081  1.00  0.00     0.000 HD 
HETATM    8  H1  UNL     1      -9.186  11.957  64.794  1.00  0.00     0.000 HD 
HETATM    9  H   UNL     1     -11.956  11.918  62.600  1.00  0.00     0.000 HD 
ENDROOT
BRANCH   5  10
HETATM   10  C   UNL     1     -11.237  13.053  64.179  1.00  0.00    -0.399 A  
HETATM   11  N   UNL     1     -10.422  14.091  64.286  1.00  0.00    -0.155 NA 
HETATM   12  C   UNL     1     -10.806  14.921  65.335  1.00  0.00    -0.369 A  
HETATM   13  S   UNL     1     -12.514  13.042  65.349  1.00  0.00    -0.410 SA 
HETATM   14  C   UNL     1     -11.912  14.483  66.036  1.00  0.00    -0.311 A  
BRANCH  12  15
HETATM   15  C   UNL     1     -10.013  16.161  65.608  1.00  0.00    -0.297 C  
BRANCH  15  16
HETATM   16  S   UNL     1     -10.535  16.926  67.183  1.00  0.00    -0.260 SA 
BRANCH  16  17
HETATM   17  C   UNL     1      -9.010  16.736  68.172  1.00  0.00    -0.224 C  
BRANCH  17  18
HETATM   18  C   UNL     1      -8.996  15.536  69.111  1.00  0.00    -0.256 C  
BRANCH  18  19
HETATM   19  C   UNL     1      -7.588  15.001  69.371  1.00  0.00    -0.195 C  
HETATM   20  H2  UNL     1      -6.785  16.940  69.435  1.00  0.00     0.000 HD 
HETATM   21  N   UNL     1      -6.594  15.940  69.505  1.00  0.00    -0.183 NA 
HETATM   22  H1  UNL     1      -5.654  15.583  69.678  1.00  0.00     0.000 HD 
BRANCH  19  23
HETATM   23  N   UNL     1      -7.483  13.715  69.448  1.00  0.00    -0.313 N  
HETATM   24  H   UNL     1      -8.319  13.151  69.605  1.00  0.00     0.000 HD 
BRANCH  23  25
HETATM   25  S   UNL     1      -6.052  12.991  69.299  1.00  0.00    -0.104 S  
HETATM   26  O   UNL     1      -6.247  11.580  69.069  1.00  0.00    -0.051 OA 
HETATM   27  O   UNL     1      -5.172  13.472  70.338  1.00  0.00    -0.095 OA 
HETATM   28  N   UNL     1      -5.423  13.589  67.866  1.00  0.00    -0.117 N  
HETATM   29  H1  UNL     1      -4.517  13.131  67.772  1.00  0.00     0.000 HD 
HETATM   30  H2  UNL     1      -5.851  14.262  67.229  1.00  0.00     0.000 HD 
ENDBRANCH  23  25
ENDBRANCH  19  23
ENDBRANCH  18  19
ENDBRANCH  17  18
ENDBRANCH  16  17
ENDBRANCH  15  16
ENDBRANCH  12  15
ENDBRANCH   5  10
TORSDOF 8
ENDMDL
MODEL      220
REMARK 921   NORMALIZED FREE ENERGY PREDICTED BY IDOCK:   -3.94 KCAL/MOL
REMARK 922        TOTAL FREE ENERGY PREDICTED BY IDOCK:   -6.95 KCAL/MOL
REMARK 923 INTER-LIGAND FREE ENERGY PREDICTED BY IDOCK:   -6.04 KCAL/MOL
REMARK 924 INTRA-LIGAND FREE ENERGY PREDICTED BY IDOCK:   -0.92 KCAL/MOL
REMARK 927      BINDING AFFINITY PREDICTED BY RF-SCORE:    0.00 PKD
ROOT
HETATM    1  N   UNL     1     -11.923  16.360  71.875  1.00  0.00    -0.658 NA 
HETATM    2  C   UNL     1     -11.908  16.014  70.565  1.00  0.00    -0.292 C  
HETATM    3  H2  UNL     1     -12.747  16.361  72.476  1.00  0.00     0.000 HD 
HETATM    4  H1  UNL     1     -10.981  16.620  72.166  1.00  0.00     0.000 HD 
HETATM    5  N   UNL     1     -10.807  16.029  69.896  1.00  0.00    -0.325 NA 
HETATM    6  N   UNL     1     -13.161  15.669  70.178  1.00  0.00    -0.642 NA 
HETATM    7  H2  UNL     1     -13.985  15.670  70.778  1.00  0.00     0.000 HD 
HETATM    8  H1  UNL     1     -13.150  15.407  69.192  1.00  0.00     0.000 HD 
HETATM    9  H   UNL     1      -9.929  16.292  70.343  1.00  0.00     0.000 HD 
ENDROOT
BRANCH   5  10
HETATM   10  C   UNL     1     -10.841  15.688  68.582  1.00  0.00    -0.273 A  
HETATM   11  N   UNL     1     -11.327  14.589  68.026  1.00  0.00    -0.291 NA 
HETATM   12  C   UNL     1     -11.187  14.627  66.641  1.00  0.00    -0.349 A  
HETATM   13  S   UNL     1     -10.195  16.823  67.445  1.00  0.00    -0.293 SA 
HETATM   14  C   UNL     1     -10.566  15.762  66.160  1.00  0.00    -0.313 A  
BRANCH  12  15
HETATM   15  C   UNL     1     -11.691  13.476  65.829  1.00  0.00    -0.345 C  
BRANCH  15  16
HETATM   16  S   UNL     1     -10.302  12.439  65.250  1.00  0.00    -0.286 SA 
BRANCH  16  17
HETATM   17  C   UNL     1      -9.316  12.311  66.783  1.00  0.00    -0.218 C  
BRANCH  17  18
HETATM   18  C   UNL     1      -9.724  11.180  67.719  1.00  0.00    -0.183 C  
BRANCH  18  19
HETATM   19  C   UNL     1      -8.559  10.652  68.557  1.00  0.00    -0.137 C  
HETATM   20  H2  UNL     1      -7.312  10.524  66.873  1.00  0.00     0.000 HD 
HETATM   21  N   UNL     1      -7.395  10.381  67.879  1.00  0.00    -0.086 NA 
HETATM   22  H1  UNL     1      -6.617  10.028  68.438  1.00  0.00     0.000 HD 
BRANCH  19  23
HETATM   23  N   UNL     1      -8.791  10.524  69.821  1.00  0.00    -0.378 N  
HETATM   24  H   UNL     1      -8.978  11.355  70.384  1.00  0.00     0.000 HD 
BRANCH  23  25
HETATM   25  S   UNL     1      -8.790   9.074  70.522  1.00  0.00    -0.227 S  
HETATM   26  O   UNL     1      -7.813   9.052  71.584  1.00  0.00    -0.316 OA 
HETATM   27  O   UNL     1      -8.811   8.057  69.497  1.00  0.00    -0.142 OA 
HETATM   28  N   UNL     1     -10.276   8.971  71.287  1.00  0.00    -0.286 N  
HETATM   29  H1  UNL     1     -10.275   8.053  71.730  1.00  0.00     0.000 HD 
HETATM   30  H2  UNL     1     -11.018   9.672  71.305  1.00  0.00     0.000 HD 
ENDBRANCH  23  25
ENDBRANCH  19  23
ENDBRANCH  18  19
ENDBRANCH  17  18
ENDBRANCH  16  17
ENDBRANCH  15  16
ENDBRANCH  12  15
ENDBRANCH   5  10
TORSDOF 8
ENDMDL
MODEL      221
REMARK 921   NORMALIZED FREE ENERGY PREDICTED BY IDOCK:   -3.90 KCAL/MOL
REMARK 922        TOTAL FREE ENERGY PREDICTED BY IDOCK:   -6.91 KCAL/MOL
REMARK 923 INTER-LIGAND FREE ENERGY PREDICTED BY IDOCK:   -5.94 KCAL/MOL
REMARK 924 INTRA-LIGAND FREE ENERGY PREDICTED BY IDOCK:   -0.96 KCAL/MOL
REMARK 927      BINDING AFFINITY PREDICTED BY RF-SCORE:    0.00 PKD
ROOT
HETATM    1  N   UNL     1     -11.989  16.154  69.993  1.00  0.00    -0.341 NA 
HETATM    2  C   UNL     1     -11.574  14.950  69.529  1.00  0.00    -0.303 C  
HETATM    3  H2  UNL     1     -11.458  16.761  70.616  1.00  0.00     0.000 HD 
HETATM    4  H1  UNL     1     -12.916  16.357  69.620  1.00  0.00     0.000 HD 
HETATM    5  N   UNL     1     -12.315  14.265  68.729  1.00  0.00    -0.573 NA 
HETATM    6  N   UNL     1     -10.340  14.679  70.025  1.00  0.00    -0.437 NA 
HETATM    7  H2  UNL     1      -9.809  15.286  70.649  1.00  0.00     0.000 HD 
HETATM    8  H1  UNL     1     -10.027  13.773  69.676  1.00  0.00     0.000 HD 
HETATM    9  H   UNL     1     -13.220  14.622  68.423  1.00  0.00     0.000 HD 
ENDROOT
BRANCH   5  10
HETATM   10  C   UNL     1     -11.865  13.058  68.300  1.00  0.00    -0.343 A  
HETATM   11  N   UNL     1     -11.703  11.942  68.994  1.00  0.00    -0.309 NA 
HETATM   12  C   UNL     1     -11.236  10.912  68.181  1.00  0.00    -0.301 A  
HETATM   13  S   UNL     1     -11.460  12.905  66.623  1.00  0.00    -0.362 SA 
HETATM   14  C   UNL     1     -11.024  11.273  66.866  1.00  0.00    -0.290 A  
BRANCH  12  15
HETATM   15  C   UNL     1     -11.002   9.562  68.783  1.00  0.00    -0.080 C  
BRANCH  15  16
HETATM   16  S   UNL     1      -9.598   8.727  67.965  1.00  0.00    -0.145 SA 
BRANCH  16  17
HETATM   17  C   UNL     1     -10.485   7.685  66.754  1.00  0.00    -0.249 C  
BRANCH  17  18
HETATM   18  C   UNL     1     -11.003   6.360  67.301  1.00  0.00    -0.474 C  
BRANCH  18  19
HETATM   19  C   UNL     1     -10.439   5.149  66.558  1.00  0.00    -0.294 C  
HETATM   20  H2  UNL     1     -12.055   5.130  65.216  1.00  0.00     0.000 HD 
HETATM   21  N   UNL     1     -11.178   4.688  65.495  1.00  0.00    -0.946 NA 
HETATM   22  H1  UNL     1     -10.803   3.880  64.999  1.00  0.00     0.000 HD 
BRANCH  19  23
HETATM   23  N   UNL     1      -9.317   4.690  67.005  1.00  0.00    -0.132 N  
HETATM   24  H   UNL     1      -9.293   4.211  67.905  1.00  0.00     0.000 HD 
BRANCH  23  25
HETATM   25  S   UNL     1      -7.956   4.864  66.159  1.00  0.00    -0.107 S  
HETATM   26  O   UNL     1      -8.258   5.449  64.875  1.00  0.00    -0.125 OA 
HETATM   27  O   UNL     1      -7.176   3.654  66.273  1.00  0.00    -0.062 OA 
HETATM   28  N   UNL     1      -7.092   6.035  66.987  1.00  0.00    -0.069 N  
HETATM   29  H1  UNL     1      -6.231   6.145  66.452  1.00  0.00     0.000 HD 
HETATM   30  H2  UNL     1      -7.365   6.529  67.837  1.00  0.00     0.000 HD 
ENDBRANCH  23  25
ENDBRANCH  19  23
ENDBRANCH  18  19
ENDBRANCH  17  18
ENDBRANCH  16  17
ENDBRANCH  15  16
ENDBRANCH  12  15
ENDBRANCH   5  10
TORSDOF 8
ENDMDL
MODEL      222
REMARK 921   NORMALIZED FREE ENERGY PREDICTED BY IDOCK:   -3.89 KCAL/MOL
REMARK 922        TOTAL FREE ENERGY PREDICTED BY IDOCK:   -6.89 KCAL/MOL
REMARK 923 INTER-LIGAND FREE ENERGY PREDICTED BY IDOCK:   -5.84 KCAL/MOL
REMARK 924 INTRA-LIGAND FREE ENERGY PREDICTED BY IDOCK:   -1.05 KCAL/MOL
REMARK 927      BINDING AFFINITY PREDICTED BY RF-SCORE:    0.00 PKD
ROOT
HETATM    1  N   UNL     1     -11.129   2.514  63.687  1.00  0.00    -0.563 NA 
HETATM    2  C   UNL     1     -10.538   3.672  64.069  1.00  0.00    -0.263 C  
HETATM    3  H2  UNL     1     -12.091   2.246  63.894  1.00  0.00     0.000 HD 
HETATM    4  H1  UNL     1     -10.460   1.951  63.162  1.00  0.00     0.000 HD 
HETATM    5  N   UNL     1      -9.318   3.924  63.741  1.00  0.00    -0.138 NA 
HETATM    6  N   UNL     1     -11.428   4.421  64.769  1.00  0.00    -1.021 NA 
HETATM    7  H2  UNL     1     -12.390   4.153  64.975  1.00  0.00     0.000 HD 
HETATM    8  H1  UNL     1     -10.983   5.293  65.055  1.00  0.00     0.000 HD 
HETATM    9  H   UNL     1      -8.781   3.261  63.183  1.00  0.00     0.000 HD 
ENDROOT
BRANCH   5  10
HETATM   10  C   UNL     1      -8.762   5.091  64.157  1.00  0.00    -0.097 A  
HETATM   11  N   UNL     1      -8.840   5.667  65.347  1.00  0.00    -0.139 NA 
HETATM   12  C   UNL     1      -8.111   6.853  65.376  1.00  0.00    -0.133 A  
HETATM   13  S   UNL     1      -7.791   5.964  63.018  1.00  0.00    -0.101 SA 
HETATM   14  C   UNL     1      -7.498   7.177  64.182  1.00  0.00    -0.099 A  
BRANCH  12  15
HETATM   15  C   UNL     1      -8.067   7.646  66.644  1.00  0.00    -0.119 C  
BRANCH  15  16
HETATM   16  S   UNL     1      -8.067   9.438  66.283  1.00  0.00    -0.111 SA 
BRANCH  16  17
HETATM   17  C   UNL     1      -9.813   9.684  65.805  1.00  0.00    -0.302 C  
BRANCH  17  18
HETATM   18  C   UNL     1     -10.075  10.896  64.919  1.00  0.00    -0.374 C  
BRANCH  18  19
HETATM   19  C   UNL     1     -10.605  12.099  65.698  1.00  0.00    -0.262 C  
HETATM   20  H2  UNL     1     -12.074  10.931  66.640  1.00  0.00     0.000 HD 
HETATM   21  N   UNL     1     -11.665  11.860  66.540  1.00  0.00    -0.562 NA 
HETATM   22  H1  UNL     1     -12.020  12.663  67.060  1.00  0.00     0.000 HD 
BRANCH  19  23
HETATM   23  N   UNL     1      -9.993  13.217  65.488  1.00  0.00    -0.426 N  
HETATM   24  H   UNL     1      -9.673  13.446  64.547  1.00  0.00     0.000 HD 
BRANCH  23  25
HETATM   25  S   UNL     1      -9.727  14.254  66.692  1.00  0.00    -0.297 S  
HETATM   26  O   UNL     1      -8.933  15.359  66.210  1.00  0.00    -0.297 OA 
HETATM   27  O   UNL     1      -9.350  13.515  67.874  1.00  0.00    -0.199 OA 
HETATM   28  N   UNL     1     -11.232  14.905  67.030  1.00  0.00    -0.339 N  
HETATM   29  H1  UNL     1     -11.064  15.561  67.791  1.00  0.00     0.000 HD 
HETATM   30  H2  UNL     1     -12.121  14.692  66.575  1.00  0.00     0.000 HD 
ENDBRANCH  23  25
ENDBRANCH  19  23
ENDBRANCH  18  19
ENDBRANCH  17  18
ENDBRANCH  16  17
ENDBRANCH  15  16
ENDBRANCH  12  15
ENDBRANCH   5  10
TORSDOF 8
ENDMDL
MODEL      223
REMARK 921   NORMALIZED FREE ENERGY PREDICTED BY IDOCK:   -3.89 KCAL/MOL
REMARK 922        TOTAL FREE ENERGY PREDICTED BY IDOCK:   -6.89 KCAL/MOL
REMARK 923 INTER-LIGAND FREE ENERGY PREDICTED BY IDOCK:   -5.57 KCAL/MOL
REMARK 924 INTRA-LIGAND FREE ENERGY PREDICTED BY IDOCK:   -1.31 KCAL/MOL
REMARK 927      BINDING AFFINITY PREDICTED BY RF-SCORE:    0.00 PKD
ROOT
HETATM    1  N   UNL     1     -14.409   9.030  72.874  1.00  0.00    -1.108 NA 
HETATM    2  C   UNL     1     -13.424   8.623  72.037  1.00  0.00    -0.403 C  
HETATM    3  H2  UNL     1     -15.175   9.654  72.624  1.00  0.00     0.000 HD 
HETATM    4  H1  UNL     1     -14.263   8.614  73.794  1.00  0.00     0.000 HD 
HETATM    5  N   UNL     1     -12.508   7.816  72.447  1.00  0.00    -0.534 NA 
HETATM    6  N   UNL     1     -13.617   9.177  70.813  1.00  0.00    -0.443 NA 
HETATM    7  H2  UNL     1     -14.384   9.801  70.563  1.00  0.00     0.000 HD 
HETATM    8  H1  UNL     1     -12.877   8.870  70.183  1.00  0.00     0.000 HD 
HETATM    9  H   UNL     1     -12.514   7.463  73.404  1.00  0.00     0.000 HD 
ENDROOT
BRANCH   5  10
HETATM   10  C   UNL     1     -11.533   7.444  71.578  1.00  0.00    -0.263 A  
HETATM   11  N   UNL     1     -11.642   6.727  70.470  1.00  0.00    -0.355 NA 
HETATM   12  C   UNL     1     -10.405   6.580  69.847  1.00  0.00    -0.191 A  
HETATM   13  S   UNL     1      -9.919   7.980  71.910  1.00  0.00    -0.213 SA 
HETATM   14  C   UNL     1      -9.355   7.179  70.513  1.00  0.00    -0.158 A  
BRANCH  12  15
HETATM   15  C   UNL     1     -10.325   5.808  68.567  1.00  0.00    -0.215 C  
BRANCH  15  16
HETATM   16  S   UNL     1      -8.596   5.712  67.982  1.00  0.00    -0.099 SA 
BRANCH  16  17
HETATM   17  C   UNL     1      -8.813   6.151  66.221  1.00  0.00    -0.146 C  
BRANCH  17  18
HETATM   18  C   UNL     1      -8.057   7.395  65.769  1.00  0.00    -0.129 C  
BRANCH  18  19
HETATM   19  C   UNL     1      -8.778   8.694  66.130  1.00  0.00    -0.156 C  
HETATM   20  H2  UNL     1     -10.447   8.175  64.965  1.00  0.00     0.000 HD 
HETATM   21  N   UNL     1     -10.025   8.871  65.580  1.00  0.00    -0.388 NA 
HETATM   22  H1  UNL     1     -10.507   9.738  65.820  1.00  0.00     0.000 HD 
BRANCH  19  23
HETATM   23  N   UNL     1      -8.139   9.487  66.925  1.00  0.00    -0.109 N  
HETATM   24  H   UNL     1      -7.127   9.401  67.014  1.00  0.00     0.000 HD 
BRANCH  23  25
HETATM   25  S   UNL     1      -8.920  10.609  67.778  1.00  0.00    -0.141 S  
HETATM   26  O   UNL     1      -9.341  11.676  66.901  1.00  0.00    -0.180 OA 
HETATM   27  O   UNL     1      -8.181  10.877  68.989  1.00  0.00    -0.151 OA 
HETATM   28  N   UNL     1     -10.334   9.858  68.271  1.00  0.00    -0.190 N  
HETATM   29  H1  UNL     1     -10.827  10.569  68.810  1.00  0.00     0.000 HD 
HETATM   30  H2  UNL     1     -10.634   8.903  68.075  1.00  0.00     0.000 HD 
ENDBRANCH  23  25
ENDBRANCH  19  23
ENDBRANCH  18  19
ENDBRANCH  17  18
ENDBRANCH  16  17
ENDBRANCH  15  16
ENDBRANCH  12  15
ENDBRANCH   5  10
TORSDOF 8
ENDMDL
MODEL      224
REMARK 921   NORMALIZED FREE ENERGY PREDICTED BY IDOCK:   -3.89 KCAL/MOL
REMARK 922        TOTAL FREE ENERGY PREDICTED BY IDOCK:   -6.88 KCAL/MOL
REMARK 923 INTER-LIGAND FREE ENERGY PREDICTED BY IDOCK:   -6.00 KCAL/MOL
REMARK 924 INTRA-LIGAND FREE ENERGY PREDICTED BY IDOCK:   -0.88 KCAL/MOL
REMARK 927      BINDING AFFINITY PREDICTED BY RF-SCORE:    0.00 PKD
ROOT
HETATM    1  N   UNL     1      -9.746   4.155  67.409  1.00  0.00    -0.181 NA 
HETATM    2  C   UNL     1      -9.801   5.329  66.734  1.00  0.00    -0.176 C  
HETATM    3  H2  UNL     1     -10.488   3.457  67.441  1.00  0.00     0.000 HD 
HETATM    4  H1  UNL     1      -8.845   4.080  67.880  1.00  0.00     0.000 HD 
HETATM    5  N   UNL     1      -8.799   6.138  66.743  1.00  0.00    -0.119 NA 
HETATM    6  N   UNL     1     -11.000   5.430  66.107  1.00  0.00    -0.767 NA 
HETATM    7  H2  UNL     1     -11.743   4.732  66.139  1.00  0.00     0.000 HD 
HETATM    8  H1  UNL     1     -11.042   6.313  65.599  1.00  0.00     0.000 HD 
HETATM    9  H   UNL     1      -7.945   5.904  67.249  1.00  0.00     0.000 HD 
ENDROOT
BRANCH   5  10
HETATM   10  C   UNL     1      -8.903   7.310  66.064  1.00  0.00    -0.136 A  
HETATM   11  N   UNL     1      -9.712   8.332  66.299  1.00  0.00    -0.217 NA 
HETATM   12  C   UNL     1      -9.497   9.358  65.383  1.00  0.00    -0.253 A  
HETATM   13  S   UNL     1      -7.839   7.552  64.720  1.00  0.00    -0.127 SA 
HETATM   14  C   UNL     1      -8.529   9.087  64.437  1.00  0.00    -0.174 A  
BRANCH  12  15
HETATM   15  C   UNL     1     -10.310  10.610  65.493  1.00  0.00    -0.227 C  
BRANCH  15  16
HETATM   16  S   UNL     1     -10.770  10.927  67.233  1.00  0.00    -0.282 SA 
BRANCH  16  17
HETATM   17  C   UNL     1     -10.092  12.609  67.459  1.00  0.00    -0.212 C  
BRANCH  17  18
HETATM   18  C   UNL     1     -10.100  13.481  66.209  1.00  0.00    -0.298 C  
BRANCH  18  19
HETATM   19  C   UNL     1     -11.134  14.604  66.273  1.00  0.00    -0.336 C  
HETATM   20  H2  UNL     1     -12.367  13.494  67.560  1.00  0.00     0.000 HD 
HETATM   21  N   UNL     1     -12.241  14.370  67.053  1.00  0.00    -0.563 NA 
HETATM   22  H1  UNL     1     -12.932  15.119  67.096  1.00  0.00     0.000 HD 
BRANCH  19  23
HETATM   23  N   UNL     1     -10.851  15.665  65.593  1.00  0.00    -0.339 N  
HETATM   24  H   UNL     1     -11.027  15.680  64.588  1.00  0.00     0.000 HD 
BRANCH  23  25
HETATM   25  S   UNL     1     -10.226  16.966  66.308  1.00  0.00    -0.319 S  
HETATM   26  O   UNL     1     -10.611  16.983  67.700  1.00  0.00    -0.339 OA 
HETATM   27  O   UNL     1     -10.428  18.114  65.456  1.00  0.00    -0.626 OA 
HETATM   28  N   UNL     1      -8.573  16.694  66.310  1.00  0.00    -0.313 N  
HETATM   29  H1  UNL     1      -8.177  17.517  66.763  1.00  0.00     0.000 HD 
HETATM   30  H2  UNL     1      -8.074  15.885  65.941  1.00  0.00     0.000 HD 
ENDBRANCH  23  25
ENDBRANCH  19  23
ENDBRANCH  18  19
ENDBRANCH  17  18
ENDBRANCH  16  17
ENDBRANCH  15  16
ENDBRANCH  12  15
ENDBRANCH   5  10
TORSDOF 8
ENDMDL
MODEL      225
REMARK 921   NORMALIZED FREE ENERGY PREDICTED BY IDOCK:   -3.89 KCAL/MOL
REMARK 922        TOTAL FREE ENERGY PREDICTED BY IDOCK:   -6.88 KCAL/MOL
REMARK 923 INTER-LIGAND FREE ENERGY PREDICTED BY IDOCK:   -6.04 KCAL/MOL
REMARK 924 INTRA-LIGAND FREE ENERGY PREDICTED BY IDOCK:   -0.85 KCAL/MOL
REMARK 927      BINDING AFFINITY PREDICTED BY RF-SCORE:    0.00 PKD
ROOT
HETATM    1  N   UNL     1      -8.523   3.499  72.017  1.00  0.00    -0.081 NA 
HETATM    2  C   UNL     1      -9.252   4.515  71.494  1.00  0.00    -0.135 C  
HETATM    3  H2  UNL     1      -8.443   2.564  71.618  1.00  0.00     0.000 HD 
HETATM    4  H1  UNL     1      -8.066   3.817  72.871  1.00  0.00     0.000 HD 
HETATM    5  N   UNL     1      -9.273   5.669  72.067  1.00  0.00    -0.144 NA 
HETATM    6  N   UNL     1      -9.859   4.093  70.357  1.00  0.00    -0.198 NA 
HETATM    7  H2  UNL     1      -9.779   3.158  69.958  1.00  0.00     0.000 HD 
HETATM    8  H1  UNL     1     -10.408   4.858  69.963  1.00  0.00     0.000 HD 
HETATM    9  H   UNL     1      -8.735   5.839  72.917  1.00  0.00     0.000 HD 
ENDROOT
BRANCH   5  10
HETATM   10  C   UNL     1     -10.028   6.654  71.516  1.00  0.00    -0.175 A  
HETATM   11  N   UNL     1      -9.798   7.355  70.416  1.00  0.00    -0.183 NA 
HETATM   12  C   UNL     1     -10.826   8.263  70.180  1.00  0.00    -0.237 A  
HETATM   13  S   UNL     1     -11.511   7.064  72.312  1.00  0.00    -0.263 SA 
HETATM   14  C   UNL     1     -11.827   8.255  71.131  1.00  0.00    -0.275 A  
BRANCH  12  15
HETATM   15  C   UNL     1     -10.754   9.141  68.970  1.00  0.00    -0.153 C  
BRANCH  15  16
HETATM   16  S   UNL     1      -9.082   9.858  68.794  1.00  0.00    -0.154 SA 
BRANCH  16  17
HETATM   17  C   UNL     1      -9.443  11.298  67.729  1.00  0.00    -0.170 C  
BRANCH  17  18
HETATM   18  C   UNL     1     -10.741  11.202  66.934  1.00  0.00    -0.322 C  
BRANCH  18  19
HETATM   19  C   UNL     1     -11.423  12.557  66.745  1.00  0.00    -0.362 C  
HETATM   20  H2  UNL     1     -12.412  12.396  68.591  1.00  0.00     0.000 HD 
HETATM   21  N   UNL     1     -12.257  12.966  67.758  1.00  0.00    -0.219 NA 
HETATM   22  H1  UNL     1     -12.714  13.869  67.632  1.00  0.00     0.000 HD 
BRANCH  19  23
HETATM   23  N   UNL     1     -11.135  13.182  65.652  1.00  0.00    -0.275 N  
HETATM   24  H   UNL     1     -10.264  13.708  65.589  1.00  0.00     0.000 HD 
BRANCH  23  25
HETATM   25  S   UNL     1     -12.132  13.140  64.387  1.00  0.00    -0.421 S  
HETATM   26  O   UNL     1     -13.409  12.606  64.796  1.00  0.00    -0.787 OA 
HETATM   27  O   UNL     1     -11.423  12.608  63.247  1.00  0.00    -0.483 OA 
HETATM   28  N   UNL     1     -12.422  14.749  64.025  1.00  0.00    -1.000 N  
HETATM   29  H1  UNL     1     -13.053  14.723  63.224  1.00  0.00     0.000 HD 
HETATM   30  H2  UNL     1     -12.051  15.573  64.499  1.00  0.00     0.000 HD 
ENDBRANCH  23  25
ENDBRANCH  19  23
ENDBRANCH  18  19
ENDBRANCH  17  18
ENDBRANCH  16  17
ENDBRANCH  15  16
ENDBRANCH  12  15
ENDBRANCH   5  10
TORSDOF 8
ENDMDL
MODEL      226
REMARK 921   NORMALIZED FREE ENERGY PREDICTED BY IDOCK:   -3.88 KCAL/MOL
REMARK 922        TOTAL FREE ENERGY PREDICTED BY IDOCK:   -6.87 KCAL/MOL
REMARK 923 INTER-LIGAND FREE ENERGY PREDICTED BY IDOCK:   -5.81 KCAL/MOL
REMARK 924 INTRA-LIGAND FREE ENERGY PREDICTED BY IDOCK:   -1.06 KCAL/MOL
REMARK 927      BINDING AFFINITY PREDICTED BY RF-SCORE:    0.00 PKD
ROOT
HETATM    1  N   UNL     1      -7.750   9.471  65.880  1.00  0.00    -0.099 NA 
HETATM    2  C   UNL     1      -8.289  10.486  66.599  1.00  0.00    -0.131 C  
HETATM    3  H2  UNL     1      -7.639   8.511  66.205  1.00  0.00     0.000 HD 
HETATM    4  H1  UNL     1      -7.474   9.818  64.962  1.00  0.00     0.000 HD 
HETATM    5  N   UNL     1      -8.401  11.663  66.088  1.00  0.00    -0.378 NA 
HETATM    6  N   UNL     1      -8.656  10.024  67.821  1.00  0.00    -0.118 NA 
HETATM    7  H2  UNL     1      -8.545   9.064  68.146  1.00  0.00     0.000 HD 
HETATM    8  H1  UNL     1      -9.062  10.787  68.362  1.00  0.00     0.000 HD 
HETATM    9  H   UNL     1      -8.096  11.848  65.133  1.00  0.00     0.000 HD 
ENDROOT
BRANCH   5  10
HETATM   10  C   UNL     1      -8.934  12.653  66.850  1.00  0.00    -0.213 A  
HETATM   11  N   UNL     1     -10.201  12.852  67.179  1.00  0.00    -0.237 NA 
HETATM   12  C   UNL     1     -10.335  13.974  67.993  1.00  0.00    -0.240 A  
HETATM   13  S   UNL     1      -7.844  13.820  67.522  1.00  0.00    -0.167 SA 
HETATM   14  C   UNL     1      -9.151  14.634  68.257  1.00  0.00    -0.189 A  
BRANCH  12  15
HETATM   15  C   UNL     1     -11.696  14.356  68.483  1.00  0.00    -0.335 C  
BRANCH  15  16
HETATM   16  S   UNL     1     -12.044  13.570  70.096  1.00  0.00    -0.324 SA 
BRANCH  16  17
HETATM   17  C   UNL     1     -12.270  11.832  69.581  1.00  0.00    -0.185 C  
BRANCH  17  18
HETATM   18  C   UNL     1     -12.367  10.828  70.725  1.00  0.00    -0.480 C  
BRANCH  18  19
HETATM   19  C   UNL     1     -11.433   9.632  70.547  1.00  0.00    -0.285 C  
HETATM   20  H2  UNL     1      -9.728  10.847  70.711  1.00  0.00     0.000 HD 
HETATM   21  N   UNL     1     -10.085   9.901  70.578  1.00  0.00    -0.371 NA 
HETATM   22  H1  UNL     1      -9.461   9.103  70.459  1.00  0.00     0.000 HD 
BRANCH  19  23
HETATM   23  N   UNL     1     -12.012   8.487  70.396  1.00  0.00    -0.470 N  
HETATM   24  H   UNL     1     -12.439   8.254  69.500  1.00  0.00     0.000 HD 
BRANCH  23  25
HETATM   25  S   UNL     1     -12.067   7.421  71.604  1.00  0.00    -0.333 S  
HETATM   26  O   UNL     1     -11.561   8.032  72.810  1.00  0.00    -0.405 OA 
HETATM   27  O   UNL     1     -11.565   6.152  71.134  1.00  0.00    -0.300 OA 
HETATM   28  N   UNL     1     -13.702   7.183  71.881  1.00  0.00    -0.549 N  
HETATM   29  H1  UNL     1     -13.737   6.509  72.645  1.00  0.00     0.000 HD 
HETATM   30  H2  UNL     1     -14.487   7.615  71.395  1.00  0.00     0.000 HD 
ENDBRANCH  23  25
ENDBRANCH  19  23
ENDBRANCH  18  19
ENDBRANCH  17  18
ENDBRANCH  16  17
ENDBRANCH  15  16
ENDBRANCH  12  15
ENDBRANCH   5  10
TORSDOF 8
ENDMDL
MODEL      227
REMARK 921   NORMALIZED FREE ENERGY PREDICTED BY IDOCK:   -3.86 KCAL/MOL
REMARK 922        TOTAL FREE ENERGY PREDICTED BY IDOCK:   -6.84 KCAL/MOL
REMARK 923 INTER-LIGAND FREE ENERGY PREDICTED BY IDOCK:   -5.99 KCAL/MOL
REMARK 924 INTRA-LIGAND FREE ENERGY PREDICTED BY IDOCK:   -0.85 KCAL/MOL
REMARK 927      BINDING AFFINITY PREDICTED BY RF-SCORE:    0.00 PKD
ROOT
HETATM    1  N   UNL     1      -9.736   2.490  68.030  1.00  0.00    -0.259 NA 
HETATM    2  C   UNL     1      -9.496   3.641  67.356  1.00  0.00    -0.195 C  
HETATM    3  H2  UNL     1     -10.397   2.384  68.800  1.00  0.00     0.000 HD 
HETATM    4  H1  UNL     1      -9.153   1.747  67.647  1.00  0.00     0.000 HD 
HETATM    5  N   UNL     1      -8.652   3.667  66.384  1.00  0.00    -0.111 NA 
HETATM    6  N   UNL     1     -10.273   4.631  67.866  1.00  0.00    -0.019 NA 
HETATM    7  H2  UNL     1     -10.934   4.524  68.635  1.00  0.00     0.000 HD 
HETATM    8  H1  UNL     1     -10.093   5.497  67.358  1.00  0.00     0.000 HD 
HETATM    9  H   UNL     1      -8.158   2.820  66.100  1.00  0.00     0.000 HD 
ENDROOT
BRANCH   5  10
HETATM   10  C   UNL     1      -8.432   4.845  65.745  1.00  0.00    -0.121 A  
HETATM   11  N   UNL     1      -8.375   6.065  66.257  1.00  0.00    -0.118 NA 
HETATM   12  C   UNL     1      -8.110   7.008  65.268  1.00  0.00    -0.134 A  
HETATM   13  S   UNL     1      -8.160   4.788  64.036  1.00  0.00    -0.115 SA 
HETATM   14  C   UNL     1      -7.990   6.486  63.996  1.00  0.00    -0.081 A  
BRANCH  12  15
HETATM   15  C   UNL     1      -7.995   8.450  65.654  1.00  0.00    -0.115 C  
BRANCH  15  16
HETATM   16  S   UNL     1      -9.114   8.835  67.046  1.00  0.00    -0.137 SA 
BRANCH  16  17
HETATM   17  C   UNL     1      -9.923  10.348  66.418  1.00  0.00    -0.221 C  
BRANCH  17  18
HETATM   18  C   UNL     1      -9.980  10.467  64.900  1.00  0.00    -0.409 C  
BRANCH  18  19
HETATM   19  C   UNL     1     -10.272  11.890  64.424  1.00  0.00    -0.297 C  
HETATM   20  H2  UNL     1      -9.064  11.647  62.724  1.00  0.00     0.000 HD 
HETATM   21  N   UNL     1      -9.671  12.276  63.250  1.00  0.00    -0.609 NA 
HETATM   22  H1  UNL     1      -9.865  13.226  62.933  1.00  0.00     0.000 HD 
BRANCH  19  23
HETATM   23  N   UNL     1     -11.064  12.580  65.176  1.00  0.00    -0.291 N  
HETATM   24  H   UNL     1     -10.762  12.848  66.113  1.00  0.00     0.000 HD 
BRANCH  23  25
HETATM   25  S   UNL     1     -12.523  13.022  64.655  1.00  0.00    -0.372 S  
HETATM   26  O   UNL     1     -13.146  13.879  65.635  1.00  0.00    -0.625 OA 
HETATM   27  O   UNL     1     -13.204  11.864  64.126  1.00  0.00    -0.645 OA 
HETATM   28  N   UNL     1     -12.220  14.007  63.335  1.00  0.00    -1.112 N  
HETATM   29  H1  UNL     1     -13.144  14.287  63.006  1.00  0.00     0.000 HD 
HETATM   30  H2  UNL     1     -11.314  14.269  62.947  1.00  0.00     0.000 HD 
ENDBRANCH  23  25
ENDBRANCH  19  23
ENDBRANCH  18  19
ENDBRANCH  17  18
ENDBRANCH  16  17
ENDBRANCH  15  16
ENDBRANCH  12  15
ENDBRANCH   5  10
TORSDOF 8
ENDMDL
MODEL      228
REMARK 921   NORMALIZED FREE ENERGY PREDICTED BY IDOCK:   -3.85 KCAL/MOL
REMARK 922        TOTAL FREE ENERGY PREDICTED BY IDOCK:   -6.83 KCAL/MOL
REMARK 923 INTER-LIGAND FREE ENERGY PREDICTED BY IDOCK:   -5.73 KCAL/MOL
REMARK 924 INTRA-LIGAND FREE ENERGY PREDICTED BY IDOCK:   -1.10 KCAL/MOL
REMARK 927      BINDING AFFINITY PREDICTED BY RF-SCORE:    0.00 PKD
ROOT
HETATM    1  N   UNL     1      -5.610  11.864  66.449  1.00  0.00    -0.500 NA 
HETATM    2  C   UNL     1      -6.795  11.409  66.924  1.00  0.00    -0.142 C  
HETATM    3  H2  UNL     1      -5.457  12.251  65.518  1.00  0.00     0.000 HD 
HETATM    4  H1  UNL     1      -4.896  11.761  67.170  1.00  0.00     0.000 HD 
HETATM    5  N   UNL     1      -6.888  10.954  68.125  1.00  0.00    -0.066 NA 
HETATM    6  N   UNL     1      -7.745  11.546  65.965  1.00  0.00    -0.367 NA 
HETATM    7  H2  UNL     1      -7.592  11.932  65.034  1.00  0.00     0.000 HD 
HETATM    8  H1  UNL     1      -8.637  11.203  66.322  1.00  0.00     0.000 HD 
HETATM    9  H   UNL     1      -6.075  10.940  68.742  1.00  0.00     0.000 HD 
ENDROOT
BRANCH   5  10
HETATM   10  C   UNL     1      -8.091  10.495  68.555  1.00  0.00    -0.121 A  
HETATM   11  N   UNL     1      -9.281  11.066  68.447  1.00  0.00    -0.168 NA 
HETATM   12  C   UNL     1     -10.273  10.262  69.000  1.00  0.00    -0.210 A  
HETATM   13  S   UNL     1      -8.126   8.946  69.330  1.00  0.00    -0.107 SA 
HETATM   14  C   UNL     1      -9.813   9.082  69.549  1.00  0.00    -0.180 A  
BRANCH  12  15
HETATM   15  C   UNL     1     -11.694  10.732  68.962  1.00  0.00    -0.286 C  
BRANCH  15  16
HETATM   16  S   UNL     1     -12.021  11.901  70.329  1.00  0.00    -0.265 SA 
BRANCH  16  17
HETATM   17  C   UNL     1     -12.108  13.477  69.409  1.00  0.00    -0.289 C  
BRANCH  17  18
HETATM   18  C   UNL     1     -10.953  13.728  68.448  1.00  0.00    -0.275 C  
BRANCH  18  19
HETATM   19  C   UNL     1     -11.419  14.031  67.024  1.00  0.00    -0.351 C  
HETATM   20  H2  UNL     1     -10.851  16.046  67.190  1.00  0.00     0.000 HD 
HETATM   21  N   UNL     1     -11.259  15.327  66.593  1.00  0.00    -0.282 NA 
HETATM   22  H1  UNL     1     -11.570  15.530  65.643  1.00  0.00     0.000 HD 
BRANCH  19  23
HETATM   23  N   UNL     1     -11.907  13.030  66.369  1.00  0.00    -0.389 N  
HETATM   24  H   UNL     1     -12.573  12.407  66.827  1.00  0.00     0.000 HD 
BRANCH  23  25
HETATM   25  S   UNL     1     -11.480  12.753  64.841  1.00  0.00    -0.336 S  
HETATM   26  O   UNL     1     -10.450  13.685  64.451  1.00  0.00    -0.432 OA 
HETATM   27  O   UNL     1     -12.672  12.570  64.046  1.00  0.00    -0.669 OA 
HETATM   28  N   UNL     1     -10.731  11.255  64.877  1.00  0.00    -0.294 N  
HETATM   29  H1  UNL     1     -10.460  11.080  63.910  1.00  0.00     0.000 HD 
HETATM   30  H2  UNL     1     -10.578  10.653  65.686  1.00  0.00     0.000 HD 
ENDBRANCH  23  25
ENDBRANCH  19  23
ENDBRANCH  18  19
ENDBRANCH  17  18
ENDBRANCH  16  17
ENDBRANCH  15  16
ENDBRANCH  12  15
ENDBRANCH   5  10
TORSDOF 8
ENDMDL
MODEL      229
REMARK 921   NORMALIZED FREE ENERGY PREDICTED BY IDOCK:   -3.85 KCAL/MOL
REMARK 922        TOTAL FREE ENERGY PREDICTED BY IDOCK:   -6.82 KCAL/MOL
REMARK 923 INTER-LIGAND FREE ENERGY PREDICTED BY IDOCK:   -5.00 KCAL/MOL
REMARK 924 INTRA-LIGAND FREE ENERGY PREDICTED BY IDOCK:   -1.83 KCAL/MOL
REMARK 927      BINDING AFFINITY PREDICTED BY RF-SCORE:    0.00 PKD
ROOT
HETATM    1  N   UNL     1     -12.289  11.105  69.075  1.00  0.00    -0.590 NA 
HETATM    2  C   UNL     1     -11.154  10.387  68.895  1.00  0.00    -0.247 C  
HETATM    3  H2  UNL     1     -13.118  11.058  68.482  1.00  0.00     0.000 HD 
HETATM    4  H1  UNL     1     -12.186  11.700  69.897  1.00  0.00     0.000 HD 
HETATM    5  N   UNL     1     -10.167  10.507  69.714  1.00  0.00    -0.409 NA 
HETATM    6  N   UNL     1     -11.292   9.595  67.802  1.00  0.00    -0.439 NA 
HETATM    7  H2  UNL     1     -12.120   9.548  67.209  1.00  0.00     0.000 HD 
HETATM    8  H1  UNL     1     -10.438   9.054  67.667  1.00  0.00     0.000 HD 
HETATM    9  H   UNL     1     -10.227  11.135  70.515  1.00  0.00     0.000 HD 
ENDROOT
BRANCH   5  10
HETATM   10  C   UNL     1      -9.044   9.778  69.488  1.00  0.00    -0.216 A  
HETATM   11  N   UNL     1      -8.938   8.491  69.192  1.00  0.00    -0.145 NA 
HETATM   12  C   UNL     1      -7.606   8.127  69.017  1.00  0.00    -0.097 A  
HETATM   13  S   UNL     1      -7.525  10.607  69.561  1.00  0.00    -0.098 SA 
HETATM   14  C   UNL     1      -6.703   9.154  69.207  1.00  0.00    -0.049 A  
BRANCH  12  15
HETATM   15  C   UNL     1      -7.281   6.710  68.663  1.00  0.00    -0.085 C  
BRANCH  15  16
HETATM   16  S   UNL     1      -7.946   6.291  67.013  1.00  0.00    -0.109 SA 
BRANCH  16  17
HETATM   17  C   UNL     1      -9.532   5.513  67.476  1.00  0.00    -0.117 C  
BRANCH  17  18
HETATM   18  C   UNL     1      -9.584   4.948  68.891  1.00  0.00    -0.224 C  
BRANCH  18  19
HETATM   19  C   UNL     1     -10.664   5.601  69.753  1.00  0.00    -0.331 C  
HETATM   20  H2  UNL     1     -11.190   6.930  68.214  1.00  0.00     0.000 HD 
HETATM   21  N   UNL     1     -11.374   6.624  69.170  1.00  0.00    -0.572 NA 
HETATM   22  H1  UNL     1     -12.094   7.060  69.745  1.00  0.00     0.000 HD 
BRANCH  19  23
HETATM   23  N   UNL     1     -10.803   5.114  70.941  1.00  0.00    -0.058 N  
HETATM   24  H   UNL     1     -10.674   4.113  71.092  1.00  0.00     0.000 HD 
BRANCH  23  25
HETATM   25  S   UNL     1     -11.176   6.064  72.188  1.00  0.00    -0.297 S  
HETATM   26  O   UNL     1     -10.493   7.329  72.051  1.00  0.00    -0.198 OA 
HETATM   27  O   UNL     1     -11.098   5.293  73.406  1.00  0.00    -0.301 OA 
HETATM   28  N   UNL     1     -12.800   6.414  71.981  1.00  0.00    -0.413 N  
HETATM   29  H1  UNL     1     -13.036   7.016  72.770  1.00  0.00     0.000 HD 
HETATM   30  H2  UNL     1     -13.417   6.097  71.233  1.00  0.00     0.000 HD 
ENDBRANCH  23  25
ENDBRANCH  19  23
ENDBRANCH  18  19
ENDBRANCH  17  18
ENDBRANCH  16  17
ENDBRANCH  15  16
ENDBRANCH  12  15
ENDBRANCH   5  10
TORSDOF 8
ENDMDL
MODEL      230
REMARK 921   NORMALIZED FREE ENERGY PREDICTED BY IDOCK:   -3.84 KCAL/MOL
REMARK 922        TOTAL FREE ENERGY PREDICTED BY IDOCK:   -6.82 KCAL/MOL
REMARK 923 INTER-LIGAND FREE ENERGY PREDICTED BY IDOCK:   -5.14 KCAL/MOL
REMARK 924 INTRA-LIGAND FREE ENERGY PREDICTED BY IDOCK:   -1.68 KCAL/MOL
REMARK 927      BINDING AFFINITY PREDICTED BY RF-SCORE:    0.00 PKD
ROOT
HETATM    1  N   UNL     1     -13.427   9.282  70.930  1.00  0.00    -0.571 NA 
HETATM    2  C   UNL     1     -12.398   9.973  70.384  1.00  0.00    -0.135 C  
HETATM    3  H2  UNL     1     -13.405   8.803  71.830  1.00  0.00     0.000 HD 
HETATM    4  H1  UNL     1     -14.228   9.317  70.301  1.00  0.00     0.000 HD 
HETATM    5  N   UNL     1     -12.534  10.560  69.245  1.00  0.00    -0.717 NA 
HETATM    6  N   UNL     1     -11.331   9.927  71.222  1.00  0.00    -0.368 NA 
HETATM    7  H2  UNL     1     -11.308   9.448  72.121  1.00  0.00     0.000 HD 
HETATM    8  H1  UNL     1     -10.556  10.448  70.811  1.00  0.00     0.000 HD 
HETATM    9  H   UNL     1     -13.420  10.522  68.742  1.00  0.00     0.000 HD 
ENDROOT
BRANCH   5  10
HETATM   10  C   UNL     1     -11.471  11.230  68.729  1.00  0.00    -0.293 A  
HETATM   11  N   UNL     1     -10.356  10.738  68.211  1.00  0.00    -0.165 NA 
HETATM   12  C   UNL     1      -9.517  11.758  67.772  1.00  0.00    -0.181 A  
HETATM   13  S   UNL     1     -11.554  12.959  68.699  1.00  0.00    -0.337 SA 
HETATM   14  C   UNL     1     -10.005  13.032  67.986  1.00  0.00    -0.233 A  
BRANCH  12  15
HETATM   15  C   UNL     1      -8.207  11.401  67.142  1.00  0.00    -0.157 C  
BRANCH  15  16
HETATM   16  S   UNL     1      -7.008  10.864  68.412  1.00  0.00    -0.074 SA 
BRANCH  16  17
HETATM   17  C   UNL     1      -6.964   9.065  68.095  1.00  0.00    -0.077 C  
BRANCH  17  18
HETATM   18  C   UNL     1      -7.598   8.627  66.780  1.00  0.00    -0.086 C  
BRANCH  18  19
HETATM   19  C   UNL     1      -8.885   7.826  66.979  1.00  0.00    -0.127 C  
HETATM   20  H2  UNL     1      -9.918   9.001  65.578  1.00  0.00     0.000 HD 
HETATM   21  N   UNL     1      -9.969   8.218  66.231  1.00  0.00    -0.458 NA 
HETATM   22  H1  UNL     1     -10.828   7.684  66.363  1.00  0.00     0.000 HD 
BRANCH  19  23
HETATM   23  N   UNL     1      -8.814   6.853  67.827  1.00  0.00    -0.120 N  
HETATM   24  H   UNL     1      -8.057   6.174  67.750  1.00  0.00     0.000 HD 
BRANCH  23  25
HETATM   25  S   UNL     1      -9.904   6.699  69.003  1.00  0.00    -0.146 S  
HETATM   26  O   UNL     1      -9.775   7.800  69.928  1.00  0.00    -0.174 OA 
HETATM   27  O   UNL     1      -9.912   5.329  69.459  1.00  0.00    -0.185 OA 
HETATM   28  N   UNL     1     -11.379   6.929  68.245  1.00  0.00    -0.532 N  
HETATM   29  H1  UNL     1     -12.069   6.831  68.990  1.00  0.00     0.000 HD 
HETATM   30  H2  UNL     1     -11.551   7.123  67.258  1.00  0.00     0.000 HD 
ENDBRANCH  23  25
ENDBRANCH  19  23
ENDBRANCH  18  19
ENDBRANCH  17  18
ENDBRANCH  16  17
ENDBRANCH  15  16
ENDBRANCH  12  15
ENDBRANCH   5  10
TORSDOF 8
ENDMDL
MODEL      231
REMARK 921   NORMALIZED FREE ENERGY PREDICTED BY IDOCK:   -3.84 KCAL/MOL
REMARK 922        TOTAL FREE ENERGY PREDICTED BY IDOCK:   -6.81 KCAL/MOL
REMARK 923 INTER-LIGAND FREE ENERGY PREDICTED BY IDOCK:   -4.91 KCAL/MOL
REMARK 924 INTRA-LIGAND FREE ENERGY PREDICTED BY IDOCK:   -1.90 KCAL/MOL
REMARK 927      BINDING AFFINITY PREDICTED BY RF-SCORE:    0.00 PKD
ROOT
HETATM    1  N   UNL     1      -8.188   6.494  64.882  1.00  0.00    -0.224 NA 
HETATM    2  C   UNL     1      -8.719   7.599  65.458  1.00  0.00    -0.051 C  
HETATM    3  H2  UNL     1      -8.607   5.564  64.892  1.00  0.00     0.000 HD 
HETATM    4  H1  UNL     1      -7.305   6.737  64.436  1.00  0.00     0.000 HD 
HETATM    5  N   UNL     1      -8.117   8.735  65.373  1.00  0.00    -0.118 NA 
HETATM    6  N   UNL     1      -9.895   7.276  66.052  1.00  0.00    -0.401 NA 
HETATM    7  H2  UNL     1     -10.314   6.346  66.063  1.00  0.00     0.000 HD 
HETATM    8  H1  UNL     1     -10.295   8.108  66.486  1.00  0.00     0.000 HD 
HETATM    9  H   UNL     1      -7.239   8.823  64.862  1.00  0.00     0.000 HD 
ENDROOT
BRANCH   5  10
HETATM   10  C   UNL     1      -8.678   9.814  65.977  1.00  0.00    -0.141 A  
HETATM   11  N   UNL     1      -9.956  10.153  66.045  1.00  0.00    -0.244 NA 
HETATM   12  C   UNL     1     -10.124  11.327  66.774  1.00  0.00    -0.219 A  
HETATM   13  S   UNL     1      -7.619  10.908  66.804  1.00  0.00    -0.140 SA 
HETATM   14  C   UNL     1      -8.949  11.885  67.238  1.00  0.00    -0.176 A  
BRANCH  12  15
HETATM   15  C   UNL     1     -11.506  11.866  66.973  1.00  0.00    -0.316 C  
BRANCH  15  16
HETATM   16  S   UNL     1     -11.687  12.567  68.652  1.00  0.00    -0.319 SA 
BRANCH  16  17
HETATM   17  C   UNL     1     -12.368  11.126  69.545  1.00  0.00    -0.194 C  
BRANCH  17  18
HETATM   18  C   UNL     1     -11.472  10.565  70.643  1.00  0.00    -0.418 C  
BRANCH  18  19
HETATM   19  C   UNL     1     -10.459   9.546  70.122  1.00  0.00    -0.255 C  
HETATM   20  H2  UNL     1      -8.869  10.530  71.078  1.00  0.00     0.000 HD 
HETATM   21  N   UNL     1      -9.150   9.745  70.490  1.00  0.00    -0.330 NA 
HETATM   22  H1  UNL     1      -8.473   9.065  70.142  1.00  0.00     0.000 HD 
BRANCH  19  23
HETATM   23  N   UNL     1     -10.945   8.595  69.396  1.00  0.00    -0.428 N  
HETATM   24  H   UNL     1     -11.614   8.817  68.659  1.00  0.00     0.000 HD 
BRANCH  23  25
HETATM   25  S   UNL     1     -10.509   7.063  69.637  1.00  0.00    -0.230 S  
HETATM   26  O   UNL     1     -11.269   6.201  68.764  1.00  0.00    -0.367 OA 
HETATM   27  O   UNL     1     -10.429   6.816  71.058  1.00  0.00    -0.209 OA 
HETATM   28  N   UNL     1      -8.932   6.979  69.078  1.00  0.00    -0.134 N  
HETATM   29  H1  UNL     1      -8.656   6.009  69.231  1.00  0.00     0.000 HD 
HETATM   30  H2  UNL     1      -8.373   7.730  68.674  1.00  0.00     0.000 HD 
ENDBRANCH  23  25
ENDBRANCH  19  23
ENDBRANCH  18  19
ENDBRANCH  17  18
ENDBRANCH  16  17
ENDBRANCH  15  16
ENDBRANCH  12  15
ENDBRANCH   5  10
TORSDOF 8
ENDMDL
MODEL      232
REMARK 921   NORMALIZED FREE ENERGY PREDICTED BY IDOCK:   -3.83 KCAL/MOL
REMARK 922        TOTAL FREE ENERGY PREDICTED BY IDOCK:   -6.79 KCAL/MOL
REMARK 923 INTER-LIGAND FREE ENERGY PREDICTED BY IDOCK:   -5.61 KCAL/MOL
REMARK 924 INTRA-LIGAND FREE ENERGY PREDICTED BY IDOCK:   -1.19 KCAL/MOL
REMARK 927      BINDING AFFINITY PREDICTED BY RF-SCORE:    0.00 PKD
ROOT
HETATM    1  N   UNL     1      -8.156   6.232  72.094  1.00  0.00    -0.109 NA 
HETATM    2  C   UNL     1      -8.898   7.345  71.875  1.00  0.00    -0.114 C  
HETATM    3  H2  UNL     1      -7.212   6.220  72.479  1.00  0.00     0.000 HD 
HETATM    4  H1  UNL     1      -8.690   5.410  71.815  1.00  0.00     0.000 HD 
HETATM    5  N   UNL     1     -10.092   7.252  71.400  1.00  0.00    -0.188 NA 
HETATM    6  N   UNL     1      -8.188   8.439  72.248  1.00  0.00    -0.220 NA 
HETATM    7  H2  UNL     1      -7.244   8.427  72.632  1.00  0.00     0.000 HD 
HETATM    8  H1  UNL     1      -8.747   9.277  72.083  1.00  0.00     0.000 HD 
HETATM    9  H   UNL     1     -10.501   6.342  71.191  1.00  0.00     0.000 HD 
ENDROOT
BRANCH   5  10
HETATM   10  C   UNL     1     -10.795   8.394  71.184  1.00  0.00    -0.237 A  
HETATM   11  N   UNL     1     -10.563   9.353  70.300  1.00  0.00    -0.230 NA 
HETATM   12  C   UNL     1     -11.530  10.351  70.382  1.00  0.00    -0.337 A  
HETATM   13  S   UNL     1     -12.206   8.660  72.153  1.00  0.00    -0.387 SA 
HETATM   14  C   UNL     1     -12.485  10.144  71.357  1.00  0.00    -0.423 A  
BRANCH  12  15
HETATM   15  C   UNL     1     -11.446  11.520  69.451  1.00  0.00    -0.309 C  
BRANCH  15  16
HETATM   16  S   UNL     1     -11.252  10.954  67.724  1.00  0.00    -0.297 SA 
BRANCH  16  17
HETATM   17  C   UNL     1      -9.648  11.718  67.298  1.00  0.00    -0.176 C  
BRANCH  17  18
HETATM   18  C   UNL     1      -9.399  11.905  65.806  1.00  0.00    -0.165 C  
BRANCH  18  19
HETATM   19  C   UNL     1      -9.897  13.253  65.285  1.00  0.00    -0.075 C  
HETATM   20  H2  UNL     1     -11.291  12.328  64.016  1.00  0.00     0.000 HD 
HETATM   21  N   UNL     1     -10.900  13.211  64.346  1.00  0.00    -0.377 NA 
HETATM   22  H1  UNL     1     -11.232  14.110  63.998  1.00  0.00     0.000 HD 
BRANCH  19  23
HETATM   23  N   UNL     1      -9.325  14.295  65.791  1.00  0.00    -0.525 N  
HETATM   24  H   UNL     1      -8.315  14.295  65.935  1.00  0.00     0.000 HD 
BRANCH  23  25
HETATM   25  S   UNL     1     -10.185  15.595  66.199  1.00  0.00    -0.333 S  
HETATM   26  O   UNL     1     -10.723  16.211  65.009  1.00  0.00    -0.558 OA 
HETATM   27  O   UNL     1      -9.446  16.361  67.175  1.00  0.00    -0.226 OA 
HETATM   28  N   UNL     1     -11.512  14.985  67.018  1.00  0.00    -0.323 N  
HETATM   29  H1  UNL     1     -12.056  15.807  67.276  1.00  0.00     0.000 HD 
HETATM   30  H2  UNL     1     -11.728  14.007  67.216  1.00  0.00     0.000 HD 
ENDBRANCH  23  25
ENDBRANCH  19  23
ENDBRANCH  18  19
ENDBRANCH  17  18
ENDBRANCH  16  17
ENDBRANCH  15  16
ENDBRANCH  12  15
ENDBRANCH   5  10
TORSDOF 8
ENDMDL
MODEL      233
REMARK 921   NORMALIZED FREE ENERGY PREDICTED BY IDOCK:   -3.82 KCAL/MOL
REMARK 922        TOTAL FREE ENERGY PREDICTED BY IDOCK:   -6.79 KCAL/MOL
REMARK 923 INTER-LIGAND FREE ENERGY PREDICTED BY IDOCK:   -6.11 KCAL/MOL
REMARK 924 INTRA-LIGAND FREE ENERGY PREDICTED BY IDOCK:   -0.68 KCAL/MOL
REMARK 927      BINDING AFFINITY PREDICTED BY RF-SCORE:    0.00 PKD
ROOT
HETATM    1  N   UNL     1     -12.353  16.126  70.874  1.00  0.00    -0.477 NA 
HETATM    2  C   UNL     1     -11.850  15.394  69.850  1.00  0.00    -0.350 C  
HETATM    3  H2  UNL     1     -12.148  15.976  71.862  1.00  0.00     0.000 HD 
HETATM    4  H1  UNL     1     -12.968  16.849  70.502  1.00  0.00     0.000 HD 
HETATM    5  N   UNL     1     -12.158  15.676  68.632  1.00  0.00    -0.541 NA 
HETATM    6  N   UNL     1     -11.032  14.432  70.345  1.00  0.00    -0.467 NA 
HETATM    7  H2  UNL     1     -10.827  14.282  71.333  1.00  0.00     0.000 HD 
HETATM    8  H1  UNL     1     -10.653  13.881  69.574  1.00  0.00     0.000 HD 
HETATM    9  H   UNL     1     -12.775  16.459  68.417  1.00  0.00     0.000 HD 
ENDROOT
BRANCH   5  10
HETATM   10  C   UNL     1     -11.642  14.908  67.637  1.00  0.00    -0.339 A  
HETATM   11  N   UNL     1     -12.182  13.859  67.038  1.00  0.00    -0.405 NA 
HETATM   12  C   UNL     1     -11.337  13.357  66.051  1.00  0.00    -0.309 A  
HETATM   13  S   UNL     1     -10.080  15.338  67.024  1.00  0.00    -0.252 SA 
HETATM   14  C   UNL     1     -10.138  14.030  65.929  1.00  0.00    -0.321 A  
BRANCH  12  15
HETATM   15  C   UNL     1     -11.781  12.174  65.250  1.00  0.00    -0.308 C  
BRANCH  15  16
HETATM   16  S   UNL     1     -11.057  12.226  63.572  1.00  0.00    -0.440 SA 
BRANCH  16  17
HETATM   17  C   UNL     1      -9.595  11.154  63.804  1.00  0.00    -0.271 C  
BRANCH  17  18
HETATM   18  C   UNL     1      -9.747  10.078  64.872  1.00  0.00    -0.377 C  
BRANCH  18  19
HETATM   19  C   UNL     1      -8.758   8.925  64.700  1.00  0.00    -0.103 C  
HETATM   20  H2  UNL     1      -8.880   9.038  62.607  1.00  0.00     0.000 HD 
HETATM   21  N   UNL     1      -8.463   8.563  63.408  1.00  0.00    -0.395 NA 
HETATM   22  H1  UNL     1      -7.804   7.793  63.292  1.00  0.00     0.000 HD 
BRANCH  19  23
HETATM   23  N   UNL     1      -8.295   8.416  65.794  1.00  0.00    -0.137 N  
HETATM   24  H   UNL     1      -7.579   8.919  66.318  1.00  0.00     0.000 HD 
BRANCH  23  25
HETATM   25  S   UNL     1      -8.833   7.000  66.341  1.00  0.00    -0.148 S  
HETATM   26  O   UNL     1      -8.579   5.975  65.357  1.00  0.00    -0.153 OA 
HETATM   27  O   UNL     1     -10.145   7.186  66.915  1.00  0.00    -0.207 OA 
HETATM   28  N   UNL     1      -7.827   6.635  67.629  1.00  0.00    -0.110 N  
HETATM   29  H1  UNL     1      -8.168   5.738  67.976  1.00  0.00     0.000 HD 
HETATM   30  H2  UNL     1      -7.047   7.186  67.988  1.00  0.00     0.000 HD 
ENDBRANCH  23  25
ENDBRANCH  19  23
ENDBRANCH  18  19
ENDBRANCH  17  18
ENDBRANCH  16  17
ENDBRANCH  15  16
ENDBRANCH  12  15
ENDBRANCH   5  10
TORSDOF 8
ENDMDL
MODEL      234
REMARK 921   NORMALIZED FREE ENERGY PREDICTED BY IDOCK:   -3.81 KCAL/MOL
REMARK 922        TOTAL FREE ENERGY PREDICTED BY IDOCK:   -6.77 KCAL/MOL
REMARK 923 INTER-LIGAND FREE ENERGY PREDICTED BY IDOCK:   -5.47 KCAL/MOL
REMARK 924 INTRA-LIGAND FREE ENERGY PREDICTED BY IDOCK:   -1.31 KCAL/MOL
REMARK 927      BINDING AFFINITY PREDICTED BY RF-SCORE:    0.00 PKD
ROOT
HETATM    1  N   UNL     1      -9.860  20.228  66.247  1.00  0.00    -0.618 NA 
HETATM    2  C   UNL     1      -9.983  18.929  66.610  1.00  0.00    -0.373 C  
HETATM    3  H2  UNL     1     -10.045  21.029  66.851  1.00  0.00     0.000 HD 
HETATM    4  H1  UNL     1      -9.553  20.280  65.277  1.00  0.00     0.000 HD 
HETATM    5  N   UNL     1      -9.707  17.987  65.775  1.00  0.00    -0.491 NA 
HETATM    6  N   UNL     1     -10.393  18.859  67.902  1.00  0.00    -0.394 NA 
HETATM    7  H2  UNL     1     -10.578  19.660  68.505  1.00  0.00     0.000 HD 
HETATM    8  H1  UNL     1     -10.485  17.881  68.175  1.00  0.00     0.000 HD 
HETATM    9  H   UNL     1      -9.382  18.204  64.833  1.00  0.00     0.000 HD 
ENDROOT
BRANCH   5  10
HETATM   10  C   UNL     1      -9.858  16.698  66.177  1.00  0.00    -0.318 A  
HETATM   11  N   UNL     1     -10.977  16.013  66.355  1.00  0.00    -0.151 NA 
HETATM   12  C   UNL     1     -10.705  14.708  66.756  1.00  0.00    -0.301 A  
HETATM   13  S   UNL     1      -8.420  15.783  66.484  1.00  0.00    -0.276 SA 
HETATM   14  C   UNL     1      -9.362  14.423  66.901  1.00  0.00    -0.256 A  
BRANCH  12  15
HETATM   15  C   UNL     1     -11.847  13.770  66.996  1.00  0.00    -0.410 C  
BRANCH  15  16
HETATM   16  S   UNL     1     -11.877  13.226  68.740  1.00  0.00    -0.316 SA 
BRANCH  16  17
HETATM   17  C   UNL     1     -11.852  11.412  68.527  1.00  0.00    -0.294 C  
BRANCH  17  18
HETATM   18  C   UNL     1     -10.607  10.717  69.066  1.00  0.00    -0.249 C  
BRANCH  18  19
HETATM   19  C   UNL     1      -9.359  11.000  68.231  1.00  0.00    -0.172 C  
HETATM   20  H2  UNL     1     -10.317  10.396  66.462  1.00  0.00     0.000 HD 
HETATM   21  N   UNL     1      -9.458  10.751  66.883  1.00  0.00    -0.167 NA 
HETATM   22  H1  UNL     1      -8.624  10.940  66.325  1.00  0.00     0.000 HD 
BRANCH  19  23
HETATM   23  N   UNL     1      -8.340  11.456  68.882  1.00  0.00    -0.336 N  
HETATM   24  H   UNL     1      -8.485  11.926  69.776  1.00  0.00     0.000 HD 
BRANCH  23  25
HETATM   25  S   UNL     1      -6.846  11.291  68.304  1.00  0.00    -0.068 S  
HETATM   26  O   UNL     1      -6.656  12.195  67.193  1.00  0.00    -0.145 OA 
HETATM   27  O   UNL     1      -6.537   9.885  68.192  1.00  0.00    -0.056 OA 
HETATM   28  N   UNL     1      -5.854  11.874  69.521  1.00  0.00    -0.079 N  
HETATM   29  H1  UNL     1      -4.909  11.770  69.155  1.00  0.00     0.000 HD 
HETATM   30  H2  UNL     1      -6.134  12.249  70.428  1.00  0.00     0.000 HD 
ENDBRANCH  23  25
ENDBRANCH  19  23
ENDBRANCH  18  19
ENDBRANCH  17  18
ENDBRANCH  16  17
ENDBRANCH  15  16
ENDBRANCH  12  15
ENDBRANCH   5  10
TORSDOF 8
ENDMDL
MODEL      235
REMARK 921   NORMALIZED FREE ENERGY PREDICTED BY IDOCK:   -3.80 KCAL/MOL
REMARK 922        TOTAL FREE ENERGY PREDICTED BY IDOCK:   -6.76 KCAL/MOL
REMARK 923 INTER-LIGAND FREE ENERGY PREDICTED BY IDOCK:   -5.37 KCAL/MOL
REMARK 924 INTRA-LIGAND FREE ENERGY PREDICTED BY IDOCK:   -1.39 KCAL/MOL
REMARK 927      BINDING AFFINITY PREDICTED BY RF-SCORE:    0.00 PKD
ROOT
HETATM    1  N   UNL     1     -11.555  12.057  64.081  1.00  0.00    -0.371 NA 
HETATM    2  C   UNL     1     -10.596  11.454  64.825  1.00  0.00    -0.316 C  
HETATM    3  H2  UNL     1     -11.570  13.044  63.826  1.00  0.00     0.000 HD 
HETATM    4  H1  UNL     1     -12.258  11.368  63.815  1.00  0.00     0.000 HD 
HETATM    5  N   UNL     1     -10.660  10.192  65.077  1.00  0.00     0.038 NA 
HETATM    6  N   UNL     1      -9.660  12.370  65.180  1.00  0.00    -0.460 NA 
HETATM    7  H2  UNL     1      -9.676  13.357  64.925  1.00  0.00     0.000 HD 
HETATM    8  H1  UNL     1      -8.939  11.917  65.740  1.00  0.00     0.000 HD 
HETATM    9  H   UNL     1     -11.425   9.626  64.713  1.00  0.00     0.000 HD 
ENDROOT
BRANCH   5  10
HETATM   10  C   UNL     1      -9.685   9.632  65.839  1.00  0.00    -0.275 A  
HETATM   11  N   UNL     1      -9.568   9.625  67.158  1.00  0.00    -0.161 NA 
HETATM   12  C   UNL     1      -8.431   8.926  67.555  1.00  0.00    -0.116 A  
HETATM   13  S   UNL     1      -8.418   8.782  65.019  1.00  0.00    -0.162 SA 
HETATM   14  C   UNL     1      -7.677   8.423  66.513  1.00  0.00    -0.089 A  
BRANCH  12  15
HETATM   15  C   UNL     1      -8.132   8.795  69.015  1.00  0.00    -0.116 C  
BRANCH  15  16
HETATM   16  S   UNL     1      -8.837  10.202  69.944  1.00  0.00     0.056 SA 
BRANCH  16  17
HETATM   17  C   UNL     1     -10.396   9.462  70.544  1.00  0.00    -0.281 C  
BRANCH  17  18
HETATM   18  C   UNL     1     -11.489  10.463  70.902  1.00  0.00    -0.385 C  
BRANCH  18  19
HETATM   19  C   UNL     1     -11.835  11.404  69.748  1.00  0.00    -0.364 C  
HETATM   20  H2  UNL     1     -12.469   9.807  68.541  1.00  0.00     0.000 HD 
HETATM   21  N   UNL     1     -12.335  10.816  68.611  1.00  0.00    -0.786 NA 
HETATM   22  H1  UNL     1     -12.566  11.444  67.840  1.00  0.00     0.000 HD 
BRANCH  19  23
HETATM   23  N   UNL     1     -11.628  12.660  69.968  1.00  0.00    -0.531 N  
HETATM   24  H   UNL     1     -11.847  13.053  70.884  1.00  0.00     0.000 HD 
BRANCH  23  25
HETATM   25  S   UNL     1     -11.027  13.615  68.817  1.00  0.00    -0.266 S  
HETATM   26  O   UNL     1     -11.929  14.719  68.587  1.00  0.00    -0.311 OA 
HETATM   27  O   UNL     1     -10.547  12.795  67.730  1.00  0.00    -0.215 OA 
HETATM   28  N   UNL     1      -9.660  14.296  69.504  1.00  0.00    -0.263 N  
HETATM   29  H1  UNL     1      -9.280  14.900  68.775  1.00  0.00     0.000 HD 
HETATM   30  H2  UNL     1      -9.289  14.142  70.442  1.00  0.00     0.000 HD 
ENDBRANCH  23  25
ENDBRANCH  19  23
ENDBRANCH  18  19
ENDBRANCH  17  18
ENDBRANCH  16  17
ENDBRANCH  15  16
ENDBRANCH  12  15
ENDBRANCH   5  10
TORSDOF 8
ENDMDL
MODEL      236
REMARK 921   NORMALIZED FREE ENERGY PREDICTED BY IDOCK:   -3.80 KCAL/MOL
REMARK 922        TOTAL FREE ENERGY PREDICTED BY IDOCK:   -6.75 KCAL/MOL
REMARK 923 INTER-LIGAND FREE ENERGY PREDICTED BY IDOCK:   -5.49 KCAL/MOL
REMARK 924 INTRA-LIGAND FREE ENERGY PREDICTED BY IDOCK:   -1.26 KCAL/MOL
REMARK 927      BINDING AFFINITY PREDICTED BY RF-SCORE:    0.00 PKD
ROOT
HETATM    1  N   UNL     1     -11.874  16.263  71.676  1.00  0.00    -0.646 NA 
HETATM    2  C   UNL     1     -11.923  15.614  70.487  1.00  0.00    -0.385 C  
HETATM    3  H2  UNL     1     -12.675  16.450  72.279  1.00  0.00     0.000 HD 
HETATM    4  H1  UNL     1     -10.912  16.535  71.873  1.00  0.00     0.000 HD 
HETATM    5  N   UNL     1     -10.847  15.412  69.807  1.00  0.00    -0.267 NA 
HETATM    6  N   UNL     1     -13.204  15.252  70.225  1.00  0.00    -0.678 NA 
HETATM    7  H2  UNL     1     -14.004  15.438  70.828  1.00  0.00     0.000 HD 
HETATM    8  H1  UNL     1     -13.240  14.763  69.330  1.00  0.00     0.000 HD 
HETATM    9  H   UNL     1      -9.943  15.728  70.156  1.00  0.00     0.000 HD 
ENDROOT
BRANCH   5  10
HETATM   10  C   UNL     1     -10.944  14.770  68.614  1.00  0.00    -0.255 A  
HETATM   11  N   UNL     1     -11.272  13.508  68.379  1.00  0.00    -0.261 NA 
HETATM   12  C   UNL     1     -11.274  13.241  67.013  1.00  0.00    -0.292 A  
HETATM   13  S   UNL     1     -10.630  15.691  67.182  1.00  0.00    -0.309 SA 
HETATM   14  C   UNL     1     -10.922  14.313  66.219  1.00  0.00    -0.317 A  
BRANCH  12  15
HETATM   15  C   UNL     1     -11.635  11.866  66.544  1.00  0.00    -0.255 C  
BRANCH  15  16
HETATM   16  S   UNL     1     -10.370  11.227  65.390  1.00  0.00    -0.277 SA 
BRANCH  16  17
HETATM   17  C   UNL     1      -8.844  11.604  66.322  1.00  0.00    -0.164 C  
BRANCH  17  18
HETATM   18  C   UNL     1      -8.127  10.392  66.904  1.00  0.00    -0.118 C  
BRANCH  18  19
HETATM   19  C   UNL     1      -8.769   9.885  68.195  1.00  0.00    -0.122 C  
HETATM   20  H2  UNL     1      -9.103  11.841  68.882  1.00  0.00     0.000 HD 
HETATM   21  N   UNL     1      -9.203  10.845  69.078  1.00  0.00    -0.324 NA 
HETATM   22  H1  UNL     1      -9.631  10.507  69.940  1.00  0.00     0.000 HD 
BRANCH  19  23
HETATM   23  N   UNL     1      -8.845   8.601  68.317  1.00  0.00    -0.141 N  
HETATM   24  H   UNL     1      -7.988   8.052  68.387  1.00  0.00     0.000 HD 
BRANCH  23  25
HETATM   25  S   UNL     1     -10.272   7.856  68.360  1.00  0.00    -0.199 S  
HETATM   26  O   UNL     1     -11.284   8.777  68.821  1.00  0.00     0.167 OA 
HETATM   27  O   UNL     1     -10.106   6.555  68.964  1.00  0.00    -0.154 OA 
HETATM   28  N   UNL     1     -10.643   7.561  66.753  1.00  0.00    -0.494 N  
HETATM   29  H1  UNL     1     -11.547   7.089  66.780  1.00  0.00     0.000 HD 
HETATM   30  H2  UNL     1     -10.089   7.799  65.931  1.00  0.00     0.000 HD 
ENDBRANCH  23  25
ENDBRANCH  19  23
ENDBRANCH  18  19
ENDBRANCH  17  18
ENDBRANCH  16  17
ENDBRANCH  15  16
ENDBRANCH  12  15
ENDBRANCH   5  10
TORSDOF 8
ENDMDL
MODEL      237
REMARK 921   NORMALIZED FREE ENERGY PREDICTED BY IDOCK:   -3.79 KCAL/MOL
REMARK 922        TOTAL FREE ENERGY PREDICTED BY IDOCK:   -6.74 KCAL/MOL
REMARK 923 INTER-LIGAND FREE ENERGY PREDICTED BY IDOCK:   -5.85 KCAL/MOL
REMARK 924 INTRA-LIGAND FREE ENERGY PREDICTED BY IDOCK:   -0.89 KCAL/MOL
REMARK 927      BINDING AFFINITY PREDICTED BY RF-SCORE:    0.00 PKD
ROOT
HETATM    1  N   UNL     1     -10.397   3.396  72.954  1.00  0.00    -0.163 NA 
HETATM    2  C   UNL     1     -10.205   4.490  72.178  1.00  0.00    -0.188 C  
HETATM    3  H2  UNL     1     -10.854   3.392  73.866  1.00  0.00     0.000 HD 
HETATM    4  H1  UNL     1     -10.014   2.577  72.483  1.00  0.00     0.000 HD 
HETATM    5  N   UNL     1      -9.631   4.386  71.030  1.00  0.00    -0.165 NA 
HETATM    6  N   UNL     1     -10.716   5.580  72.804  1.00  0.00    -0.230 NA 
HETATM    7  H2  UNL     1     -11.172   5.577  73.716  1.00  0.00     0.000 HD 
HETATM    8  H1  UNL     1     -10.572   6.404  72.220  1.00  0.00     0.000 HD 
HETATM    9  H   UNL     1      -9.321   3.479  70.682  1.00  0.00     0.000 HD 
ENDROOT
BRANCH   5  10
HETATM   10  C   UNL     1      -9.447   5.511  70.291  1.00  0.00    -0.165 A  
HETATM   11  N   UNL     1     -10.348   6.225  69.634  1.00  0.00    -0.198 NA 
HETATM   12  C   UNL     1      -9.758   7.323  69.012  1.00  0.00    -0.152 A  
HETATM   13  S   UNL     1      -7.839   6.145  70.187  1.00  0.00    -0.104 SA 
HETATM   14  C   UNL     1      -8.392   7.414  69.190  1.00  0.00    -0.132 A  
BRANCH  12  15
HETATM   15  C   UNL     1     -10.620   8.262  68.229  1.00  0.00    -0.103 C  
BRANCH  15  16
HETATM   16  S   UNL     1     -10.091   9.991  68.492  1.00  0.00    -0.178 SA 
BRANCH  16  17
HETATM   17  C   UNL     1     -10.052  10.597  66.768  1.00  0.00    -0.224 C  
BRANCH  17  18
HETATM   18  C   UNL     1      -9.479  11.998  66.590  1.00  0.00    -0.222 C  
BRANCH  18  19
HETATM   19  C   UNL     1     -10.439  12.946  65.870  1.00  0.00    -0.279 C  
HETATM   20  H2  UNL     1      -9.046  14.516  65.928  1.00  0.00     0.000 HD 
HETATM   21  N   UNL     1      -9.977  14.219  65.637  1.00  0.00    -0.421 NA 
HETATM   22  H1  UNL     1     -10.618  14.852  65.157  1.00  0.00     0.000 HD 
BRANCH  19  23
HETATM   23  N   UNL     1     -11.585  12.444  65.547  1.00  0.00    -0.369 N  
HETATM   24  H   UNL     1     -12.148  11.979  66.259  1.00  0.00     0.000 HD 
BRANCH  23  25
HETATM   25  S   UNL     1     -12.135  12.542  64.036  1.00  0.00    -0.514 S  
HETATM   26  O   UNL     1     -13.461  11.975  63.968  1.00  0.00    -0.655 OA 
HETATM   27  O   UNL     1     -11.091  12.131  63.128  1.00  0.00    -0.359 OA 
HETATM   28  N   UNL     1     -12.343  14.183  63.768  1.00  0.00    -1.027 N  
HETATM   29  H1  UNL     1     -12.691  14.245  62.812  1.00  0.00     0.000 HD 
HETATM   30  H2  UNL     1     -12.161  14.949  64.416  1.00  0.00     0.000 HD 
ENDBRANCH  23  25
ENDBRANCH  19  23
ENDBRANCH  18  19
ENDBRANCH  17  18
ENDBRANCH  16  17
ENDBRANCH  15  16
ENDBRANCH  12  15
ENDBRANCH   5  10
TORSDOF 8
ENDMDL
MODEL      238
REMARK 921   NORMALIZED FREE ENERGY PREDICTED BY IDOCK:   -3.79 KCAL/MOL
REMARK 922        TOTAL FREE ENERGY PREDICTED BY IDOCK:   -6.74 KCAL/MOL
REMARK 923 INTER-LIGAND FREE ENERGY PREDICTED BY IDOCK:   -5.82 KCAL/MOL
REMARK 924 INTRA-LIGAND FREE ENERGY PREDICTED BY IDOCK:   -0.92 KCAL/MOL
REMARK 927      BINDING AFFINITY PREDICTED BY RF-SCORE:    0.00 PKD
ROOT
HETATM    1  N   UNL     1      -9.887  20.225  66.213  1.00  0.00    -0.618 NA 
HETATM    2  C   UNL     1     -10.050  18.969  66.695  1.00  0.00    -0.392 C  
HETATM    3  H2  UNL     1     -10.018  21.084  66.746  1.00  0.00     0.000 HD 
HETATM    4  H1  UNL     1      -9.611  20.176  65.232  1.00  0.00     0.000 HD 
HETATM    5  N   UNL     1      -9.842  17.945  65.942  1.00  0.00    -0.551 NA 
HETATM    6  N   UNL     1     -10.417  19.034  68.000  1.00  0.00    -0.377 NA 
HETATM    7  H2  UNL     1     -10.548  19.893  68.534  1.00  0.00     0.000 HD 
HETATM    8  H1  UNL     1     -10.540  18.089  68.364  1.00  0.00     0.000 HD 
HETATM    9  H   UNL     1      -9.542  18.063  64.974  1.00  0.00     0.000 HD 
ENDROOT
BRANCH   5  10
HETATM   10  C   UNL     1     -10.032  16.706  66.463  1.00  0.00    -0.285 A  
HETATM   11  N   UNL     1     -11.165  16.129  66.834  1.00  0.00     0.019 NA 
HETATM   12  C   UNL     1     -10.937  14.839  67.304  1.00  0.00    -0.318 A  
HETATM   13  S   UNL     1      -8.636  15.700  66.663  1.00  0.00    -0.306 SA 
HETATM   14  C   UNL     1      -9.611  14.456  67.304  1.00  0.00    -0.227 A  
BRANCH  12  15
HETATM   15  C   UNL     1     -12.102  14.017  67.760  1.00  0.00    -0.290 C  
BRANCH  15  16
HETATM   16  S   UNL     1     -11.949  13.614  69.536  1.00  0.00    -0.330 SA 
BRANCH  16  17
HETATM   17  C   UNL     1     -12.152  11.798  69.488  1.00  0.00    -0.250 C  
BRANCH  17  18
HETATM   18  C   UNL     1     -10.895  11.000  69.812  1.00  0.00    -0.205 C  
BRANCH  18  19
HETATM   19  C   UNL     1     -11.169   9.507  69.993  1.00  0.00    -0.209 C  
HETATM   20  H2  UNL     1     -12.536   9.872  71.544  1.00  0.00     0.000 HD 
HETATM   21  N   UNL     1     -12.073   9.167  70.970  1.00  0.00    -0.363 NA 
HETATM   22  H1  UNL     1     -12.255   8.170  71.091  1.00  0.00     0.000 HD 
BRANCH  19  23
HETATM   23  N   UNL     1     -10.525   8.719  69.196  1.00  0.00    -0.224 N  
HETATM   24  H   UNL     1     -10.135   9.090  68.329  1.00  0.00     0.000 HD 
BRANCH  23  25
HETATM   25  S   UNL     1     -10.328   7.161  69.553  1.00  0.00    -0.221 S  
HETATM   26  O   UNL     1     -11.570   6.456  69.339  1.00  0.00    -0.382 OA 
HETATM   27  O   UNL     1      -9.605   7.052  70.798  1.00  0.00    -0.165 OA 
HETATM   28  N   UNL     1      -9.285   6.586  68.375  1.00  0.00    -0.122 N  
HETATM   29  H1  UNL     1      -9.161   5.599  68.601  1.00  0.00     0.000 HD 
HETATM   30  H2  UNL     1      -8.867   7.106  67.604  1.00  0.00     0.000 HD 
ENDBRANCH  23  25
ENDBRANCH  19  23
ENDBRANCH  18  19
ENDBRANCH  17  18
ENDBRANCH  16  17
ENDBRANCH  15  16
ENDBRANCH  12  15
ENDBRANCH   5  10
TORSDOF 8
ENDMDL
MODEL      239
REMARK 921   NORMALIZED FREE ENERGY PREDICTED BY IDOCK:   -3.78 KCAL/MOL
REMARK 922        TOTAL FREE ENERGY PREDICTED BY IDOCK:   -6.73 KCAL/MOL
REMARK 923 INTER-LIGAND FREE ENERGY PREDICTED BY IDOCK:   -5.67 KCAL/MOL
REMARK 924 INTRA-LIGAND FREE ENERGY PREDICTED BY IDOCK:   -1.05 KCAL/MOL
REMARK 927      BINDING AFFINITY PREDICTED BY RF-SCORE:    0.00 PKD
ROOT
HETATM    1  N   UNL     1     -13.666  15.479  70.752  1.00  0.00    -0.859 NA 
HETATM    2  C   UNL     1     -12.907  14.366  70.613  1.00  0.00    -0.328 C  
HETATM    3  H2  UNL     1     -13.990  15.865  71.639  1.00  0.00     0.000 HD 
HETATM    4  H1  UNL     1     -13.864  15.871  69.832  1.00  0.00     0.000 HD 
HETATM    5  N   UNL     1     -12.534  13.969  69.445  1.00  0.00    -0.451 NA 
HETATM    6  N   UNL     1     -12.644  13.844  71.837  1.00  0.00    -0.268 NA 
HETATM    7  H2  UNL     1     -12.967  14.230  72.724  1.00  0.00     0.000 HD 
HETATM    8  H1  UNL     1     -12.072  13.007  71.732  1.00  0.00     0.000 HD 
HETATM    9  H   UNL     1     -12.797  14.492  68.609  1.00  0.00     0.000 HD 
ENDROOT
BRANCH   5  10
HETATM   10  C   UNL     1     -11.785  12.841  69.350  1.00  0.00    -0.319 A  
HETATM   11  N   UNL     1     -12.022  11.646  69.870  1.00  0.00    -0.332 NA 
HETATM   12  C   UNL     1     -11.017  10.745  69.526  1.00  0.00    -0.266 A  
HETATM   13  S   UNL     1     -10.331  12.922  68.413  1.00  0.00    -0.231 SA 
HETATM   14  C   UNL     1     -10.005  11.283  68.757  1.00  0.00    -0.193 A  
BRANCH  12  15
HETATM   15  C   UNL     1     -11.113   9.332  70.011  1.00  0.00    -0.205 C  
BRANCH  15  16
HETATM   16  S   UNL     1     -11.964   9.262  71.626  1.00  0.00    -0.395 SA 
BRANCH  16  17
HETATM   17  C   UNL     1     -12.234   7.462  71.787  1.00  0.00    -0.326 C  
BRANCH  17  18
HETATM   18  C   UNL     1     -11.823   6.638  70.573  1.00  0.00    -0.430 C  
BRANCH  18  19
HETATM   19  C   UNL     1     -10.580   5.786  70.825  1.00  0.00    -0.269 C  
HETATM   20  H2  UNL     1      -9.887   6.088  68.866  1.00  0.00     0.000 HD 
HETATM   21  N   UNL     1      -9.711   5.646  69.769  1.00  0.00    -0.157 NA 
HETATM   22  H1  UNL     1      -8.882   5.077  69.937  1.00  0.00     0.000 HD 
BRANCH  19  23
HETATM   23  N   UNL     1     -10.471   5.292  72.014  1.00  0.00    -0.218 N  
HETATM   24  H   UNL     1     -11.232   5.419  72.682  1.00  0.00     0.000 HD 
BRANCH  23  25
HETATM   25  S   UNL     1      -9.153   4.478  72.455  1.00  0.00    -0.124 S  
HETATM   26  O   UNL     1      -9.015   3.300  71.632  1.00  0.00    -0.090 OA 
HETATM   27  O   UNL     1      -9.110   4.400  73.896  1.00  0.00    -0.105 OA 
HETATM   28  N   UNL     1      -7.877   5.473  72.021  1.00  0.00    -0.105 N  
HETATM   29  H1  UNL     1      -7.043   4.958  72.301  1.00  0.00     0.000 HD 
HETATM   30  H2  UNL     1      -7.924   6.390  71.576  1.00  0.00     0.000 HD 
ENDBRANCH  23  25
ENDBRANCH  19  23
ENDBRANCH  18  19
ENDBRANCH  17  18
ENDBRANCH  16  17
ENDBRANCH  15  16
ENDBRANCH  12  15
ENDBRANCH   5  10
TORSDOF 8
ENDMDL
MODEL      240
REMARK 921   NORMALIZED FREE ENERGY PREDICTED BY IDOCK:   -3.77 KCAL/MOL
REMARK 922        TOTAL FREE ENERGY PREDICTED BY IDOCK:   -6.71 KCAL/MOL
REMARK 923 INTER-LIGAND FREE ENERGY PREDICTED BY IDOCK:   -5.88 KCAL/MOL
REMARK 924 INTRA-LIGAND FREE ENERGY PREDICTED BY IDOCK:   -0.83 KCAL/MOL
REMARK 927      BINDING AFFINITY PREDICTED BY RF-SCORE:    0.00 PKD
ROOT
HETATM    1  N   UNL     1     -13.127  15.425  70.819  1.00  0.00    -0.621 NA 
HETATM    2  C   UNL     1     -12.399  14.696  69.939  1.00  0.00    -0.294 C  
HETATM    3  H2  UNL     1     -13.220  15.226  71.815  1.00  0.00     0.000 HD 
HETATM    4  H1  UNL     1     -13.567  16.203  70.330  1.00  0.00     0.000 HD 
HETATM    5  N   UNL     1     -12.331  15.042  68.700  1.00  0.00    -0.589 NA 
HETATM    6  N   UNL     1     -11.813  13.659  70.589  1.00  0.00    -0.522 NA 
HETATM    7  H2  UNL     1     -11.906  13.460  71.585  1.00  0.00     0.000 HD 
HETATM    8  H1  UNL     1     -11.264  13.111  69.927  1.00  0.00     0.000 HD 
HETATM    9  H   UNL     1     -12.815  15.875  68.364  1.00  0.00     0.000 HD 
ENDROOT
BRANCH   5  10
HETATM   10  C   UNL     1     -11.601  14.275  67.850  1.00  0.00    -0.336 A  
HETATM   11  N   UNL     1     -10.424  13.705  68.054  1.00  0.00    -0.242 NA 
HETATM   12  C   UNL     1     -10.018  12.982  66.936  1.00  0.00    -0.243 A  
HETATM   13  S   UNL     1     -12.273  13.953  66.286  1.00  0.00    -0.449 SA 
HETATM   14  C   UNL     1     -10.897  13.033  65.873  1.00  0.00    -0.272 A  
BRANCH  12  15
HETATM   15  C   UNL     1      -8.712  12.252  66.978  1.00  0.00    -0.199 C  
BRANCH  15  16
HETATM   16  S   UNL     1      -8.925  10.522  66.427  1.00  0.00    -0.163 SA 
BRANCH  16  17
HETATM   17  C   UNL     1      -8.329   9.624  67.902  1.00  0.00    -0.117 C  
BRANCH  17  18
HETATM   18  C   UNL     1      -8.936   8.240  68.103  1.00  0.00    -0.139 C  
BRANCH  18  19
HETATM   19  C   UNL     1      -9.635   8.088  69.453  1.00  0.00    -0.160 C  
HETATM   20  H2  UNL     1     -10.552   9.968  69.272  1.00  0.00     0.000 HD 
HETATM   21  N   UNL     1     -10.433   9.135  69.848  1.00  0.00    -0.214 NA 
HETATM   22  H1  UNL     1     -10.900   9.034  70.750  1.00  0.00     0.000 HD 
BRANCH  19  23
HETATM   23  N   UNL     1      -9.409   6.981  70.079  1.00  0.00    -0.158 N  
HETATM   24  H   UNL     1      -8.496   6.821  70.505  1.00  0.00     0.000 HD 
BRANCH  23  25
HETATM   25  S   UNL     1     -10.549   5.848  70.197  1.00  0.00    -0.317 S  
HETATM   26  O   UNL     1     -10.200   4.723  69.363  1.00  0.00    -0.210 OA 
HETATM   27  O   UNL     1     -11.846   6.477  70.112  1.00  0.00    -0.416 OA 
HETATM   28  N   UNL     1     -10.426   5.287  71.771  1.00  0.00    -0.217 N  
HETATM   29  H1  UNL     1     -11.147   4.570  71.845  1.00  0.00     0.000 HD 
HETATM   30  H2  UNL     1      -9.774   5.593  72.493  1.00  0.00     0.000 HD 
ENDBRANCH  23  25
ENDBRANCH  19  23
ENDBRANCH  18  19
ENDBRANCH  17  18
ENDBRANCH  16  17
ENDBRANCH  15  16
ENDBRANCH  12  15
ENDBRANCH   5  10
TORSDOF 8
ENDMDL
MODEL      241
REMARK 921   NORMALIZED FREE ENERGY PREDICTED BY IDOCK:   -3.77 KCAL/MOL
REMARK 922        TOTAL FREE ENERGY PREDICTED BY IDOCK:   -6.71 KCAL/MOL
REMARK 923 INTER-LIGAND FREE ENERGY PREDICTED BY IDOCK:   -5.11 KCAL/MOL
REMARK 924 INTRA-LIGAND FREE ENERGY PREDICTED BY IDOCK:   -1.60 KCAL/MOL
REMARK 927      BINDING AFFINITY PREDICTED BY RF-SCORE:    0.00 PKD
ROOT
HETATM    1  N   UNL     1      -6.205  11.897  66.305  1.00  0.00    -0.447 NA 
HETATM    2  C   UNL     1      -7.427  11.783  66.880  1.00  0.00    -0.106 C  
HETATM    3  H2  UNL     1      -6.029  12.219  65.354  1.00  0.00     0.000 HD 
HETATM    4  H1  UNL     1      -5.491  11.609  66.972  1.00  0.00     0.000 HD 
HETATM    5  N   UNL     1      -7.543  11.381  68.098  1.00  0.00    -0.107 NA 
HETATM    6  N   UNL     1      -8.379  12.166  65.992  1.00  0.00    -0.274 NA 
HETATM    7  H2  UNL     1      -8.202  12.489  65.041  1.00  0.00     0.000 HD 
HETATM    8  H1  UNL     1      -9.299  12.081  66.425  1.00  0.00     0.000 HD 
HETATM    9  H   UNL     1      -6.718  11.151  68.652  1.00  0.00     0.000 HD 
ENDROOT
BRANCH   5  10
HETATM   10  C   UNL     1      -8.787  11.269  68.630  1.00  0.00    -0.141 A  
HETATM   11  N   UNL     1      -9.789  12.134  68.579  1.00  0.00    -0.195 NA 
HETATM   12  C   UNL     1     -10.912  11.636  69.236  1.00  0.00    -0.192 A  
HETATM   13  S   UNL     1      -9.167   9.806  69.475  1.00  0.00    -0.226 SA 
HETATM   14  C   UNL     1     -10.736  10.391  69.804  1.00  0.00    -0.278 A  
BRANCH  12  15
HETATM   15  C   UNL     1     -12.156  12.467  69.275  1.00  0.00    -0.165 C  
BRANCH  15  16
HETATM   16  S   UNL     1     -12.030  13.754  70.567  1.00  0.00    -0.252 SA 
BRANCH  16  17
HETATM   17  C   UNL     1     -12.237  15.263  69.559  1.00  0.00    -0.239 C  
BRANCH  17  18
HETATM   18  C   UNL     1     -11.614  15.201  68.169  1.00  0.00    -0.358 C  
BRANCH  18  19
HETATM   19  C   UNL     1     -10.156  15.662  68.149  1.00  0.00    -0.222 C  
HETATM   20  H2  UNL     1      -9.623  14.154  66.789  1.00  0.00     0.000 HD 
HETATM   21  N   UNL     1      -9.302  14.948  67.344  1.00  0.00    -0.196 NA 
HETATM   22  H1  UNL     1      -8.329  15.255  67.331  1.00  0.00     0.000 HD 
BRANCH  19  23
HETATM   23  N   UNL     1      -9.882  16.686  68.889  1.00  0.00    -0.251 N  
HETATM   24  H   UNL     1      -9.906  16.593  69.905  1.00  0.00     0.000 HD 
BRANCH  23  25
HETATM   25  S   UNL     1      -9.504  18.106  68.229  1.00  0.00    -0.319 S  
HETATM   26  O   UNL     1     -10.051  18.180  66.896  1.00  0.00    -0.322 OA 
HETATM   27  O   UNL     1      -8.112  18.389  68.490  1.00  0.00    -0.308 OA 
HETATM   28  N   UNL     1     -10.366  19.230  69.124  1.00  0.00    -0.514 N  
HETATM   29  H1  UNL     1     -10.126  20.129  68.706  1.00  0.00     0.000 HD 
HETATM   30  H2  UNL     1     -10.991  19.055  69.910  1.00  0.00     0.000 HD 
ENDBRANCH  23  25
ENDBRANCH  19  23
ENDBRANCH  18  19
ENDBRANCH  17  18
ENDBRANCH  16  17
ENDBRANCH  15  16
ENDBRANCH  12  15
ENDBRANCH   5  10
TORSDOF 8
ENDMDL
MODEL      242
REMARK 921   NORMALIZED FREE ENERGY PREDICTED BY IDOCK:   -3.76 KCAL/MOL
REMARK 922        TOTAL FREE ENERGY PREDICTED BY IDOCK:   -6.70 KCAL/MOL
REMARK 923 INTER-LIGAND FREE ENERGY PREDICTED BY IDOCK:   -5.67 KCAL/MOL
REMARK 924 INTRA-LIGAND FREE ENERGY PREDICTED BY IDOCK:   -1.03 KCAL/MOL
REMARK 927      BINDING AFFINITY PREDICTED BY RF-SCORE:    0.00 PKD
ROOT
HETATM    1  N   UNL     1      -5.131  13.239  69.452  1.00  0.00    -0.075 NA 
HETATM    2  C   UNL     1      -6.125  13.990  68.918  1.00  0.00    -0.086 C  
HETATM    3  H2  UNL     1      -5.239  12.584  70.226  1.00  0.00     0.000 HD 
HETATM    4  H1  UNL     1      -4.260  13.433  68.959  1.00  0.00     0.000 HD 
HETATM    5  N   UNL     1      -5.889  14.778  67.926  1.00  0.00    -0.200 NA 
HETATM    6  N   UNL     1      -7.285  13.733  69.573  1.00  0.00    -0.325 NA 
HETATM    7  H2  UNL     1      -7.392  13.077  70.347  1.00  0.00     0.000 HD 
HETATM    8  H1  UNL     1      -8.033  14.297  69.170  1.00  0.00     0.000 HD 
HETATM    9  H   UNL     1      -4.955  14.842  67.522  1.00  0.00     0.000 HD 
ENDROOT
BRANCH   5  10
HETATM   10  C   UNL     1      -6.912  15.522  67.430  1.00  0.00    -0.198 A  
HETATM   11  N   UNL     1      -8.071  15.111  66.938  1.00  0.00    -0.203 NA 
HETATM   12  C   UNL     1      -8.858  16.191  66.549  1.00  0.00    -0.296 A  
HETATM   13  S   UNL     1      -6.729  17.244  67.447  1.00  0.00    -0.160 SA 
HETATM   14  C   UNL     1      -8.268  17.425  66.733  1.00  0.00    -0.249 A  
BRANCH  12  15
HETATM   15  C   UNL     1     -10.217  15.929  65.978  1.00  0.00    -0.334 C  
BRANCH  15  16
HETATM   16  S   UNL     1     -11.502  16.115  67.264  1.00  0.00     0.373 SA 
BRANCH  16  17
HETATM   17  C   UNL     1     -10.961  14.848  68.465  1.00  0.00    -0.255 C  
BRANCH  17  18
HETATM   18  C   UNL     1     -10.787  15.347  69.894  1.00  0.00    -0.305 C  
BRANCH  18  19
HETATM   19  C   UNL     1     -11.917  14.901  70.822  1.00  0.00    -0.314 C  
HETATM   20  H2  UNL     1     -12.860  13.834  69.278  1.00  0.00     0.000 HD 
HETATM   21  N   UNL     1     -12.890  14.109  70.260  1.00  0.00    -0.382 NA 
HETATM   22  H1  UNL     1     -13.645  13.811  70.879  1.00  0.00     0.000 HD 
BRANCH  19  23
HETATM   23  N   UNL     1     -11.832  15.309  72.045  1.00  0.00    -0.399 N  
HETATM   24  H   UNL     1     -10.964  15.732  72.374  1.00  0.00     0.000 HD 
BRANCH  23  25
HETATM   25  S   UNL     1     -13.077  15.159  73.056  1.00  0.00    -0.528 S  
HETATM   26  O   UNL     1     -13.325  13.761  73.313  1.00  0.00    -0.463 OA 
HETATM   27  O   UNL     1     -14.135  16.047  72.633  1.00  0.00    -0.468 OA 
HETATM   28  N   UNL     1     -12.521  15.783  74.507  1.00  0.00    -0.800 N  
HETATM   29  H1  UNL     1     -13.309  15.688  75.147  1.00  0.00     0.000 HD 
HETATM   30  H2  UNL     1     -11.598  16.171  74.707  1.00  0.00     0.000 HD 
ENDBRANCH  23  25
ENDBRANCH  19  23
ENDBRANCH  18  19
ENDBRANCH  17  18
ENDBRANCH  16  17
ENDBRANCH  15  16
ENDBRANCH  12  15
ENDBRANCH   5  10
TORSDOF 8
ENDMDL
MODEL      243
REMARK 921   NORMALIZED FREE ENERGY PREDICTED BY IDOCK:   -3.76 KCAL/MOL
REMARK 922        TOTAL FREE ENERGY PREDICTED BY IDOCK:   -6.69 KCAL/MOL
REMARK 923 INTER-LIGAND FREE ENERGY PREDICTED BY IDOCK:   -5.92 KCAL/MOL
REMARK 924 INTRA-LIGAND FREE ENERGY PREDICTED BY IDOCK:   -0.77 KCAL/MOL
REMARK 927      BINDING AFFINITY PREDICTED BY RF-SCORE:    0.00 PKD
ROOT
HETATM    1  N   UNL     1     -10.009   3.241  64.715  1.00  0.00    -0.344 NA 
HETATM    2  C   UNL     1     -10.167   4.343  65.488  1.00  0.00    -0.241 C  
HETATM    3  H2  UNL     1     -10.750   2.778  64.189  1.00  0.00     0.000 HD 
HETATM    4  H1  UNL     1      -9.033   2.948  64.742  1.00  0.00     0.000 HD 
HETATM    5  N   UNL     1      -9.161   4.864  66.100  1.00  0.00    -0.129 NA 
HETATM    6  N   UNL     1     -11.466   4.734  65.453  1.00  0.00    -1.023 NA 
HETATM    7  H2  UNL     1     -12.207   4.271  64.927  1.00  0.00     0.000 HD 
HETATM    8  H1  UNL     1     -11.585   5.564  66.034  1.00  0.00     0.000 HD 
HETATM    9  H   UNL     1      -8.228   4.462  66.005  1.00  0.00     0.000 HD 
ENDROOT
BRANCH   5  10
HETATM   10  C   UNL     1      -9.367   5.960  66.874  1.00  0.00    -0.129 A  
HETATM   11  N   UNL     1      -9.937   7.110  66.546  1.00  0.00    -0.151 NA 
HETATM   12  C   UNL     1      -9.975   7.977  67.634  1.00  0.00    -0.180 A  
HETATM   13  S   UNL     1      -8.855   5.879  68.527  1.00  0.00    -0.110 SA 
HETATM   14  C   UNL     1      -9.403   7.474  68.786  1.00  0.00    -0.147 A  
BRANCH  12  15
HETATM   15  C   UNL     1     -10.596   9.328  67.464  1.00  0.00    -0.262 C  
BRANCH  15  16
HETATM   16  S   UNL     1      -9.856  10.202  66.040  1.00  0.00    -0.260 SA 
BRANCH  16  17
HETATM   17  C   UNL     1     -10.880  11.715  66.004  1.00  0.00    -0.289 C  
BRANCH  17  18
HETATM   18  C   UNL     1     -10.482  12.786  67.013  1.00  0.00    -0.245 C  
BRANCH  18  19
HETATM   19  C   UNL     1     -11.219  14.108  66.799  1.00  0.00    -0.323 C  
HETATM   20  H2  UNL     1     -13.049  13.122  66.499  1.00  0.00     0.000 HD 
HETATM   21  N   UNL     1     -12.567  14.020  66.543  1.00  0.00    -0.503 NA 
HETATM   22  H1  UNL     1     -13.059  14.902  66.399  1.00  0.00     0.000 HD 
BRANCH  19  23
HETATM   23  N   UNL     1     -10.495  15.174  66.891  1.00  0.00    -0.277 N  
HETATM   24  H   UNL     1      -9.746  15.332  66.217  1.00  0.00     0.000 HD 
BRANCH  23  25
HETATM   25  S   UNL     1     -10.760  16.257  68.054  1.00  0.00    -0.337 S  
HETATM   26  O   UNL     1     -11.952  15.898  68.785  1.00  0.00    -0.368 OA 
HETATM   27  O   UNL     1     -10.579  17.582  67.511  1.00  0.00    -0.358 OA 
HETATM   28  N   UNL     1      -9.497  16.036  69.132  1.00  0.00    -0.241 N  
HETATM   29  H1  UNL     1      -9.665  16.722  69.868  1.00  0.00     0.000 HD 
HETATM   30  H2  UNL     1      -8.731  15.366  69.067  1.00  0.00     0.000 HD 
ENDBRANCH  23  25
ENDBRANCH  19  23
ENDBRANCH  18  19
ENDBRANCH  17  18
ENDBRANCH  16  17
ENDBRANCH  15  16
ENDBRANCH  12  15
ENDBRANCH   5  10
TORSDOF 8
ENDMDL
MODEL      244
REMARK 921   NORMALIZED FREE ENERGY PREDICTED BY IDOCK:   -3.75 KCAL/MOL
REMARK 922        TOTAL FREE ENERGY PREDICTED BY IDOCK:   -6.68 KCAL/MOL
REMARK 923 INTER-LIGAND FREE ENERGY PREDICTED BY IDOCK:   -5.81 KCAL/MOL
REMARK 924 INTRA-LIGAND FREE ENERGY PREDICTED BY IDOCK:   -0.88 KCAL/MOL
REMARK 927      BINDING AFFINITY PREDICTED BY RF-SCORE:    0.00 PKD
ROOT
HETATM    1  N   UNL     1     -11.288   6.018  72.173  1.00  0.00    -0.289 NA 
HETATM    2  C   UNL     1     -10.775   6.563  71.043  1.00  0.00    -0.243 C  
HETATM    3  H2  UNL     1     -10.749   5.749  72.995  1.00  0.00     0.000 HD 
HETATM    4  H1  UNL     1     -12.298   5.919  72.072  1.00  0.00     0.000 HD 
HETATM    5  N   UNL     1     -11.547   6.886  70.063  1.00  0.00    -0.550 NA 
HETATM    6  N   UNL     1      -9.432   6.695  71.177  1.00  0.00    -0.164 NA 
HETATM    7  H2  UNL     1      -8.892   6.425  72.000  1.00  0.00     0.000 HD 
HETATM    8  H1  UNL     1      -9.046   7.106  70.328  1.00  0.00     0.000 HD 
HETATM    9  H   UNL     1     -12.555   6.746  70.126  1.00  0.00     0.000 HD 
ENDROOT
BRANCH   5  10
HETATM   10  C   UNL     1     -10.989   7.418  68.945  1.00  0.00     0.029 A  
HETATM   11  N   UNL     1     -10.524   8.643  68.755  1.00  0.00    -0.209 NA 
HETATM   12  C   UNL     1     -10.013   8.788  67.468  1.00  0.00    -0.198 A  
HETATM   13  S   UNL     1     -10.821   6.383  67.566  1.00  0.00    -0.367 SA 
HETATM   14  C   UNL     1     -10.119   7.661  66.680  1.00  0.00    -0.208 A  
BRANCH  12  15
HETATM   15  C   UNL     1      -9.426  10.105  67.065  1.00  0.00    -0.167 C  
BRANCH  15  16
HETATM   16  S   UNL     1     -10.682  11.428  67.172  1.00  0.00    -0.263 SA 
BRANCH  16  17
HETATM   17  C   UNL     1     -11.144  11.595  65.412  1.00  0.00    -0.239 C  
BRANCH  17  18
HETATM   18  C   UNL     1     -10.416  12.700  64.656  1.00  0.00    -0.361 C  
BRANCH  18  19
HETATM   19  C   UNL     1     -11.120  14.053  64.754  1.00  0.00    -0.387 C  
HETATM   20  H2  UNL     1     -12.984  13.140  65.076  1.00  0.00     0.000 HD 
HETATM   21  N   UNL     1     -12.476  14.019  64.980  1.00  0.00    -0.560 NA 
HETATM   22  H1  UNL     1     -12.947  14.922  65.045  1.00  0.00     0.000 HD 
BRANCH  19  23
HETATM   23  N   UNL     1     -10.362  15.091  64.624  1.00  0.00    -0.463 N  
HETATM   24  H   UNL     1     -10.014  15.346  63.699  1.00  0.00     0.000 HD 
BRANCH  23  25
HETATM   25  S   UNL     1      -9.957  15.986  65.901  1.00  0.00    -0.364 S  
HETATM   26  O   UNL     1      -8.519  16.049  66.009  1.00  0.00    -0.302 OA 
HETATM   27  O   UNL     1     -10.781  15.604  67.023  1.00  0.00    -0.313 OA 
HETATM   28  N   UNL     1     -10.438  17.539  65.498  1.00  0.00    -0.188 N  
HETATM   29  H1  UNL     1     -10.182  18.105  66.306  1.00  0.00     0.000 HD 
HETATM   30  H2  UNL     1     -10.888  17.849  64.636  1.00  0.00     0.000 HD 
ENDBRANCH  23  25
ENDBRANCH  19  23
ENDBRANCH  18  19
ENDBRANCH  17  18
ENDBRANCH  16  17
ENDBRANCH  15  16
ENDBRANCH  12  15
ENDBRANCH   5  10
TORSDOF 8
ENDMDL
MODEL      245
REMARK 921   NORMALIZED FREE ENERGY PREDICTED BY IDOCK:   -3.75 KCAL/MOL
REMARK 922        TOTAL FREE ENERGY PREDICTED BY IDOCK:   -6.68 KCAL/MOL
REMARK 923 INTER-LIGAND FREE ENERGY PREDICTED BY IDOCK:   -5.75 KCAL/MOL
REMARK 924 INTRA-LIGAND FREE ENERGY PREDICTED BY IDOCK:   -0.92 KCAL/MOL
REMARK 927      BINDING AFFINITY PREDICTED BY RF-SCORE:    0.00 PKD
ROOT
HETATM    1  N   UNL     1     -10.084   2.641  64.906  1.00  0.00    -0.338 NA 
HETATM    2  C   UNL     1      -9.978   3.989  64.999  1.00  0.00    -0.201 C  
HETATM    3  H2  UNL     1     -10.957   2.123  64.806  1.00  0.00     0.000 HD 
HETATM    4  H1  UNL     1      -9.154   2.226  64.951  1.00  0.00     0.000 HD 
HETATM    5  N   UNL     1      -8.823   4.549  65.105  1.00  0.00    -0.137 NA 
HETATM    6  N   UNL     1     -11.215   4.542  64.938  1.00  0.00    -0.992 NA 
HETATM    7  H2  UNL     1     -12.088   4.024  64.838  1.00  0.00     0.000 HD 
HETATM    8  H1  UNL     1     -11.136   5.556  65.007  1.00  0.00     0.000 HD 
HETATM    9  H   UNL     1      -7.970   3.989  65.111  1.00  0.00     0.000 HD 
ENDROOT
BRANCH   5  10
HETATM   10  C   UNL     1      -8.764   5.902  65.209  1.00  0.00    -0.072 A  
HETATM   11  N   UNL     1      -9.343   6.688  66.104  1.00  0.00    -0.109 NA 
HETATM   12  C   UNL     1      -9.020   8.023  65.878  1.00  0.00    -0.137 A  
HETATM   13  S   UNL     1      -7.795   6.751  64.052  1.00  0.00    -0.078 SA 
HETATM   14  C   UNL     1      -8.206   8.237  64.783  1.00  0.00    -0.144 A  
BRANCH  12  15
HETATM   15  C   UNL     1      -9.570   9.068  66.797  1.00  0.00    -0.200 C  
BRANCH  15  16
HETATM   16  S   UNL     1     -10.131   8.315  68.365  1.00  0.00    -0.205 SA 
BRANCH  16  17
HETATM   17  C   UNL     1      -9.769   9.669  69.537  1.00  0.00    -0.203 C  
BRANCH  17  18
HETATM   18  C   UNL     1      -9.665  11.054  68.910  1.00  0.00    -0.184 C  
BRANCH  18  19
HETATM   19  C   UNL     1     -10.999  11.801  68.892  1.00  0.00    -0.239 C  
HETATM   20  H2  UNL     1     -10.742  12.453  70.872  1.00  0.00     0.000 HD 
HETATM   21  N   UNL     1     -11.343  12.461  70.048  1.00  0.00    -0.507 NA 
HETATM   22  H1  UNL     1     -12.233  12.959  70.037  1.00  0.00     0.000 HD 
BRANCH  19  23
HETATM   23  N   UNL     1     -11.660  11.741  67.784  1.00  0.00    -0.313 N  
HETATM   24  H   UNL     1     -12.126  10.872  67.523  1.00  0.00     0.000 HD 
BRANCH  23  25
HETATM   25  S   UNL     1     -11.758  13.019  66.808  1.00  0.00    -0.388 S  
HETATM   26  O   UNL     1     -12.138  14.183  67.573  1.00  0.00    -0.395 OA 
HETATM   27  O   UNL     1     -12.468  12.641  65.609  1.00  0.00    -0.622 OA 
HETATM   28  N   UNL     1     -10.180  13.304  66.324  1.00  0.00    -0.289 N  
HETATM   29  H1  UNL     1     -10.242  14.113  65.707  1.00  0.00     0.000 HD 
HETATM   30  H2  UNL     1      -9.342  12.784  66.589  1.00  0.00     0.000 HD 
ENDBRANCH  23  25
ENDBRANCH  19  23
ENDBRANCH  18  19
ENDBRANCH  17  18
ENDBRANCH  16  17
ENDBRANCH  15  16
ENDBRANCH  12  15
ENDBRANCH   5  10
TORSDOF 8
ENDMDL
MODEL      246
REMARK 921   NORMALIZED FREE ENERGY PREDICTED BY IDOCK:   -3.74 KCAL/MOL
REMARK 922        TOTAL FREE ENERGY PREDICTED BY IDOCK:   -6.67 KCAL/MOL
REMARK 923 INTER-LIGAND FREE ENERGY PREDICTED BY IDOCK:   -5.44 KCAL/MOL
REMARK 924 INTRA-LIGAND FREE ENERGY PREDICTED BY IDOCK:   -1.23 KCAL/MOL
REMARK 927      BINDING AFFINITY PREDICTED BY RF-SCORE:    0.00 PKD
ROOT
HETATM    1  N   UNL     1      -8.112  14.356  67.042  1.00  0.00    -0.368 NA 
HETATM    2  C   UNL     1      -8.131  13.002  67.085  1.00  0.00    -0.107 C  
HETATM    3  H2  UNL     1      -7.274  14.932  66.960  1.00  0.00     0.000 HD 
HETATM    4  H1  UNL     1      -9.066  14.708  67.105  1.00  0.00     0.000 HD 
HETATM    5  N   UNL     1      -9.247  12.364  67.172  1.00  0.00    -0.193 NA 
HETATM    6  N   UNL     1      -6.860  12.532  67.001  1.00  0.00    -0.362 NA 
HETATM    7  H2  UNL     1      -6.023  13.108  66.919  1.00  0.00     0.000 HD 
HETATM    8  H1  UNL     1      -6.874  11.512  67.032  1.00  0.00     0.000 HD 
HETATM    9  H   UNL     1     -10.133  12.868  67.201  1.00  0.00     0.000 HD 
ENDROOT
BRANCH   5  10
HETATM   10  C   UNL     1      -9.218  11.008  67.226  1.00  0.00    -0.148 A  
HETATM   11  N   UNL     1      -8.711  10.228  68.169  1.00  0.00    -0.122 NA 
HETATM   12  C   UNL     1      -8.899   8.884  67.858  1.00  0.00    -0.133 A  
HETATM   13  S   UNL     1      -9.953  10.140  65.919  1.00  0.00    -0.260 SA 
HETATM   14  C   UNL     1      -9.536   8.658  66.655  1.00  0.00    -0.221 A  
BRANCH  12  15
HETATM   15  C   UNL     1      -8.404   7.843  68.814  1.00  0.00    -0.128 C  
BRANCH  15  16
HETATM   16  S   UNL     1      -8.492   6.182  68.057  1.00  0.00    -0.116 SA 
BRANCH  16  17
HETATM   17  C   UNL     1      -9.835   5.433  69.044  1.00  0.00    -0.168 C  
BRANCH  17  18
HETATM   18  C   UNL     1     -11.157   6.191  69.013  1.00  0.00    -0.437 C  
BRANCH  18  19
HETATM   19  C   UNL     1     -11.578   6.711  70.388  1.00  0.00    -0.398 C  
HETATM   20  H2  UNL     1     -10.634   5.108  71.362  1.00  0.00     0.000 HD 
HETATM   21  N   UNL     1     -11.180   5.963  71.470  1.00  0.00    -0.257 NA 
HETATM   22  H1  UNL     1     -11.461   6.309  72.387  1.00  0.00     0.000 HD 
BRANCH  19  23
HETATM   23  N   UNL     1     -12.258   7.809  70.387  1.00  0.00    -0.420 N  
HETATM   24  H   UNL     1     -12.381   8.324  69.515  1.00  0.00     0.000 HD 
BRANCH  23  25
HETATM   25  S   UNL     1     -12.913   8.378  71.745  1.00  0.00    -0.353 S  
HETATM   26  O   UNL     1     -13.716   9.539  71.444  1.00  0.00    -0.345 OA 
HETATM   27  O   UNL     1     -11.904   8.406  72.777  1.00  0.00    -0.371 OA 
HETATM   28  N   UNL     1     -14.003   7.197  72.215  1.00  0.00    -0.535 N  
HETATM   29  H1  UNL     1     -14.418   7.557  73.074  1.00  0.00     0.000 HD 
HETATM   30  H2  UNL     1     -14.208   6.314  71.746  1.00  0.00     0.000 HD 
ENDBRANCH  23  25
ENDBRANCH  19  23
ENDBRANCH  18  19
ENDBRANCH  17  18
ENDBRANCH  16  17
ENDBRANCH  15  16
ENDBRANCH  12  15
ENDBRANCH   5  10
TORSDOF 8
ENDMDL
MODEL      247
REMARK 921   NORMALIZED FREE ENERGY PREDICTED BY IDOCK:   -3.74 KCAL/MOL
REMARK 922        TOTAL FREE ENERGY PREDICTED BY IDOCK:   -6.67 KCAL/MOL
REMARK 923 INTER-LIGAND FREE ENERGY PREDICTED BY IDOCK:   -5.76 KCAL/MOL
REMARK 924 INTRA-LIGAND FREE ENERGY PREDICTED BY IDOCK:   -0.91 KCAL/MOL
REMARK 927      BINDING AFFINITY PREDICTED BY RF-SCORE:    0.00 PKD
ROOT
HETATM    1  N   UNL     1     -10.919   3.195  63.319  1.00  0.00    -0.210 NA 
HETATM    2  C   UNL     1     -10.495   3.867  64.417  1.00  0.00    -0.224 C  
HETATM    3  H2  UNL     1     -11.885   3.140  62.998  1.00  0.00     0.000 HD 
HETATM    4  H1  UNL     1     -10.120   2.755  62.864  1.00  0.00     0.000 HD 
HETATM    5  N   UNL     1      -9.246   3.891  64.729  1.00  0.00    -0.139 NA 
HETATM    6  N   UNL     1     -11.558   4.453  65.023  1.00  0.00    -0.989 NA 
HETATM    7  H2  UNL     1     -12.525   4.397  64.702  1.00  0.00     0.000 HD 
HETATM    8  H1  UNL     1     -11.240   4.959  65.849  1.00  0.00     0.000 HD 
HETATM    9  H   UNL     1      -8.555   3.414  64.149  1.00  0.00     0.000 HD 
ENDROOT
BRANCH   5  10
HETATM   10  C   UNL     1      -8.867   4.564  65.845  1.00  0.00    -0.121 A  
HETATM   11  N   UNL     1      -8.871   4.149  67.103  1.00  0.00    -0.111 NA 
HETATM   12  C   UNL     1      -8.388   5.137  67.956  1.00  0.00    -0.097 A  
HETATM   13  S   UNL     1      -8.270   6.177  65.642  1.00  0.00    -0.146 SA 
HETATM   14  C   UNL     1      -8.041   6.316  67.328  1.00  0.00    -0.109 A  
BRANCH  12  15
HETATM   15  C   UNL     1      -8.302   4.850  69.423  1.00  0.00    -0.084 C  
BRANCH  15  16
HETATM   16  S   UNL     1      -9.956   4.948  70.195  1.00  0.00    -0.257 SA 
BRANCH  16  17
HETATM   17  C   UNL     1      -9.497   5.313  71.926  1.00  0.00    -0.146 C  
BRANCH  17  18
HETATM   18  C   UNL     1     -10.664   5.660  72.843  1.00  0.00    -0.286 C  
BRANCH  18  19
HETATM   19  C   UNL     1     -10.803   7.163  73.084  1.00  0.00    -0.335 C  
HETATM   20  H2  UNL     1      -8.727   7.396  73.290  1.00  0.00     0.000 HD 
HETATM   21  N   UNL     1      -9.636   7.858  73.295  1.00  0.00    -0.286 NA 
HETATM   22  H1  UNL     1      -9.729   8.861  73.457  1.00  0.00     0.000 HD 
BRANCH  19  23
HETATM   23  N   UNL     1     -12.009   7.626  73.055  1.00  0.00    -0.563 N  
HETATM   24  H   UNL     1     -12.624   7.478  73.856  1.00  0.00     0.000 HD 
BRANCH  23  25
HETATM   25  S   UNL     1     -12.556   8.432  71.772  1.00  0.00    -0.357 S  
HETATM   26  O   UNL     1     -11.445   8.819  70.936  1.00  0.00    -0.275 OA 
HETATM   27  O   UNL     1     -13.543   9.392  72.206  1.00  0.00    -0.447 OA 
HETATM   28  N   UNL     1     -13.401   7.290  70.884  1.00  0.00    -0.576 N  
HETATM   29  H1  UNL     1     -13.747   7.801  70.072  1.00  0.00     0.000 HD 
HETATM   30  H2  UNL     1     -13.538   6.304  71.105  1.00  0.00     0.000 HD 
ENDBRANCH  23  25
ENDBRANCH  19  23
ENDBRANCH  18  19
ENDBRANCH  17  18
ENDBRANCH  16  17
ENDBRANCH  15  16
ENDBRANCH  12  15
ENDBRANCH   5  10
TORSDOF 8
ENDMDL
MODEL      248
REMARK 921   NORMALIZED FREE ENERGY PREDICTED BY IDOCK:   -3.73 KCAL/MOL
REMARK 922        TOTAL FREE ENERGY PREDICTED BY IDOCK:   -6.66 KCAL/MOL
REMARK 923 INTER-LIGAND FREE ENERGY PREDICTED BY IDOCK:   -4.73 KCAL/MOL
REMARK 924 INTRA-LIGAND FREE ENERGY PREDICTED BY IDOCK:   -1.93 KCAL/MOL
REMARK 927      BINDING AFFINITY PREDICTED BY RF-SCORE:    0.00 PKD
ROOT
HETATM    1  N   UNL     1     -10.136   5.154  73.301  1.00  0.00    -0.166 NA 
HETATM    2  C   UNL     1     -10.874   6.268  73.078  1.00  0.00    -0.259 C  
HETATM    3  H2  UNL     1      -9.561   4.982  74.125  1.00  0.00     0.000 HD 
HETATM    4  H1  UNL     1     -10.247   4.514  72.515  1.00  0.00     0.000 HD 
HETATM    5  N   UNL     1     -11.584   6.381  72.009  1.00  0.00    -0.308 NA 
HETATM    6  N   UNL     1     -10.727   7.121  74.124  1.00  0.00    -0.541 NA 
HETATM    7  H2  UNL     1     -10.151   6.949  74.948  1.00  0.00     0.000 HD 
HETATM    8  H1  UNL     1     -11.283   7.960  73.957  1.00  0.00     0.000 HD 
HETATM    9  H   UNL     1     -11.610   5.631  71.319  1.00  0.00     0.000 HD 
ENDROOT
BRANCH   5  10
HETATM   10  C   UNL     1     -12.297   7.521  71.821  1.00  0.00    -0.326 A  
HETATM   11  N   UNL     1     -11.859   8.769  71.753  1.00  0.00    -0.319 NA 
HETATM   12  C   UNL     1     -12.910   9.656  71.531  1.00  0.00    -0.392 A  
HETATM   13  S   UNL     1     -14.010   7.368  71.613  1.00  0.00    -0.341 SA 
HETATM   14  C   UNL     1     -14.153   9.061  71.455  1.00  0.00    -0.235 A  
BRANCH  12  15
HETATM   15  C   UNL     1     -12.612  11.117  71.410  1.00  0.00    -0.374 C  
BRANCH  15  16
HETATM   16  S   UNL     1     -12.221  11.553  69.678  1.00  0.00    -0.179 SA 
BRANCH  16  17
HETATM   17  C   UNL     1     -10.554  10.822  69.517  1.00  0.00    -0.196 C  
BRANCH  17  18
HETATM   18  C   UNL     1     -10.422   9.749  68.442  1.00  0.00    -0.250 C  
BRANCH  18  19
HETATM   19  C   UNL     1      -9.358   8.702  68.774  1.00  0.00    -0.142 C  
HETATM   20  H2  UNL     1      -8.418   8.964  66.914  1.00  0.00     0.000 HD 
HETATM   21  N   UNL     1      -8.411   8.467  67.806  1.00  0.00    -0.129 NA 
HETATM   22  H1  UNL     1      -7.702   7.769  68.026  1.00  0.00     0.000 HD 
BRANCH  19  23
HETATM   23  N   UNL     1      -9.456   8.154  69.939  1.00  0.00    -0.160 N  
HETATM   24  H   UNL     1     -10.373   7.869  70.285  1.00  0.00     0.000 HD 
BRANCH  23  25
HETATM   25  S   UNL     1      -8.152   7.912  70.854  1.00  0.00    -0.104 S  
HETATM   26  O   UNL     1      -7.357   6.848  70.289  1.00  0.00    -0.080 OA 
HETATM   27  O   UNL     1      -8.547   7.904  72.242  1.00  0.00    -0.122 OA 
HETATM   28  N   UNL     1      -7.235   9.300  70.657  1.00  0.00    -0.104 N  
HETATM   29  H1  UNL     1      -6.410   9.148  71.235  1.00  0.00     0.000 HD 
HETATM   30  H2  UNL     1      -7.454  10.117  70.085  1.00  0.00     0.000 HD 
ENDBRANCH  23  25
ENDBRANCH  19  23
ENDBRANCH  18  19
ENDBRANCH  17  18
ENDBRANCH  16  17
ENDBRANCH  15  16
ENDBRANCH  12  15
ENDBRANCH   5  10
TORSDOF 8
ENDMDL
MODEL      249
REMARK 921   NORMALIZED FREE ENERGY PREDICTED BY IDOCK:   -3.72 KCAL/MOL
REMARK 922        TOTAL FREE ENERGY PREDICTED BY IDOCK:   -6.63 KCAL/MOL
REMARK 923 INTER-LIGAND FREE ENERGY PREDICTED BY IDOCK:   -5.63 KCAL/MOL
REMARK 924 INTRA-LIGAND FREE ENERGY PREDICTED BY IDOCK:   -1.00 KCAL/MOL
REMARK 927      BINDING AFFINITY PREDICTED BY RF-SCORE:    0.00 PKD
ROOT
HETATM    1  N   UNL     1      -5.447  14.319  69.310  1.00  0.00    -0.081 NA 
HETATM    2  C   UNL     1      -6.625  14.666  68.737  1.00  0.00    -0.090 C  
HETATM    3  H2  UNL     1      -5.345  13.782  70.171  1.00  0.00     0.000 HD 
HETATM    4  H1  UNL     1      -4.678  14.678  68.745  1.00  0.00     0.000 HD 
HETATM    5  N   UNL     1      -6.645  15.332  67.635  1.00  0.00    -0.164 NA 
HETATM    6  N   UNL     1      -7.648  14.188  69.489  1.00  0.00    -0.345 NA 
HETATM    7  H2  UNL     1      -7.547  13.652  70.350  1.00  0.00     0.000 HD 
HETATM    8  H1  UNL     1      -8.535  14.449  69.057  1.00  0.00     0.000 HD 
HETATM    9  H   UNL     1      -5.777  15.600  67.171  1.00  0.00     0.000 HD 
ENDROOT
BRANCH   5  10
HETATM   10  C   UNL     1      -7.848  15.671  67.103  1.00  0.00    -0.217 A  
HETATM   11  N   UNL     1      -8.870  14.884  66.803  1.00  0.00    -0.257 NA 
HETATM   12  C   UNL     1      -9.934  15.623  66.291  1.00  0.00    -0.295 A  
HETATM   13  S   UNL     1      -8.136  17.348  66.781  1.00  0.00    -0.270 SA 
HETATM   14  C   UNL     1      -9.692  16.978  66.187  1.00  0.00    -0.261 A  
BRANCH  12  15
HETATM   15  C   UNL     1     -11.192  14.910  65.903  1.00  0.00    -0.328 C  
BRANCH  15  16
HETATM   16  S   UNL     1     -11.896  14.023  67.338  1.00  0.00    -0.409 SA 
BRANCH  16  17
HETATM   17  C   UNL     1     -11.553  12.292  66.864  1.00  0.00    -0.361 C  
BRANCH  17  18
HETATM   18  C   UNL     1     -10.453  11.609  67.669  1.00  0.00    -0.219 C  
BRANCH  18  19
HETATM   19  C   UNL     1     -10.998  10.710  68.778  1.00  0.00    -0.246 C  
HETATM   20  H2  UNL     1     -12.970  11.335  68.414  1.00  0.00     0.000 HD 
HETATM   21  N   UNL     1     -12.358  10.743  68.977  1.00  0.00    -0.768 NA 
HETATM   22  H1  UNL     1     -12.722  10.144  69.718  1.00  0.00     0.000 HD 
BRANCH  19  23
HETATM   23  N   UNL     1     -10.120  10.004  69.409  1.00  0.00    -0.205 N  
HETATM   24  H   UNL     1      -9.139  10.060  69.136  1.00  0.00     0.000 HD 
BRANCH  23  25
HETATM   25  S   UNL     1     -10.552   9.035  70.622  1.00  0.00    -0.257 S  
HETATM   26  O   UNL     1     -10.934   7.746  70.097  1.00  0.00    -0.256 OA 
HETATM   27  O   UNL     1     -11.410   9.766  71.524  1.00  0.00    -0.367 OA 
HETATM   28  N   UNL     1      -9.134   8.764  71.472  1.00  0.00    -0.236 N  
HETATM   29  H1  UNL     1      -9.408   8.151  72.240  1.00  0.00     0.000 HD 
HETATM   30  H2  UNL     1      -8.204   9.130  71.268  1.00  0.00     0.000 HD 
ENDBRANCH  23  25
ENDBRANCH  19  23
ENDBRANCH  18  19
ENDBRANCH  17  18
ENDBRANCH  16  17
ENDBRANCH  15  16
ENDBRANCH  12  15
ENDBRANCH   5  10
TORSDOF 8
ENDMDL
MODEL      250
REMARK 921   NORMALIZED FREE ENERGY PREDICTED BY IDOCK:   -3.70 KCAL/MOL
REMARK 922        TOTAL FREE ENERGY PREDICTED BY IDOCK:   -6.60 KCAL/MOL
REMARK 923 INTER-LIGAND FREE ENERGY PREDICTED BY IDOCK:   -5.73 KCAL/MOL
REMARK 924 INTRA-LIGAND FREE ENERGY PREDICTED BY IDOCK:   -0.88 KCAL/MOL
REMARK 927      BINDING AFFINITY PREDICTED BY RF-SCORE:    0.00 PKD
ROOT
HETATM    1  N   UNL     1     -11.765   4.992  73.525  1.00  0.00    -0.405 NA 
HETATM    2  C   UNL     1     -11.442   5.801  72.486  1.00  0.00    -0.296 C  
HETATM    3  H2  UNL     1     -12.675   4.956  73.983  1.00  0.00     0.000 HD 
HETATM    4  H1  UNL     1     -10.955   4.425  73.775  1.00  0.00     0.000 HD 
HETATM    5  N   UNL     1     -10.266   5.758  71.964  1.00  0.00    -0.196 NA 
HETATM    6  N   UNL     1     -12.520   6.556  72.153  1.00  0.00    -0.536 NA 
HETATM    7  H2  UNL     1     -13.429   6.519  72.612  1.00  0.00     0.000 HD 
HETATM    8  H1  UNL     1     -12.277   7.164  71.371  1.00  0.00     0.000 HD 
HETATM    9  H   UNL     1      -9.563   5.108  72.315  1.00  0.00     0.000 HD 
ENDROOT
BRANCH   5  10
HETATM   10  C   UNL     1      -9.981   6.596  70.934  1.00  0.00    -0.187 A  
HETATM   11  N   UNL     1     -10.632   6.752  69.791  1.00  0.00    -0.215 NA 
HETATM   12  C   UNL     1     -10.029   7.729  69.003  1.00  0.00    -0.182 A  
HETATM   13  S   UNL     1      -8.607   7.636  71.105  1.00  0.00    -0.133 SA 
HETATM   14  C   UNL     1      -8.898   8.293  69.558  1.00  0.00    -0.149 A  
BRANCH  12  15
HETATM   15  C   UNL     1     -10.630   8.060  67.673  1.00  0.00    -0.194 C  
BRANCH  15  16
HETATM   16  S   UNL     1     -10.204   9.769  67.183  1.00  0.00    -0.239 SA 
BRANCH  16  17
HETATM   17  C   UNL     1     -11.343  10.718  68.250  1.00  0.00    -0.309 C  
BRANCH  17  18
HETATM   18  C   UNL     1     -11.736  12.090  67.714  1.00  0.00    -0.379 C  
BRANCH  18  19
HETATM   19  C   UNL     1     -10.817  13.207  68.208  1.00  0.00    -0.253 C  
HETATM   20  H2  UNL     1     -11.769  13.261  70.079  1.00  0.00     0.000 HD 
HETATM   21  N   UNL     1     -11.035  13.654  69.489  1.00  0.00    -0.448 NA 
HETATM   22  H1  UNL     1     -10.422  14.400  69.819  1.00  0.00     0.000 HD 
BRANCH  19  23
HETATM   23  N   UNL     1      -9.923  13.609  67.367  1.00  0.00    -0.231 N  
HETATM   24  H   UNL     1      -9.067  13.066  67.246  1.00  0.00     0.000 HD 
BRANCH  23  25
HETATM   25  S   UNL     1     -10.139  14.954  66.507  1.00  0.00    -0.282 S  
HETATM   26  O   UNL     1     -10.787  15.951  67.326  1.00  0.00    -0.319 OA 
HETATM   27  O   UNL     1     -10.649  14.602  65.204  1.00  0.00    -0.363 OA 
HETATM   28  N   UNL     1      -8.592  15.539  66.242  1.00  0.00    -0.408 N  
HETATM   29  H1  UNL     1      -8.729  16.391  65.698  1.00  0.00     0.000 HD 
HETATM   30  H2  UNL     1      -7.709  15.134  66.554  1.00  0.00     0.000 HD 
ENDBRANCH  23  25
ENDBRANCH  19  23
ENDBRANCH  18  19
ENDBRANCH  17  18
ENDBRANCH  16  17
ENDBRANCH  15  16
ENDBRANCH  12  15
ENDBRANCH   5  10
TORSDOF 8
ENDMDL
MODEL      251
REMARK 921   NORMALIZED FREE ENERGY PREDICTED BY IDOCK:   -3.69 KCAL/MOL
REMARK 922        TOTAL FREE ENERGY PREDICTED BY IDOCK:   -6.60 KCAL/MOL
REMARK 923 INTER-LIGAND FREE ENERGY PREDICTED BY IDOCK:   -5.67 KCAL/MOL
REMARK 924 INTRA-LIGAND FREE ENERGY PREDICTED BY IDOCK:   -0.93 KCAL/MOL
REMARK 927      BINDING AFFINITY PREDICTED BY RF-SCORE:    0.00 PKD
ROOT
HETATM    1  N   UNL     1     -10.456  16.021  64.720  1.00  0.00    -0.671 NA 
HETATM    2  C   UNL     1     -10.536  15.252  65.833  1.00  0.00    -0.331 C  
HETATM    3  H2  UNL     1      -9.625  16.135  64.141  1.00  0.00     0.000 HD 
HETATM    4  H1  UNL     1     -11.357  16.467  64.553  1.00  0.00     0.000 HD 
HETATM    5  N   UNL     1     -11.642  15.161  66.488  1.00  0.00    -0.187 NA 
HETATM    6  N   UNL     1      -9.336  14.658  66.057  1.00  0.00    -0.487 NA 
HETATM    7  H2  UNL     1      -8.505  14.772  65.477  1.00  0.00     0.000 HD 
HETATM    8  H1  UNL     1      -9.396  14.079  66.894  1.00  0.00     0.000 HD 
HETATM    9  H   UNL     1     -12.476  15.656  66.174  1.00  0.00     0.000 HD 
ENDROOT
BRANCH   5  10
HETATM   10  C   UNL     1     -11.673  14.390  67.606  1.00  0.00    -0.391 A  
HETATM   11  N   UNL     1     -11.375  13.106  67.734  1.00  0.00    -0.273 NA 
HETATM   12  C   UNL     1     -11.517  12.690  69.055  1.00  0.00    -0.303 A  
HETATM   13  S   UNL     1     -12.134  15.154  69.091  1.00  0.00    -0.172 SA 
HETATM   14  C   UNL     1     -11.949  13.674  69.921  1.00  0.00    -0.348 A  
BRANCH  12  15
HETATM   15  C   UNL     1     -11.212  11.267  69.404  1.00  0.00    -0.280 C  
BRANCH  15  16
HETATM   16  S   UNL     1      -9.769  10.668  68.456  1.00  0.00    -0.181 SA 
BRANCH  16  17
HETATM   17  C   UNL     1     -10.347   9.000  67.982  1.00  0.00    -0.224 C  
BRANCH  17  18
HETATM   18  C   UNL     1      -9.750   7.856  68.793  1.00  0.00    -0.159 C  
BRANCH  18  19
HETATM   19  C   UNL     1     -10.528   7.567  70.077  1.00  0.00    -0.228 C  
HETATM   20  H2  UNL     1     -12.363   7.981  69.143  1.00  0.00     0.000 HD 
HETATM   21  N   UNL     1     -11.894   7.703  70.005  1.00  0.00    -0.407 NA 
HETATM   22  H1  UNL     1     -12.413   7.510  70.861  1.00  0.00     0.000 HD 
BRANCH  19  23
HETATM   23  N   UNL     1      -9.816   7.215  71.096  1.00  0.00    -0.179 N  
HETATM   24  H   UNL     1      -8.983   7.753  71.337  1.00  0.00     0.000 HD 
BRANCH  23  25
HETATM   25  S   UNL     1     -10.226   5.940  71.991  1.00  0.00    -0.203 S  
HETATM   26  O   UNL     1     -11.644   5.975  72.260  1.00  0.00    -0.301 OA 
HETATM   27  O   UNL     1      -9.261   5.782  73.053  1.00  0.00    -0.140 OA 
HETATM   28  N   UNL     1     -10.001   4.624  70.980  1.00  0.00    -0.202 N  
HETATM   29  H1  UNL     1     -10.260   3.817  71.547  1.00  0.00     0.000 HD 
HETATM   30  H2  UNL     1      -9.676   4.628  70.013  1.00  0.00     0.000 HD 
ENDBRANCH  23  25
ENDBRANCH  19  23
ENDBRANCH  18  19
ENDBRANCH  17  18
ENDBRANCH  16  17
ENDBRANCH  15  16
ENDBRANCH  12  15
ENDBRANCH   5  10
TORSDOF 8
ENDMDL
MODEL      252
REMARK 921   NORMALIZED FREE ENERGY PREDICTED BY IDOCK:   -3.69 KCAL/MOL
REMARK 922        TOTAL FREE ENERGY PREDICTED BY IDOCK:   -6.60 KCAL/MOL
REMARK 923 INTER-LIGAND FREE ENERGY PREDICTED BY IDOCK:   -5.68 KCAL/MOL
REMARK 924 INTRA-LIGAND FREE ENERGY PREDICTED BY IDOCK:   -0.92 KCAL/MOL
REMARK 927      BINDING AFFINITY PREDICTED BY RF-SCORE:    0.00 PKD
ROOT
HETATM    1  N   UNL     1     -10.990   7.451  69.698  1.00  0.00    -0.377 NA 
HETATM    2  C   UNL     1     -10.648   8.718  69.362  1.00  0.00    -0.209 C  
HETATM    3  H2  UNL     1     -10.334   6.701  69.915  1.00  0.00     0.000 HD 
HETATM    4  H1  UNL     1     -12.006   7.365  69.702  1.00  0.00     0.000 HD 
HETATM    5  N   UNL     1     -11.557   9.600  69.124  1.00  0.00    -0.412 NA 
HETATM    6  N   UNL     1      -9.296   8.833  69.357  1.00  0.00    -0.156 NA 
HETATM    7  H2  UNL     1      -8.640   8.083  69.574  1.00  0.00     0.000 HD 
HETATM    8  H1  UNL     1      -9.039   9.787  69.105  1.00  0.00     0.000 HD 
HETATM    9  H   UNL     1     -12.546   9.362  69.194  1.00  0.00     0.000 HD 
ENDROOT
BRANCH   5  10
HETATM   10  C   UNL     1     -11.169  10.854  68.777  1.00  0.00    -0.270 A  
HETATM   11  N   UNL     1     -10.232  11.222  67.917  1.00  0.00    -0.177 NA 
HETATM   12  C   UNL     1     -10.152  12.609  67.828  1.00  0.00    -0.220 A  
HETATM   13  S   UNL     1     -12.003  12.182  69.514  1.00  0.00    -0.237 SA 
HETATM   14  C   UNL     1     -11.029  13.286  68.652  1.00  0.00    -0.264 A  
BRANCH  12  15
HETATM   15  C   UNL     1      -9.155  13.220  66.893  1.00  0.00    -0.232 C  
BRANCH  15  16
HETATM   16  S   UNL     1      -7.714  13.859  67.818  1.00  0.00    -0.190 SA 
BRANCH  16  17
HETATM   17  C   UNL     1      -7.822  15.639  67.421  1.00  0.00    -0.182 C  
BRANCH  17  18
HETATM   18  C   UNL     1      -9.022  16.039  66.572  1.00  0.00    -0.327 C  
BRANCH  18  19
HETATM   19  C   UNL     1      -9.325  17.536  66.637  1.00  0.00    -0.262 C  
HETATM   20  H2  UNL     1     -10.972  17.332  65.349  1.00  0.00     0.000 HD 
HETATM   21  N   UNL     1     -10.404  17.972  65.905  1.00  0.00    -0.591 NA 
HETATM   22  H1  UNL     1     -10.606  18.971  65.948  1.00  0.00     0.000 HD 
BRANCH  19  23
HETATM   23  N   UNL     1      -8.537  18.234  67.384  1.00  0.00    -0.247 N  
HETATM   24  H   UNL     1      -8.479  18.031  68.382  1.00  0.00     0.000 HD 
BRANCH  23  25
HETATM   25  S   UNL     1      -7.643  19.422  66.762  1.00  0.00    -0.258 S  
HETATM   26  O   UNL     1      -6.739  18.880  65.776  1.00  0.00    -0.234 OA 
HETATM   27  O   UNL     1      -7.172  20.266  67.835  1.00  0.00    -0.287 OA 
HETATM   28  N   UNL     1      -8.729  20.360  65.897  1.00  0.00    -0.546 N  
HETATM   29  H1  UNL     1      -8.164  21.111  65.504  1.00  0.00     0.000 HD 
HETATM   30  H2  UNL     1      -9.733  20.212  65.788  1.00  0.00     0.000 HD 
ENDBRANCH  23  25
ENDBRANCH  19  23
ENDBRANCH  18  19
ENDBRANCH  17  18
ENDBRANCH  16  17
ENDBRANCH  15  16
ENDBRANCH  12  15
ENDBRANCH   5  10
TORSDOF 8
ENDMDL
MODEL      253
REMARK 921   NORMALIZED FREE ENERGY PREDICTED BY IDOCK:   -3.69 KCAL/MOL
REMARK 922        TOTAL FREE ENERGY PREDICTED BY IDOCK:   -6.59 KCAL/MOL
REMARK 923 INTER-LIGAND FREE ENERGY PREDICTED BY IDOCK:   -6.21 KCAL/MOL
REMARK 924 INTRA-LIGAND FREE ENERGY PREDICTED BY IDOCK:   -0.38 KCAL/MOL
REMARK 927      BINDING AFFINITY PREDICTED BY RF-SCORE:    0.00 PKD
ROOT
HETATM    1  N   UNL     1     -14.312  15.271  71.431  1.00  0.00    -0.652 NA 
HETATM    2  C   UNL     1     -13.028  15.502  71.067  1.00  0.00    -0.489 C  
HETATM    3  H2  UNL     1     -14.629  15.067  72.379  1.00  0.00     0.000 HD 
HETATM    4  H1  UNL     1     -14.912  15.334  70.610  1.00  0.00     0.000 HD 
HETATM    5  N   UNL     1     -12.732  15.770  69.842  1.00  0.00    -0.553 NA 
HETATM    6  N   UNL     1     -12.228  15.419  72.160  1.00  0.00    -0.348 NA 
HETATM    7  H2  UNL     1     -12.545  15.214  73.107  1.00  0.00     0.000 HD 
HETATM    8  H1  UNL     1     -11.261  15.593  71.886  1.00  0.00     0.000 HD 
HETATM    9  H   UNL     1     -13.461  15.823  69.130  1.00  0.00     0.000 HD 
ENDROOT
BRANCH   5  10
HETATM   10  C   UNL     1     -11.431  15.981  69.518  1.00  0.00    -0.326 A  
HETATM   11  N   UNL     1     -10.393  15.179  69.701  1.00  0.00    -0.241 NA 
HETATM   12  C   UNL     1      -9.224  15.757  69.214  1.00  0.00    -0.266 A  
HETATM   13  S   UNL     1     -11.033  17.476  68.738  1.00  0.00     0.345 SA 
HETATM   14  C   UNL     1      -9.389  17.019  68.679  1.00  0.00    -0.270 A  
BRANCH  12  15
HETATM   15  C   UNL     1      -7.940  14.995  69.317  1.00  0.00    -0.190 C  
BRANCH  15  16
HETATM   16  S   UNL     1      -8.189  13.248  68.845  1.00  0.00     0.311 SA 
BRANCH  16  17
HETATM   17  C   UNL     1      -9.348  13.440  67.445  1.00  0.00    -0.221 C  
BRANCH  17  18
HETATM   18  C   UNL     1      -8.947  14.491  66.416  1.00  0.00    -0.153 C  
BRANCH  18  19
HETATM   19  C   UNL     1     -10.148  15.112  65.702  1.00  0.00    -0.363 C  
HETATM   20  H2  UNL     1      -9.019  16.778  65.101  1.00  0.00     0.000 HD 
HETATM   21  N   UNL     1      -9.931  16.320  65.084  1.00  0.00    -0.411 NA 
HETATM   22  H1  UNL     1     -10.732  16.735  64.607  1.00  0.00     0.000 HD 
BRANCH  19  23
HETATM   23  N   UNL     1     -11.242  14.427  65.746  1.00  0.00    -0.320 N  
HETATM   24  H   UNL     1     -11.749  14.347  66.628  1.00  0.00     0.000 HD 
BRANCH  23  25
HETATM   25  S   UNL     1     -11.816  13.696  64.430  1.00  0.00    -0.437 S  
HETATM   26  O   UNL     1     -10.767  12.922  63.812  1.00  0.00    -0.397 OA 
HETATM   27  O   UNL     1     -12.601  14.643  63.673  1.00  0.00    -0.773 OA 
HETATM   28  N   UNL     1     -12.911  12.571  65.014  1.00  0.00    -0.455 N  
HETATM   29  H1  UNL     1     -13.274  12.109  64.181  1.00  0.00     0.000 HD 
HETATM   30  H2  UNL     1     -13.159  12.388  65.987  1.00  0.00     0.000 HD 
ENDBRANCH  23  25
ENDBRANCH  19  23
ENDBRANCH  18  19
ENDBRANCH  17  18
ENDBRANCH  16  17
ENDBRANCH  15  16
ENDBRANCH  12  15
ENDBRANCH   5  10
TORSDOF 8
ENDMDL
MODEL      254
REMARK 921   NORMALIZED FREE ENERGY PREDICTED BY IDOCK:   -3.68 KCAL/MOL
REMARK 922        TOTAL FREE ENERGY PREDICTED BY IDOCK:   -6.58 KCAL/MOL
REMARK 923 INTER-LIGAND FREE ENERGY PREDICTED BY IDOCK:   -5.85 KCAL/MOL
REMARK 924 INTRA-LIGAND FREE ENERGY PREDICTED BY IDOCK:   -0.73 KCAL/MOL
REMARK 927      BINDING AFFINITY PREDICTED BY RF-SCORE:    0.00 PKD
ROOT
HETATM    1  N   UNL     1     -10.430  17.423  67.732  1.00  0.00    -0.364 NA 
HETATM    2  C   UNL     1     -10.501  16.131  68.134  1.00  0.00    -0.279 C  
HETATM    3  H2  UNL     1      -9.608  18.022  67.813  1.00  0.00     0.000 HD 
HETATM    4  H1  UNL     1     -11.327  17.703  67.336  1.00  0.00     0.000 HD 
HETATM    5  N   UNL     1     -11.585  15.453  67.971  1.00  0.00    -0.331 NA 
HETATM    6  N   UNL     1      -9.308  15.758  68.661  1.00  0.00    -0.196 NA 
HETATM    7  H2  UNL     1      -8.486  16.356  68.742  1.00  0.00     0.000 HD 
HETATM    8  H1  UNL     1      -9.361  14.785  68.963  1.00  0.00     0.000 HD 
HETATM    9  H   UNL     1     -12.402  15.874  67.529  1.00  0.00     0.000 HD 
ENDROOT
BRANCH   5  10
HETATM   10  C   UNL     1     -11.616  14.166  68.401  1.00  0.00    -0.318 A  
HETATM   11  N   UNL     1     -11.261  13.068  67.751  1.00  0.00    -0.265 NA 
HETATM   12  C   UNL     1     -11.427  11.940  68.550  1.00  0.00    -0.295 A  
HETATM   13  S   UNL     1     -12.165  13.876  70.018  1.00  0.00    -0.329 SA 
HETATM   14  C   UNL     1     -11.935  12.198  69.807  1.00  0.00    -0.302 A  
BRANCH  12  15
HETATM   15  C   UNL     1     -11.064  10.598  67.994  1.00  0.00    -0.301 C  
BRANCH  15  16
HETATM   16  S   UNL     1      -9.879   9.745  69.094  1.00  0.00    -0.200 SA 
BRANCH  16  17
HETATM   17  C   UNL     1     -10.406   8.010  68.874  1.00  0.00    -0.209 C  
BRANCH  17  18
HETATM   18  C   UNL     1     -10.511   7.546  67.426  1.00  0.00    -0.367 C  
BRANCH  18  19
HETATM   19  C   UNL     1      -9.304   6.724  66.975  1.00  0.00    -0.143 C  
HETATM   20  H2  UNL     1      -8.265   7.141  68.752  1.00  0.00     0.000 HD 
HETATM   21  N   UNL     1      -8.246   6.663  67.851  1.00  0.00    -0.119 NA 
HETATM   22  H1  UNL     1      -7.440   6.115  67.550  1.00  0.00     0.000 HD 
BRANCH  19  23
HETATM   23  N   UNL     1      -9.410   6.162  65.817  1.00  0.00    -0.369 N  
HETATM   24  H   UNL     1      -9.336   6.731  64.973  1.00  0.00     0.000 HD 
BRANCH  23  25
HETATM   25  S   UNL     1      -9.658   4.575  65.686  1.00  0.00    -0.200 S  
HETATM   26  O   UNL     1      -9.706   3.984  67.002  1.00  0.00    -0.209 OA 
HETATM   27  O   UNL     1      -8.795   4.049  64.654  1.00  0.00    -0.121 OA 
HETATM   28  N   UNL     1     -11.214   4.439  65.082  1.00  0.00    -0.935 N  
HETATM   29  H1  UNL     1     -11.371   3.435  64.999  1.00  0.00     0.000 HD 
HETATM   30  H2  UNL     1     -11.862   5.193  64.849  1.00  0.00     0.000 HD 
ENDBRANCH  23  25
ENDBRANCH  19  23
ENDBRANCH  18  19
ENDBRANCH  17  18
ENDBRANCH  16  17
ENDBRANCH  15  16
ENDBRANCH  12  15
ENDBRANCH   5  10
TORSDOF 8
ENDMDL
MODEL      255
REMARK 921   NORMALIZED FREE ENERGY PREDICTED BY IDOCK:   -3.67 KCAL/MOL
REMARK 922        TOTAL FREE ENERGY PREDICTED BY IDOCK:   -6.56 KCAL/MOL
REMARK 923 INTER-LIGAND FREE ENERGY PREDICTED BY IDOCK:   -5.26 KCAL/MOL
REMARK 924 INTRA-LIGAND FREE ENERGY PREDICTED BY IDOCK:   -1.31 KCAL/MOL
REMARK 927      BINDING AFFINITY PREDICTED BY RF-SCORE:    0.00 PKD
ROOT
HETATM    1  N   UNL     1     -13.319   8.881  72.842  1.00  0.00    -0.858 NA 
HETATM    2  C   UNL     1     -12.380   8.171  72.172  1.00  0.00    -0.338 C  
HETATM    3  H2  UNL     1     -13.936   9.580  72.429  1.00  0.00     0.000 HD 
HETATM    4  H1  UNL     1     -13.311   8.608  73.824  1.00  0.00     0.000 HD 
HETATM    5  N   UNL     1     -11.661   7.295  72.784  1.00  0.00    -0.533 NA 
HETATM    6  N   UNL     1     -12.390   8.535  70.864  1.00  0.00    -0.487 NA 
HETATM    7  H2  UNL     1     -13.007   9.233  70.452  1.00  0.00     0.000 HD 
HETATM    8  H1  UNL     1     -11.684   7.999  70.359  1.00  0.00     0.000 HD 
HETATM    9  H   UNL     1     -11.792   7.115  73.779  1.00  0.00     0.000 HD 
ENDROOT
BRANCH   5  10
HETATM   10  C   UNL     1     -10.722   6.615  72.075  1.00  0.00    -0.219 A  
HETATM   11  N   UNL     1     -10.893   5.808  71.039  1.00  0.00    -0.261 NA 
HETATM   12  C   UNL     1      -9.672   5.319  70.582  1.00  0.00    -0.186 A  
HETATM   13  S   UNL     1      -9.066   6.820  72.539  1.00  0.00    -0.132 SA 
HETATM   14  C   UNL     1      -8.577   5.750  71.303  1.00  0.00    -0.129 A  
BRANCH  12  15
HETATM   15  C   UNL     1      -9.656   4.397  69.403  1.00  0.00    -0.199 C  
BRANCH  15  16
HETATM   16  S   UNL     1      -7.981   4.313  68.675  1.00  0.00    -0.073 SA 
BRANCH  16  17
HETATM   17  C   UNL     1      -8.382   4.420  66.896  1.00  0.00    -0.101 C  
BRANCH  17  18
HETATM   18  C   UNL     1      -9.745   5.025  66.577  1.00  0.00    -0.193 C  
BRANCH  18  19
HETATM   19  C   UNL     1      -9.645   6.370  65.857  1.00  0.00     0.182 C  
HETATM   20  H2  UNL     1      -8.227   5.620  64.502  1.00  0.00     0.000 HD 
HETATM   21  N   UNL     1      -8.776   6.429  64.794  1.00  0.00    -0.344 NA 
HETATM   22  H1  UNL     1      -8.708   7.326  64.313  1.00  0.00     0.000 HD 
BRANCH  19  23
HETATM   23  N   UNL     1     -10.400   7.310  66.320  1.00  0.00    -0.405 N  
HETATM   24  H   UNL     1     -11.414   7.214  66.265  1.00  0.00     0.000 HD 
BRANCH  23  25
HETATM   25  S   UNL     1      -9.762   8.633  66.982  1.00  0.00    -0.224 S  
HETATM   26  O   UNL     1     -10.101   9.785  66.181  1.00  0.00    -0.257 OA 
HETATM   27  O   UNL     1      -8.398   8.356  67.365  1.00  0.00    -0.122 OA 
HETATM   28  N   UNL     1     -10.600   8.833  68.419  1.00  0.00    -0.378 N  
HETATM   29  H1  UNL     1     -10.197   9.670  68.838  1.00  0.00     0.000 HD 
HETATM   30  H2  UNL     1     -11.348   8.247  68.792  1.00  0.00     0.000 HD 
ENDBRANCH  23  25
ENDBRANCH  19  23
ENDBRANCH  18  19
ENDBRANCH  17  18
ENDBRANCH  16  17
ENDBRANCH  15  16
ENDBRANCH  12  15
ENDBRANCH   5  10
TORSDOF 8
ENDMDL
MODEL      256
REMARK 921   NORMALIZED FREE ENERGY PREDICTED BY IDOCK:   -3.65 KCAL/MOL
REMARK 922        TOTAL FREE ENERGY PREDICTED BY IDOCK:   -6.54 KCAL/MOL
REMARK 923 INTER-LIGAND FREE ENERGY PREDICTED BY IDOCK:   -5.44 KCAL/MOL
REMARK 924 INTRA-LIGAND FREE ENERGY PREDICTED BY IDOCK:   -1.10 KCAL/MOL
REMARK 927      BINDING AFFINITY PREDICTED BY RF-SCORE:    0.00 PKD
ROOT
HETATM    1  N   UNL     1     -11.249   5.888  66.320  1.00  0.00    -0.697 NA 
HETATM    2  C   UNL     1     -10.742   6.705  67.274  1.00  0.00    -0.357 C  
HETATM    3  H2  UNL     1     -11.091   5.982  65.317  1.00  0.00     0.000 HD 
HETATM    4  H1  UNL     1     -11.815   5.163  66.761  1.00  0.00     0.000 HD 
HETATM    5  N   UNL     1     -10.988   6.489  68.520  1.00  0.00    -0.412 NA 
HETATM    6  N   UNL     1      -9.989   7.669  66.686  1.00  0.00    -0.363 NA 
HETATM    7  H2  UNL     1      -9.831   7.764  65.683  1.00  0.00     0.000 HD 
HETATM    8  H1  UNL     1      -9.607   8.284  67.404  1.00  0.00     0.000 HD 
HETATM    9  H   UNL     1     -11.559   5.695  68.808  1.00  0.00     0.000 HD 
ENDROOT
BRANCH   5  10
HETATM   10  C   UNL     1     -10.470   7.341  69.441  1.00  0.00    -0.216 A  
HETATM   11  N   UNL     1      -9.198   7.593  69.712  1.00  0.00    -0.147 NA 
HETATM   12  C   UNL     1      -9.082   8.548  70.718  1.00  0.00    -0.165 A  
HETATM   13  S   UNL     1     -11.585   8.260  70.396  1.00  0.00     0.033 SA 
HETATM   14  C   UNL     1     -10.286   8.999  71.221  1.00  0.00    -0.313 A  
BRANCH  12  15
HETATM   15  C   UNL     1      -7.717   8.978  71.157  1.00  0.00    -0.110 C  
BRANCH  15  16
HETATM   16  S   UNL     1      -6.769   9.646  69.745  1.00  0.00    -0.072 SA 
BRANCH  16  17
HETATM   17  C   UNL     1      -7.906  10.953  69.164  1.00  0.00    -0.119 C  
BRANCH  17  18
HETATM   18  C   UNL     1      -8.480  10.735  67.769  1.00  0.00    -0.120 C  
BRANCH  18  19
HETATM   19  C   UNL     1      -8.764  12.044  67.032  1.00  0.00    -0.188 C  
HETATM   20  H2  UNL     1      -6.853  12.793  67.475  1.00  0.00     0.000 HD 
HETATM   21  N   UNL     1      -7.748  12.969  67.019  1.00  0.00    -0.392 NA 
HETATM   22  H1  UNL     1      -7.937  13.843  66.527  1.00  0.00     0.000 HD 
BRANCH  19  23
HETATM   23  N   UNL     1      -9.932  12.138  66.488  1.00  0.00    -0.209 N  
HETATM   24  H   UNL     1     -10.029  12.015  65.480  1.00  0.00     0.000 HD 
BRANCH  23  25
HETATM   25  S   UNL     1     -11.238  12.447  67.380  1.00  0.00    -0.317 S  
HETATM   26  O   UNL     1     -10.862  13.234  68.530  1.00  0.00    -0.249 OA 
HETATM   27  O   UNL     1     -12.012  11.236  67.515  1.00  0.00    -0.612 OA 
HETATM   28  N   UNL     1     -12.166  13.468  66.430  1.00  0.00    -0.415 N  
HETATM   29  H1  UNL     1     -12.992  13.664  66.994  1.00  0.00     0.000 HD 
HETATM   30  H2  UNL     1     -11.952  13.817  65.496  1.00  0.00     0.000 HD 
ENDBRANCH  23  25
ENDBRANCH  19  23
ENDBRANCH  18  19
ENDBRANCH  17  18
ENDBRANCH  16  17
ENDBRANCH  15  16
ENDBRANCH  12  15
ENDBRANCH   5  10
TORSDOF 8
ENDMDL
MODEL      257
REMARK 921   NORMALIZED FREE ENERGY PREDICTED BY IDOCK:   -3.65 KCAL/MOL
REMARK 922        TOTAL FREE ENERGY PREDICTED BY IDOCK:   -6.54 KCAL/MOL
REMARK 923 INTER-LIGAND FREE ENERGY PREDICTED BY IDOCK:   -5.89 KCAL/MOL
REMARK 924 INTRA-LIGAND FREE ENERGY PREDICTED BY IDOCK:   -0.64 KCAL/MOL
REMARK 927      BINDING AFFINITY PREDICTED BY RF-SCORE:    0.00 PKD
ROOT
HETATM    1  N   UNL     1      -9.832  20.362  65.801  1.00  0.00    -0.591 NA 
HETATM    2  C   UNL     1     -10.040  19.224  66.507  1.00  0.00    -0.415 C  
HETATM    3  H2  UNL     1     -10.130  21.295  66.084  1.00  0.00     0.000 HD 
HETATM    4  H1  UNL     1      -9.329  20.138  64.943  1.00  0.00     0.000 HD 
HETATM    5  N   UNL     1      -9.606  18.093  66.070  1.00  0.00    -0.517 NA 
HETATM    6  N   UNL     1     -10.709  19.521  67.650  1.00  0.00    -0.448 NA 
HETATM    7  H2  UNL     1     -11.008  20.454  67.933  1.00  0.00     0.000 HD 
HETATM    8  H1  UNL     1     -10.865  18.665  68.182  1.00  0.00     0.000 HD 
HETATM    9  H   UNL     1      -9.090  18.036  65.192  1.00  0.00     0.000 HD 
ENDROOT
BRANCH   5  10
HETATM   10  C   UNL     1      -9.849  16.976  66.804  1.00  0.00    -0.278 A  
HETATM   11  N   UNL     1     -10.729  16.013  66.576  1.00  0.00    -0.281 NA 
HETATM   12  C   UNL     1     -10.655  15.028  67.558  1.00  0.00    -0.265 A  
HETATM   13  S   UNL     1      -8.886  16.726  68.222  1.00  0.00    -0.236 SA 
HETATM   14  C   UNL     1      -9.722  15.273  68.545  1.00  0.00    -0.211 A  
BRANCH  12  15
HETATM   15  C   UNL     1     -11.565  13.844  67.467  1.00  0.00    -0.360 C  
BRANCH  15  16
HETATM   16  S   UNL     1     -11.781  13.070  69.109  1.00  0.00    -0.327 SA 
BRANCH  16  17
HETATM   17  C   UNL     1     -11.781  11.302  68.650  1.00  0.00    -0.324 C  
BRANCH  17  18
HETATM   18  C   UNL     1     -11.172  10.989  67.288  1.00  0.00    -0.330 C  
BRANCH  18  19
HETATM   19  C   UNL     1      -9.964  10.058  67.376  1.00  0.00    -0.197 C  
HETATM   20  H2  UNL     1      -9.053  11.260  68.837  1.00  0.00     0.000 HD 
HETATM   21  N   UNL     1      -8.980  10.418  68.266  1.00  0.00    -0.132 NA 
HETATM   22  H1  UNL     1      -8.173   9.796  68.325  1.00  0.00     0.000 HD 
BRANCH  19  23
HETATM   23  N   UNL     1      -9.999   9.020  66.607  1.00  0.00    -0.256 N  
HETATM   24  H   UNL     1     -10.726   8.946  65.895  1.00  0.00     0.000 HD 
BRANCH  23  25
HETATM   25  S   UNL     1      -8.912   7.840  66.758  1.00  0.00    -0.146 S  
HETATM   26  O   UNL     1      -9.174   7.093  67.964  1.00  0.00    -0.132 OA 
HETATM   27  O   UNL     1      -7.601   8.371  66.470  1.00  0.00    -0.086 OA 
HETATM   28  N   UNL     1      -9.255   6.787  65.501  1.00  0.00    -0.360 N  
HETATM   29  H1  UNL     1      -8.567   6.041  65.597  1.00  0.00     0.000 HD 
HETATM   30  H2  UNL     1      -9.989   6.872  64.798  1.00  0.00     0.000 HD 
ENDBRANCH  23  25
ENDBRANCH  19  23
ENDBRANCH  18  19
ENDBRANCH  17  18
ENDBRANCH  16  17
ENDBRANCH  15  16
ENDBRANCH  12  15
ENDBRANCH   5  10
TORSDOF 8
ENDMDL
MODEL      258
REMARK 921   NORMALIZED FREE ENERGY PREDICTED BY IDOCK:   -3.65 KCAL/MOL
REMARK 922        TOTAL FREE ENERGY PREDICTED BY IDOCK:   -6.54 KCAL/MOL
REMARK 923 INTER-LIGAND FREE ENERGY PREDICTED BY IDOCK:   -5.48 KCAL/MOL
REMARK 924 INTRA-LIGAND FREE ENERGY PREDICTED BY IDOCK:   -1.05 KCAL/MOL
REMARK 927      BINDING AFFINITY PREDICTED BY RF-SCORE:    0.00 PKD
ROOT
HETATM    1  N   UNL     1     -12.614  16.035  69.989  1.00  0.00    -0.558 NA 
HETATM    2  C   UNL     1     -12.295  14.744  70.250  1.00  0.00    -0.345 C  
HETATM    3  H2  UNL     1     -12.457  16.821  70.620  1.00  0.00     0.000 HD 
HETATM    4  H1  UNL     1     -13.034  16.098  69.062  1.00  0.00     0.000 HD 
HETATM    5  N   UNL     1     -12.519  13.825  69.376  1.00  0.00    -0.324 NA 
HETATM    6  N   UNL     1     -11.736  14.660  71.483  1.00  0.00    -0.460 NA 
HETATM    7  H2  UNL     1     -11.579  15.446  72.114  1.00  0.00     0.000 HD 
HETATM    8  H1  UNL     1     -11.495  13.689  71.680  1.00  0.00     0.000 HD 
HETATM    9  H   UNL     1     -12.929  14.055  68.471  1.00  0.00     0.000 HD 
ENDROOT
BRANCH   5  10
HETATM   10  C   UNL     1     -12.197  12.542  69.685  1.00  0.00    -0.103 A  
HETATM   11  N   UNL     1     -12.502  11.853  70.774  1.00  0.00    -0.335 NA 
HETATM   12  C   UNL     1     -11.999  10.557  70.700  1.00  0.00    -0.357 A  
HETATM   13  S   UNL     1     -11.286  11.643  68.518  1.00  0.00    -0.305 SA 
HETATM   14  C   UNL     1     -11.288  10.283  69.549  1.00  0.00    -0.241 A  
BRANCH  12  15
HETATM   15  C   UNL     1     -12.253   9.615  71.835  1.00  0.00    -0.336 C  
BRANCH  15  16
HETATM   16  S   UNL     1     -10.797   8.549  72.125  1.00  0.00    -0.349 SA 
BRANCH  16  17
HETATM   17  C   UNL     1     -11.390   6.970  71.422  1.00  0.00    -0.265 C  
BRANCH  17  18
HETATM   18  C   UNL     1     -10.316   5.907  71.228  1.00  0.00    -0.276 C  
BRANCH  18  19
HETATM   19  C   UNL     1     -10.289   5.341  69.808  1.00  0.00    -0.299 C  
HETATM   20  H2  UNL     1     -11.666   6.774  69.133  1.00  0.00     0.000 HD 
HETATM   21  N   UNL     1     -11.087   5.972  68.885  1.00  0.00    -0.335 NA 
HETATM   22  H1  UNL     1     -11.069   5.594  67.938  1.00  0.00     0.000 HD 
BRANCH  19  23
HETATM   23  N   UNL     1      -9.506   4.329  69.624  1.00  0.00    -0.170 N  
HETATM   24  H   UNL     1      -9.458   3.595  70.331  1.00  0.00     0.000 HD 
BRANCH  23  25
HETATM   25  S   UNL     1      -8.606   4.211  68.293  1.00  0.00    -0.098 S  
HETATM   26  O   UNL     1      -9.462   4.026  67.146  1.00  0.00    -0.171 OA 
HETATM   27  O   UNL     1      -7.495   3.326  68.555  1.00  0.00    -0.050 OA 
HETATM   28  N   UNL     1      -7.933   5.732  68.102  1.00  0.00    -0.103 N  
HETATM   29  H1  UNL     1      -7.363   5.657  67.260  1.00  0.00     0.000 HD 
HETATM   30  H2  UNL     1      -8.063   6.552  68.695  1.00  0.00     0.000 HD 
ENDBRANCH  23  25
ENDBRANCH  19  23
ENDBRANCH  18  19
ENDBRANCH  17  18
ENDBRANCH  16  17
ENDBRANCH  15  16
ENDBRANCH  12  15
ENDBRANCH   5  10
TORSDOF 8
ENDMDL
MODEL      259
REMARK 921   NORMALIZED FREE ENERGY PREDICTED BY IDOCK:   -3.63 KCAL/MOL
REMARK 922        TOTAL FREE ENERGY PREDICTED BY IDOCK:   -6.51 KCAL/MOL
REMARK 923 INTER-LIGAND FREE ENERGY PREDICTED BY IDOCK:   -5.10 KCAL/MOL
REMARK 924 INTRA-LIGAND FREE ENERGY PREDICTED BY IDOCK:   -1.41 KCAL/MOL
REMARK 927      BINDING AFFINITY PREDICTED BY RF-SCORE:    0.00 PKD
ROOT
HETATM    1  N   UNL     1     -12.046  14.058  70.052  1.00  0.00    -0.329 NA 
HETATM    2  C   UNL     1     -11.398  13.657  68.932  1.00  0.00    -0.290 C  
HETATM    3  H2  UNL     1     -11.599  14.303  70.936  1.00  0.00     0.000 HD 
HETATM    4  H1  UNL     1     -13.049  14.075  69.874  1.00  0.00     0.000 HD 
HETATM    5  N   UNL     1     -12.055  13.385  67.857  1.00  0.00    -0.311 NA 
HETATM    6  N   UNL     1     -10.062  13.633  69.169  1.00  0.00    -0.424 NA 
HETATM    7  H2  UNL     1      -9.616  13.879  70.052  1.00  0.00     0.000 HD 
HETATM    8  H1  UNL     1      -9.575  13.332  68.325  1.00  0.00     0.000 HD 
HETATM    9  H   UNL     1     -13.071  13.477  67.830  1.00  0.00     0.000 HD 
ENDROOT
BRANCH   5  10
HETATM   10  C   UNL     1     -11.367  12.974  66.761  1.00  0.00    -0.324 A  
HETATM   11  N   UNL     1     -10.506  11.973  66.653  1.00  0.00    -0.212 NA 
HETATM   12  C   UNL     1     -10.028  11.866  65.350  1.00  0.00    -0.252 A  
HETATM   13  S   UNL     1     -11.638  13.829  65.279  1.00  0.00    -0.335 SA 
HETATM   14  C   UNL     1     -10.522  12.816  64.479  1.00  0.00    -0.368 A  
BRANCH  12  15
HETATM   15  C   UNL     1      -9.050  10.780  65.023  1.00  0.00    -0.203 C  
BRANCH  15  16
HETATM   16  S   UNL     1      -9.434   9.264  65.968  1.00  0.00    -0.264 SA 
BRANCH  16  17
HETATM   17  C   UNL     1      -8.155   9.345  67.270  1.00  0.00    -0.110 C  
BRANCH  17  18
HETATM   18  C   UNL     1      -8.448   8.516  68.514  1.00  0.00    -0.131 C  
BRANCH  18  19
HETATM   19  C   UNL     1      -8.922   9.362  69.695  1.00  0.00    -0.173 C  
HETATM   20  H2  UNL     1      -8.836  11.126  68.559  1.00  0.00     0.000 HD 
HETATM   21  N   UNL     1      -9.048  10.711  69.467  1.00  0.00    -0.411 NA 
HETATM   22  H1  UNL     1      -9.364  11.277  70.255  1.00  0.00     0.000 HD 
BRANCH  19  23
HETATM   23  N   UNL     1      -9.166   8.714  70.786  1.00  0.00    -0.170 N  
HETATM   24  H   UNL     1     -10.072   8.263  70.911  1.00  0.00     0.000 HD 
BRANCH  23  25
HETATM   25  S   UNL     1      -8.058   8.610  71.952  1.00  0.00    -0.037 S  
HETATM   26  O   UNL     1      -8.702   8.711  73.240  1.00  0.00    -0.352 OA 
HETATM   27  O   UNL     1      -6.931   9.443  71.605  1.00  0.00    -0.316 OA 
HETATM   28  N   UNL     1      -7.496   7.035  71.861  1.00  0.00    -0.086 N  
HETATM   29  H1  UNL     1      -6.796   6.969  72.599  1.00  0.00     0.000 HD 
HETATM   30  H2  UNL     1      -7.790   6.304  71.213  1.00  0.00     0.000 HD 
ENDBRANCH  23  25
ENDBRANCH  19  23
ENDBRANCH  18  19
ENDBRANCH  17  18
ENDBRANCH  16  17
ENDBRANCH  15  16
ENDBRANCH  12  15
ENDBRANCH   5  10
TORSDOF 8
ENDMDL
MODEL      260
REMARK 921   NORMALIZED FREE ENERGY PREDICTED BY IDOCK:   -3.62 KCAL/MOL
REMARK 922        TOTAL FREE ENERGY PREDICTED BY IDOCK:   -6.49 KCAL/MOL
REMARK 923 INTER-LIGAND FREE ENERGY PREDICTED BY IDOCK:   -5.01 KCAL/MOL
REMARK 924 INTRA-LIGAND FREE ENERGY PREDICTED BY IDOCK:   -1.48 KCAL/MOL
REMARK 927      BINDING AFFINITY PREDICTED BY RF-SCORE:    0.00 PKD
ROOT
HETATM    1  N   UNL     1     -12.350   8.497  71.736  1.00  0.00    -0.319 NA 
HETATM    2  C   UNL     1     -11.436   8.518  70.737  1.00  0.00    -0.253 C  
HETATM    3  H2  UNL     1     -12.509   9.248  72.407  1.00  0.00     0.000 HD 
HETATM    4  H1  UNL     1     -12.855   7.611  71.713  1.00  0.00     0.000 HD 
HETATM    5  N   UNL     1     -11.326   7.521  69.928  1.00  0.00    -0.461 NA 
HETATM    6  N   UNL     1     -10.764   9.697  70.768  1.00  0.00    -0.311 NA 
HETATM    7  H2  UNL     1     -10.923  10.448  71.438  1.00  0.00     0.000 HD 
HETATM    8  H1  UNL     1     -10.076   9.714  70.015  1.00  0.00     0.000 HD 
HETATM    9  H   UNL     1     -11.930   6.705  70.021  1.00  0.00     0.000 HD 
ENDROOT
BRANCH   5  10
HETATM   10  C   UNL     1     -10.386   7.580  68.949  1.00  0.00    -0.211 A  
HETATM   11  N   UNL     1      -9.133   8.001  69.030  1.00  0.00    -0.145 NA 
HETATM   12  C   UNL     1      -8.488   7.883  67.801  1.00  0.00    -0.125 A  
HETATM   13  S   UNL     1     -10.837   7.016  67.375  1.00  0.00    -0.278 SA 
HETATM   14  C   UNL     1      -9.279   7.388  66.784  1.00  0.00    -0.156 A  
BRANCH  12  15
HETATM   15  C   UNL     1      -7.054   8.298  67.693  1.00  0.00    -0.083 C  
BRANCH  15  16
HETATM   16  S   UNL     1      -6.818   9.981  68.364  1.00  0.00    -0.062 SA 
BRANCH  16  17
HETATM   17  C   UNL     1      -7.812  10.957  67.182  1.00  0.00    -0.127 C  
BRANCH  17  18
HETATM   18  C   UNL     1      -7.944  12.437  67.519  1.00  0.00    -0.173 C  
BRANCH  18  19
HETATM   19  C   UNL     1      -9.370  12.836  67.898  1.00  0.00    -0.208 C  
HETATM   20  H2  UNL     1      -9.438  11.407  69.436  1.00  0.00     0.000 HD 
HETATM   21  N   UNL     1      -9.939  12.146  68.942  1.00  0.00    -0.422 NA 
HETATM   22  H1  UNL     1     -10.891  12.411  69.195  1.00  0.00     0.000 HD 
BRANCH  19  23
HETATM   23  N   UNL     1      -9.889  13.792  67.201  1.00  0.00    -0.237 N  
HETATM   24  H   UNL     1      -9.281  14.500  66.788  1.00  0.00     0.000 HD 
BRANCH  23  25
HETATM   25  S   UNL     1     -11.481  13.881  66.973  1.00  0.00    -0.366 S  
HETATM   26  O   UNL     1     -11.765  14.815  65.909  1.00  0.00    -0.336 OA 
HETATM   27  O   UNL     1     -12.134  13.980  68.257  1.00  0.00    -0.355 OA 
HETATM   28  N   UNL     1     -11.907  12.379  66.368  1.00  0.00    -0.388 N  
HETATM   29  H1  UNL     1     -12.914  12.435  66.224  1.00  0.00     0.000 HD 
HETATM   30  H2  UNL     1     -11.294  11.584  66.184  1.00  0.00     0.000 HD 
ENDBRANCH  23  25
ENDBRANCH  19  23
ENDBRANCH  18  19
ENDBRANCH  17  18
ENDBRANCH  16  17
ENDBRANCH  15  16
ENDBRANCH  12  15
ENDBRANCH   5  10
TORSDOF 8
ENDMDL
MODEL      261
REMARK 921   NORMALIZED FREE ENERGY PREDICTED BY IDOCK:   -3.61 KCAL/MOL
REMARK 922        TOTAL FREE ENERGY PREDICTED BY IDOCK:   -6.48 KCAL/MOL
REMARK 923 INTER-LIGAND FREE ENERGY PREDICTED BY IDOCK:   -4.24 KCAL/MOL
REMARK 924 INTRA-LIGAND FREE ENERGY PREDICTED BY IDOCK:   -2.24 KCAL/MOL
REMARK 927      BINDING AFFINITY PREDICTED BY RF-SCORE:    0.00 PKD
ROOT
HETATM    1  N   UNL     1     -11.380  12.520  65.970  1.00  0.00    -0.325 NA 
HETATM    2  C   UNL     1     -10.420  11.676  66.419  1.00  0.00    -0.244 C  
HETATM    3  H2  UNL     1     -12.373  12.456  66.193  1.00  0.00     0.000 HD 
HETATM    4  H1  UNL     1     -10.954  13.231  65.376  1.00  0.00     0.000 HD 
HETATM    5  N   UNL     1      -9.186  11.855  66.093  1.00  0.00    -0.282 NA 
HETATM    6  N   UNL     1     -10.986  10.730  67.210  1.00  0.00    -0.303 NA 
HETATM    7  H2  UNL     1     -11.979  10.666  67.432  1.00  0.00     0.000 HD 
HETATM    8  H1  UNL     1     -10.263  10.095  67.548  1.00  0.00     0.000 HD 
HETATM    9  H   UNL     1      -8.912  12.639  65.501  1.00  0.00     0.000 HD 
ENDROOT
BRANCH   5  10
HETATM   10  C   UNL     1      -8.259  10.977  66.553  1.00  0.00    -0.161 A  
HETATM   11  N   UNL     1      -8.198   9.666  66.370  1.00  0.00    -0.118 NA 
HETATM   12  C   UNL     1      -7.076   9.127  66.994  1.00  0.00    -0.086 A  
HETATM   13  S   UNL     1      -6.948  11.615  67.489  1.00  0.00    -0.114 SA 
HETATM   14  C   UNL     1      -6.301  10.047  67.671  1.00  0.00    -0.059 A  
BRANCH  12  15
HETATM   15  C   UNL     1      -6.825   7.655  66.888  1.00  0.00    -0.068 C  
BRANCH  15  16
HETATM   16  S   UNL     1      -6.854   6.878  68.542  1.00  0.00    -0.072 SA 
BRANCH  16  17
HETATM   17  C   UNL     1      -8.482   6.050  68.495  1.00  0.00    -0.113 C  
BRANCH  17  18
HETATM   18  C   UNL     1      -9.479   6.528  69.544  1.00  0.00    -0.150 C  
BRANCH  18  19
HETATM   19  C   UNL     1     -10.474   7.550  68.996  1.00  0.00    -0.208 C  
HETATM   20  H2  UNL     1      -9.729   7.336  67.044  1.00  0.00     0.000 HD 
HETATM   21  N   UNL     1     -10.407   7.804  67.647  1.00  0.00    -0.223 NA 
HETATM   22  H1  UNL     1     -11.071   8.487  67.280  1.00  0.00     0.000 HD 
BRANCH  19  23
HETATM   23  N   UNL     1     -11.285   8.063  69.862  1.00  0.00    -0.448 N  
HETATM   24  H   UNL     1     -12.124   7.549  70.130  1.00  0.00     0.000 HD 
BRANCH  23  25
HETATM   25  S   UNL     1     -10.987   9.502  70.524  1.00  0.00    -0.312 S  
HETATM   26  O   UNL     1     -10.732   9.340  71.935  1.00  0.00    -0.339 OA 
HETATM   27  O   UNL     1     -11.959  10.452  70.038  1.00  0.00    -0.268 OA 
HETATM   28  N   UNL     1      -9.524   9.977  69.862  1.00  0.00    -0.343 N  
HETATM   29  H1  UNL     1      -9.336  10.888  70.281  1.00  0.00     0.000 HD 
HETATM   30  H2  UNL     1      -8.949   9.470  69.189  1.00  0.00     0.000 HD 
ENDBRANCH  23  25
ENDBRANCH  19  23
ENDBRANCH  18  19
ENDBRANCH  17  18
ENDBRANCH  16  17
ENDBRANCH  15  16
ENDBRANCH  12  15
ENDBRANCH   5  10
TORSDOF 8
ENDMDL
MODEL      262
REMARK 921   NORMALIZED FREE ENERGY PREDICTED BY IDOCK:   -3.60 KCAL/MOL
REMARK 922        TOTAL FREE ENERGY PREDICTED BY IDOCK:   -6.46 KCAL/MOL
REMARK 923 INTER-LIGAND FREE ENERGY PREDICTED BY IDOCK:   -6.19 KCAL/MOL
REMARK 924 INTRA-LIGAND FREE ENERGY PREDICTED BY IDOCK:   -0.26 KCAL/MOL
REMARK 927      BINDING AFFINITY PREDICTED BY RF-SCORE:    0.00 PKD
ROOT
HETATM    1  N   UNL     1     -13.743  15.728  72.947  1.00  0.00    -0.590 NA 
HETATM    2  C   UNL     1     -12.675  15.598  72.124  1.00  0.00    -0.435 C  
HETATM    3  H2  UNL     1     -13.714  15.673  73.965  1.00  0.00     0.000 HD 
HETATM    4  H1  UNL     1     -14.581  15.889  72.389  1.00  0.00     0.000 HD 
HETATM    5  N   UNL     1     -12.814  15.701  70.848  1.00  0.00    -0.474 NA 
HETATM    6  N   UNL     1     -11.559  15.383  72.867  1.00  0.00    -0.412 NA 
HETATM    7  H2  UNL     1     -11.530  15.328  73.885  1.00  0.00     0.000 HD 
HETATM    8  H1  UNL     1     -10.755  15.286  72.248  1.00  0.00     0.000 HD 
HETATM    9  H   UNL     1     -13.728  15.892  70.437  1.00  0.00     0.000 HD 
ENDROOT
BRANCH   5  10
HETATM   10  C   UNL     1     -11.719  15.550  70.060  1.00  0.00    -0.346 A  
HETATM   11  N   UNL     1     -11.052  14.442  69.774  1.00  0.00    -0.204 NA 
HETATM   12  C   UNL     1      -9.992  14.706  68.911  1.00  0.00    -0.228 A  
HETATM   13  S   UNL     1     -11.090  16.966  69.285  1.00  0.00     0.139 SA 
HETATM   14  C   UNL     1      -9.854  16.035  68.565  1.00  0.00    -0.216 A  
BRANCH  12  15
HETATM   15  C   UNL     1      -9.125  13.573  68.459  1.00  0.00    -0.092 C  
BRANCH  15  16
HETATM   16  S   UNL     1      -9.981  11.975  68.692  1.00  0.00    -0.084 SA 
BRANCH  16  17
HETATM   17  C   UNL     1     -11.102  11.981  67.248  1.00  0.00    -0.285 C  
BRANCH  17  18
HETATM   18  C   UNL     1     -11.549  13.362  66.785  1.00  0.00    -0.404 C  
BRANCH  18  19
HETATM   19  C   UNL     1     -12.610  13.307  65.687  1.00  0.00    -0.406 C  
HETATM   20  H2  UNL     1     -13.326  15.218  66.182  1.00  0.00     0.000 HD 
HETATM   21  N   UNL     1     -13.425  14.408  65.569  1.00  0.00    -0.477 NA 
HETATM   22  H1  UNL     1     -14.133  14.371  64.836  1.00  0.00     0.000 HD 
BRANCH  19  23
HETATM   23  N   UNL     1     -12.623  12.229  64.974  1.00  0.00    -0.244 N  
HETATM   24  H   UNL     1     -13.023  11.374  65.363  1.00  0.00     0.000 HD 
BRANCH  23  25
HETATM   25  S   UNL     1     -12.017  12.215  63.482  1.00  0.00    -0.512 S  
HETATM   26  O   UNL     1     -10.811  11.422  63.458  1.00  0.00    -0.391 OA 
HETATM   27  O   UNL     1     -12.047  13.558  62.951  1.00  0.00    -0.258 OA 
HETATM   28  N   UNL     1     -13.132  11.350  62.580  1.00  0.00    -0.276 N  
HETATM   29  H1  UNL     1     -12.749  11.342  61.636  1.00  0.00     0.000 HD 
HETATM   30  H2  UNL     1     -14.002  10.926  62.904  1.00  0.00     0.000 HD 
ENDBRANCH  23  25
ENDBRANCH  19  23
ENDBRANCH  18  19
ENDBRANCH  17  18
ENDBRANCH  16  17
ENDBRANCH  15  16
ENDBRANCH  12  15
ENDBRANCH   5  10
TORSDOF 8
ENDMDL
MODEL      263
REMARK 921   NORMALIZED FREE ENERGY PREDICTED BY IDOCK:   -3.60 KCAL/MOL
REMARK 922        TOTAL FREE ENERGY PREDICTED BY IDOCK:   -6.45 KCAL/MOL
REMARK 923 INTER-LIGAND FREE ENERGY PREDICTED BY IDOCK:   -5.02 KCAL/MOL
REMARK 924 INTRA-LIGAND FREE ENERGY PREDICTED BY IDOCK:   -1.44 KCAL/MOL
REMARK 927      BINDING AFFINITY PREDICTED BY RF-SCORE:    0.00 PKD
ROOT
HETATM    1  N   UNL     1      -6.203   8.942  72.965  1.00  0.00    -0.275 NA 
HETATM    2  C   UNL     1      -7.260   8.240  72.491  1.00  0.00    -0.103 C  
HETATM    3  H2  UNL     1      -5.222   8.705  72.814  1.00  0.00     0.000 HD 
HETATM    4  H1  UNL     1      -6.541   9.745  73.495  1.00  0.00     0.000 HD 
HETATM    5  N   UNL     1      -8.465   8.634  72.723  1.00  0.00    -0.418 NA 
HETATM    6  N   UNL     1      -6.811   7.172  71.786  1.00  0.00    -0.059 NA 
HETATM    7  H2  UNL     1      -5.831   6.935  71.635  1.00  0.00     0.000 HD 
HETATM    8  H1  UNL     1      -7.607   6.643  71.429  1.00  0.00     0.000 HD 
HETATM    9  H   UNL     1      -8.641   9.485  73.257  1.00  0.00     0.000 HD 
ENDROOT
BRANCH   5  10
HETATM   10  C   UNL     1      -9.495   7.892  72.241  1.00  0.00    -0.189 A  
HETATM   11  N   UNL     1      -9.727   7.512  70.994  1.00  0.00    -0.168 NA 
HETATM   12  C   UNL     1     -10.885   6.742  70.915  1.00  0.00    -0.249 A  
HETATM   13  S   UNL     1     -10.673   7.327  73.378  1.00  0.00    -0.304 SA 
HETATM   14  C   UNL     1     -11.538   6.566  72.119  1.00  0.00    -0.308 A  
BRANCH  12  15
HETATM   15  C   UNL     1     -11.309   6.205  69.584  1.00  0.00    -0.372 C  
BRANCH  15  16
HETATM   16  S   UNL     1      -9.906   5.391  68.743  1.00  0.00    -0.163 SA 
BRANCH  16  17
HETATM   17  C   UNL     1      -9.403   6.706  67.578  1.00  0.00    -0.123 C  
BRANCH  17  18
HETATM   18  C   UNL     1     -10.479   7.742  67.272  1.00  0.00    -0.392 C  
BRANCH  18  19
HETATM   19  C   UNL     1     -10.017   9.175  67.534  1.00  0.00    -0.205 C  
HETATM   20  H2  UNL     1      -8.105   8.529  68.114  1.00  0.00     0.000 HD 
HETATM   21  N   UNL     1      -8.723   9.328  67.972  1.00  0.00    -0.125 NA 
HETATM   22  H1  UNL     1      -8.415  10.285  68.147  1.00  0.00     0.000 HD 
BRANCH  19  23
HETATM   23  N   UNL     1     -10.894  10.096  67.306  1.00  0.00    -0.260 N  
HETATM   24  H   UNL     1     -11.579   9.965  66.562  1.00  0.00     0.000 HD 
BRANCH  23  25
HETATM   25  S   UNL     1     -10.919  11.450  68.179  1.00  0.00    -0.254 S  
HETATM   26  O   UNL     1     -12.237  12.036  68.123  1.00  0.00    -0.428 OA 
HETATM   27  O   UNL     1      -9.736  12.223  67.881  1.00  0.00    -0.190 OA 
HETATM   28  N   UNL     1     -10.732  10.935  69.762  1.00  0.00    -0.434 N  
HETATM   29  H1  UNL     1     -10.747  11.792  70.315  1.00  0.00     0.000 HD 
HETATM   30  H2  UNL     1     -10.625   9.978  70.099  1.00  0.00     0.000 HD 
ENDBRANCH  23  25
ENDBRANCH  19  23
ENDBRANCH  18  19
ENDBRANCH  17  18
ENDBRANCH  16  17
ENDBRANCH  15  16
ENDBRANCH  12  15
ENDBRANCH   5  10
TORSDOF 8
ENDMDL
MODEL      264
REMARK 921   NORMALIZED FREE ENERGY PREDICTED BY IDOCK:   -3.59 KCAL/MOL
REMARK 922        TOTAL FREE ENERGY PREDICTED BY IDOCK:   -6.45 KCAL/MOL
REMARK 923 INTER-LIGAND FREE ENERGY PREDICTED BY IDOCK:   -5.80 KCAL/MOL
REMARK 924 INTRA-LIGAND FREE ENERGY PREDICTED BY IDOCK:   -0.65 KCAL/MOL
REMARK 927      BINDING AFFINITY PREDICTED BY RF-SCORE:    0.00 PKD
ROOT
HETATM    1  N   UNL     1      -6.432  19.124  69.098  1.00  0.00    -0.277 NA 
HETATM    2  C   UNL     1      -7.564  18.602  68.567  1.00  0.00    -0.311 C  
HETATM    3  H2  UNL     1      -6.182  20.112  69.098  1.00  0.00     0.000 HD 
HETATM    4  H1  UNL     1      -5.870  18.373  69.499  1.00  0.00     0.000 HD 
HETATM    5  N   UNL     1      -7.797  17.336  68.636  1.00  0.00    -0.265 NA 
HETATM    6  N   UNL     1      -8.312  19.600  68.034  1.00  0.00    -0.302 NA 
HETATM    7  H2  UNL     1      -8.062  20.589  68.033  1.00  0.00     0.000 HD 
HETATM    8  H1  UNL     1      -9.165  19.207  67.635  1.00  0.00     0.000 HD 
HETATM    9  H   UNL     1      -7.139  16.710  69.099  1.00  0.00     0.000 HD 
ENDROOT
BRANCH   5  10
HETATM   10  C   UNL     1      -8.938  16.855  68.078  1.00  0.00    -0.224 A  
HETATM   11  N   UNL     1      -9.165  16.523  66.816  1.00  0.00    -0.222 NA 
HETATM   12  C   UNL     1     -10.464  16.050  66.652  1.00  0.00    -0.304 A  
HETATM   13  S   UNL     1     -10.294  16.600  69.125  1.00  0.00    -0.330 SA 
HETATM   14  C   UNL     1     -11.224  16.050  67.804  1.00  0.00    -0.231 A  
BRANCH  12  15
HETATM   15  C   UNL     1     -10.909  15.611  65.292  1.00  0.00    -0.406 C  
BRANCH  15  16
HETATM   16  S   UNL     1     -10.513  13.847  65.024  1.00  0.00    -0.414 SA 
BRANCH  16  17
HETATM   17  C   UNL     1     -10.605  13.218  66.737  1.00  0.00    -0.276 C  
BRANCH  17  18
HETATM   18  C   UNL     1     -11.858  12.416  67.063  1.00  0.00    -0.368 C  
BRANCH  18  19
HETATM   19  C   UNL     1     -11.549  11.070  67.719  1.00  0.00    -0.194 C  
HETATM   20  H2  UNL     1     -12.771  11.512  69.368  1.00  0.00     0.000 HD 
HETATM   21  N   UNL     1     -12.152  10.829  68.930  1.00  0.00    -0.749 NA 
HETATM   22  H1  UNL     1     -11.945   9.931  69.368  1.00  0.00     0.000 HD 
BRANCH  19  23
HETATM   23  N   UNL     1     -10.758  10.293  67.056  1.00  0.00    -0.242 N  
HETATM   24  H   UNL     1     -11.032   9.968  66.129  1.00  0.00     0.000 HD 
BRANCH  23  25
HETATM   25  S   UNL     1      -9.344   9.829  67.674  1.00  0.00    -0.141 S  
HETATM   26  O   UNL     1      -8.282  10.174  66.759  1.00  0.00    -0.121 OA 
HETATM   27  O   UNL     1      -9.478   8.493  68.203  1.00  0.00    -0.139 OA 
HETATM   28  N   UNL     1      -9.119  10.820  69.006  1.00  0.00    -0.282 N  
HETATM   29  H1  UNL     1      -8.225  10.526  69.396  1.00  0.00     0.000 HD 
HETATM   30  H2  UNL     1      -9.740  11.553  69.349  1.00  0.00     0.000 HD 
ENDBRANCH  23  25
ENDBRANCH  19  23
ENDBRANCH  18  19
ENDBRANCH  17  18
ENDBRANCH  16  17
ENDBRANCH  15  16
ENDBRANCH  12  15
ENDBRANCH   5  10
TORSDOF 8
ENDMDL
MODEL      265
REMARK 921   NORMALIZED FREE ENERGY PREDICTED BY IDOCK:   -3.58 KCAL/MOL
REMARK 922        TOTAL FREE ENERGY PREDICTED BY IDOCK:   -6.43 KCAL/MOL
REMARK 923 INTER-LIGAND FREE ENERGY PREDICTED BY IDOCK:   -5.70 KCAL/MOL
REMARK 924 INTRA-LIGAND FREE ENERGY PREDICTED BY IDOCK:   -0.73 KCAL/MOL
REMARK 927      BINDING AFFINITY PREDICTED BY RF-SCORE:    0.00 PKD
ROOT
HETATM    1  N   UNL     1     -13.333   8.865  71.970  1.00  0.00    -0.390 NA 
HETATM    2  C   UNL     1     -12.840  10.106  71.740  1.00  0.00    -0.452 C  
HETATM    3  H2  UNL     1     -12.796   7.999  71.928  1.00  0.00     0.000 HD 
HETATM    4  H1  UNL     1     -14.326   8.932  72.193  1.00  0.00     0.000 HD 
HETATM    5  N   UNL     1     -13.601  11.141  71.836  1.00  0.00    -0.228 NA 
HETATM    6  N   UNL     1     -11.519  10.017  71.443  1.00  0.00    -0.328 NA 
HETATM    7  H2  UNL     1     -10.981   9.151  71.401  1.00  0.00     0.000 HD 
HETATM    8  H1  UNL     1     -11.148  10.951  71.271  1.00  0.00     0.000 HD 
HETATM    9  H   UNL     1     -14.582  11.044  72.097  1.00  0.00     0.000 HD 
ENDROOT
BRANCH   5  10
HETATM   10  C   UNL     1     -13.068  12.364  71.583  1.00  0.00    -0.307 A  
HETATM   11  N   UNL     1     -12.158  12.699  70.681  1.00  0.00    -0.315 NA 
HETATM   12  C   UNL     1     -11.890  14.065  70.727  1.00  0.00    -0.215 A  
HETATM   13  S   UNL     1     -13.646  13.698  72.525  1.00  0.00    -0.504 SA 
HETATM   14  C   UNL     1     -12.596  14.755  71.692  1.00  0.00    -0.328 A  
BRANCH  12  15
HETATM   15  C   UNL     1     -10.893  14.641  69.770  1.00  0.00    -0.152 C  
BRANCH  15  16
HETATM   16  S   UNL     1     -11.684  15.883  68.688  1.00  0.00    -0.211 SA 
BRANCH  16  17
HETATM   17  C   UNL     1     -10.343  17.117  68.557  1.00  0.00    -0.364 C  
BRANCH  17  18
HETATM   18  C   UNL     1      -8.947  16.587  68.860  1.00  0.00    -0.245 C  
BRANCH  18  19
HETATM   19  C   UNL     1      -7.838  17.466  68.281  1.00  0.00    -0.247 C  
HETATM   20  H2  UNL     1      -6.427  16.702  69.636  1.00  0.00     0.000 HD 
HETATM   21  N   UNL     1      -6.598  17.344  68.862  1.00  0.00    -0.207 NA 
HETATM   22  H1  UNL     1      -5.858  17.931  68.477  1.00  0.00     0.000 HD 
BRANCH  19  23
HETATM   23  N   UNL     1      -8.183  18.227  67.297  1.00  0.00    -0.235 N  
HETATM   24  H   UNL     1      -8.913  17.918  66.654  1.00  0.00     0.000 HD 
BRANCH  23  25
HETATM   25  S   UNL     1      -7.479  19.658  67.070  1.00  0.00    -0.240 S  
HETATM   26  O   UNL     1      -6.072  19.467  66.808  1.00  0.00    -0.176 OA 
HETATM   27  O   UNL     1      -7.939  20.575  68.086  1.00  0.00    -0.079 OA 
HETATM   28  N   UNL     1      -8.123  20.223  65.630  1.00  0.00    -0.477 N  
HETATM   29  H1  UNL     1      -7.677  21.129  65.487  1.00  0.00     0.000 HD 
HETATM   30  H2  UNL     1      -8.808  19.764  65.031  1.00  0.00     0.000 HD 
ENDBRANCH  23  25
ENDBRANCH  19  23
ENDBRANCH  18  19
ENDBRANCH  17  18
ENDBRANCH  16  17
ENDBRANCH  15  16
ENDBRANCH  12  15
ENDBRANCH   5  10
TORSDOF 8
ENDMDL
MODEL      266
REMARK 921   NORMALIZED FREE ENERGY PREDICTED BY IDOCK:   -3.58 KCAL/MOL
REMARK 922        TOTAL FREE ENERGY PREDICTED BY IDOCK:   -6.42 KCAL/MOL
REMARK 923 INTER-LIGAND FREE ENERGY PREDICTED BY IDOCK:   -5.17 KCAL/MOL
REMARK 924 INTRA-LIGAND FREE ENERGY PREDICTED BY IDOCK:   -1.25 KCAL/MOL
REMARK 927      BINDING AFFINITY PREDICTED BY RF-SCORE:    0.00 PKD
ROOT
HETATM    1  N   UNL     1     -13.880   9.929  72.478  1.00  0.00    -0.570 NA 
HETATM    2  C   UNL     1     -12.865   9.129  72.072  1.00  0.00    -0.408 C  
HETATM    3  H2  UNL     1     -14.349  10.626  71.900  1.00  0.00     0.000 HD 
HETATM    4  H1  UNL     1     -14.101   9.725  73.452  1.00  0.00     0.000 HD 
HETATM    5  N   UNL     1     -12.350   8.265  72.877  1.00  0.00    -0.631 NA 
HETATM    6  N   UNL     1     -12.570   9.399  70.776  1.00  0.00    -0.504 NA 
HETATM    7  H2  UNL     1     -13.039  10.096  70.198  1.00  0.00     0.000 HD 
HETATM    8  H1  UNL     1     -11.806   8.796  70.470  1.00  0.00     0.000 HD 
HETATM    9  H   UNL     1     -12.703   8.163  73.828  1.00  0.00     0.000 HD 
ENDROOT
BRANCH   5  10
HETATM   10  C   UNL     1     -11.325   7.493  72.433  1.00  0.00    -0.312 A  
HETATM   11  N   UNL     1     -11.379   6.375  71.724  1.00  0.00    -0.275 NA 
HETATM   12  C   UNL     1     -10.100   5.895  71.453  1.00  0.00    -0.197 A  
HETATM   13  S   UNL     1      -9.714   8.015  72.797  1.00  0.00    -0.288 SA 
HETATM   14  C   UNL     1      -9.078   6.654  71.986  1.00  0.00    -0.139 A  
BRANCH  12  15
HETATM   15  C   UNL     1      -9.952   4.642  70.647  1.00  0.00    -0.223 C  
BRANCH  15  16
HETATM   16  S   UNL     1      -8.193   4.165  70.517  1.00  0.00    -0.062 SA 
BRANCH  16  17
HETATM   17  C   UNL     1      -7.963   4.217  68.705  1.00  0.00    -0.072 C  
BRANCH  17  18
HETATM   18  C   UNL     1      -6.940   5.234  68.214  1.00  0.00    -0.061 C  
BRANCH  18  19
HETATM   19  C   UNL     1      -7.584   6.501  67.649  1.00  0.00    -0.105 C  
HETATM   20  H2  UNL     1      -5.784   7.102  66.751  1.00  0.00     0.000 HD 
HETATM   21  N   UNL     1      -6.766   7.324  66.912  1.00  0.00    -0.062 NA 
HETATM   22  H1  UNL     1      -7.196   8.169  66.536  1.00  0.00     0.000 HD 
BRANCH  19  23
HETATM   23  N   UNL     1      -8.838   6.659  67.918  1.00  0.00    -0.116 N  
HETATM   24  H   UNL     1      -9.161   6.566  68.881  1.00  0.00     0.000 HD 
BRANCH  23  25
HETATM   25  S   UNL     1      -9.897   7.001  66.754  1.00  0.00    -0.169 S  
HETATM   26  O   UNL     1      -9.628   8.318  66.228  1.00  0.00    -0.220 OA 
HETATM   27  O   UNL     1     -11.219   6.622  67.195  1.00  0.00    -0.392 OA 
HETATM   28  N   UNL     1      -9.517   5.944  65.512  1.00  0.00    -0.364 N  
HETATM   29  H1  UNL     1     -10.188   6.160  64.776  1.00  0.00     0.000 HD 
HETATM   30  H2  UNL     1      -8.779   5.239  65.496  1.00  0.00     0.000 HD 
ENDBRANCH  23  25
ENDBRANCH  19  23
ENDBRANCH  18  19
ENDBRANCH  17  18
ENDBRANCH  16  17
ENDBRANCH  15  16
ENDBRANCH  12  15
ENDBRANCH   5  10
TORSDOF 8
ENDMDL
MODEL      267
REMARK 921   NORMALIZED FREE ENERGY PREDICTED BY IDOCK:   -3.57 KCAL/MOL
REMARK 922        TOTAL FREE ENERGY PREDICTED BY IDOCK:   -6.42 KCAL/MOL
REMARK 923 INTER-LIGAND FREE ENERGY PREDICTED BY IDOCK:   -4.85 KCAL/MOL
REMARK 924 INTRA-LIGAND FREE ENERGY PREDICTED BY IDOCK:   -1.57 KCAL/MOL
REMARK 927      BINDING AFFINITY PREDICTED BY RF-SCORE:    0.00 PKD
ROOT
HETATM    1  N   UNL     1      -6.171  10.468  64.549  1.00  0.00    -0.337 NA 
HETATM    2  C   UNL     1      -7.339  10.454  65.237  1.00  0.00    -0.108 C  
HETATM    3  H2  UNL     1      -6.081  10.610  63.543  1.00  0.00     0.000 HD 
HETATM    4  H1  UNL     1      -5.397  10.316  65.195  1.00  0.00     0.000 HD 
HETATM    5  N   UNL     1      -7.344  10.284  66.514  1.00  0.00    -0.108 NA 
HETATM    6  N   UNL     1      -8.369  10.656  64.378  1.00  0.00    -0.338 NA 
HETATM    7  H2  UNL     1      -8.279  10.798  63.372  1.00  0.00     0.000 HD 
HETATM    8  H1  UNL     1      -9.248  10.646  64.895  1.00  0.00     0.000 HD 
HETATM    9  H   UNL     1      -6.471  10.168  67.028  1.00  0.00     0.000 HD 
ENDROOT
BRANCH   5  10
HETATM   10  C   UNL     1      -8.538  10.263  67.161  1.00  0.00    -0.126 A  
HETATM   11  N   UNL     1      -9.572  11.077  67.015  1.00  0.00    -0.176 NA 
HETATM   12  C   UNL     1     -10.620  10.707  67.854  1.00  0.00    -0.228 A  
HETATM   13  S   UNL     1      -8.795   9.004  68.323  1.00  0.00    -0.133 SA 
HETATM   14  C   UNL     1     -10.354   9.614  68.654  1.00  0.00    -0.203 A  
BRANCH  12  15
HETATM   15  C   UNL     1     -11.888  11.502  67.825  1.00  0.00    -0.154 C  
BRANCH  15  16
HETATM   16  S   UNL     1     -11.753  12.969  68.907  1.00  0.00    -0.331 SA 
BRANCH  16  17
HETATM   17  C   UNL     1     -12.076  14.305  67.703  1.00  0.00    -0.297 C  
BRANCH  17  18
HETATM   18  C   UNL     1     -11.206  14.270  66.452  1.00  0.00    -0.337 C  
BRANCH  18  19
HETATM   19  C   UNL     1      -9.876  15.002  66.631  1.00  0.00    -0.254 C  
HETATM   20  H2  UNL     1      -8.779  13.252  66.251  1.00  0.00     0.000 HD 
HETATM   21  N   UNL     1      -8.739  14.246  66.475  1.00  0.00    -0.462 NA 
HETATM   22  H1  UNL     1      -7.851  14.734  66.595  1.00  0.00     0.000 HD 
BRANCH  19  23
HETATM   23  N   UNL     1      -9.962  16.262  66.903  1.00  0.00    -0.253 N  
HETATM   24  H   UNL     1     -10.488  16.876  66.280  1.00  0.00     0.000 HD 
BRANCH  23  25
HETATM   25  S   UNL     1      -9.252  16.877  68.212  1.00  0.00    -0.248 S  
HETATM   26  O   UNL     1      -9.190  15.871  69.245  1.00  0.00    -0.238 OA 
HETATM   27  O   UNL     1      -9.797  18.189  68.469  1.00  0.00    -0.343 OA 
HETATM   28  N   UNL     1      -7.663  17.134  67.749  1.00  0.00    -0.175 N  
HETATM   29  H1  UNL     1      -7.214  17.523  68.577  1.00  0.00     0.000 HD 
HETATM   30  H2  UNL     1      -7.239  16.943  66.841  1.00  0.00     0.000 HD 
ENDBRANCH  23  25
ENDBRANCH  19  23
ENDBRANCH  18  19
ENDBRANCH  17  18
ENDBRANCH  16  17
ENDBRANCH  15  16
ENDBRANCH  12  15
ENDBRANCH   5  10
TORSDOF 8
ENDMDL
MODEL      268
REMARK 921   NORMALIZED FREE ENERGY PREDICTED BY IDOCK:   -3.56 KCAL/MOL
REMARK 922        TOTAL FREE ENERGY PREDICTED BY IDOCK:   -6.40 KCAL/MOL
REMARK 923 INTER-LIGAND FREE ENERGY PREDICTED BY IDOCK:   -4.87 KCAL/MOL
REMARK 924 INTRA-LIGAND FREE ENERGY PREDICTED BY IDOCK:   -1.52 KCAL/MOL
REMARK 927      BINDING AFFINITY PREDICTED BY RF-SCORE:    0.00 PKD
ROOT
HETATM    1  N   UNL     1      -7.552   8.584  65.373  1.00  0.00    -0.085 NA 
HETATM    2  C   UNL     1      -7.966   7.733  66.343  1.00  0.00    -0.099 C  
HETATM    3  H2  UNL     1      -6.781   8.413  64.728  1.00  0.00     0.000 HD 
HETATM    4  H1  UNL     1      -8.133   9.421  65.389  1.00  0.00     0.000 HD 
HETATM    5  N   UNL     1      -8.965   8.036  67.098  1.00  0.00    -0.133 NA 
HETATM    6  N   UNL     1      -7.193   6.618  66.322  1.00  0.00    -0.071 NA 
HETATM    7  H2  UNL     1      -6.422   6.447  65.677  1.00  0.00     0.000 HD 
HETATM    8  H1  UNL     1      -7.504   5.977  67.052  1.00  0.00     0.000 HD 
HETATM    9  H   UNL     1      -9.467   8.914  66.970  1.00  0.00     0.000 HD 
ENDROOT
BRANCH   5  10
HETATM   10  C   UNL     1      -9.337   7.159  68.066  1.00  0.00    -0.129 A  
HETATM   11  N   UNL     1      -8.741   6.902  69.221  1.00  0.00    -0.135 NA 
HETATM   12  C   UNL     1      -9.450   5.947  69.945  1.00  0.00    -0.150 A  
HETATM   13  S   UNL     1     -10.791   6.254  67.810  1.00  0.00    -0.338 SA 
HETATM   14  C   UNL     1     -10.579   5.469  69.310  1.00  0.00    -0.255 A  
BRANCH  12  15
HETATM   15  C   UNL     1      -8.940   5.531  71.289  1.00  0.00    -0.142 C  
BRANCH  15  16
HETATM   16  S   UNL     1     -10.300   4.872  72.317  1.00  0.00    -0.201 SA 
BRANCH  16  17
HETATM   17  C   UNL     1     -11.144   6.421  72.792  1.00  0.00    -0.248 C  
BRANCH  17  18
HETATM   18  C   UNL     1     -12.512   6.632  72.154  1.00  0.00    -0.207 C  
BRANCH  18  19
HETATM   19  C   UNL     1     -12.813   8.102  71.865  1.00  0.00    -0.335 C  
HETATM   20  H2  UNL     1     -13.496   8.422  73.825  1.00  0.00     0.000 HD 
HETATM   21  N   UNL     1     -13.326   8.836  72.908  1.00  0.00    -0.837 NA 
HETATM   22  H1  UNL     1     -13.528   9.817  72.716  1.00  0.00     0.000 HD 
BRANCH  19  23
HETATM   23  N   UNL     1     -12.544   8.504  70.668  1.00  0.00    -0.392 N  
HETATM   24  H   UNL     1     -12.976   8.036  69.871  1.00  0.00     0.000 HD 
BRANCH  23  25
HETATM   25  S   UNL     1     -11.535   9.735  70.414  1.00  0.00    -0.276 S  
HETATM   26  O   UNL     1     -12.046  10.918  71.065  1.00  0.00    -0.338 OA 
HETATM   27  O   UNL     1     -11.149   9.747  69.023  1.00  0.00    -0.196 OA 
HETATM   28  N   UNL     1     -10.150   9.328  71.262  1.00  0.00    -0.307 N  
HETATM   29  H1  UNL     1      -9.512  10.106  71.102  1.00  0.00     0.000 HD 
HETATM   30  H2  UNL     1      -9.981   8.487  71.816  1.00  0.00     0.000 HD 
ENDBRANCH  23  25
ENDBRANCH  19  23
ENDBRANCH  18  19
ENDBRANCH  17  18
ENDBRANCH  16  17
ENDBRANCH  15  16
ENDBRANCH  12  15
ENDBRANCH   5  10
TORSDOF 8
ENDMDL
MODEL      269
REMARK 921   NORMALIZED FREE ENERGY PREDICTED BY IDOCK:   -3.55 KCAL/MOL
REMARK 922        TOTAL FREE ENERGY PREDICTED BY IDOCK:   -6.39 KCAL/MOL
REMARK 923 INTER-LIGAND FREE ENERGY PREDICTED BY IDOCK:   -4.80 KCAL/MOL
REMARK 924 INTRA-LIGAND FREE ENERGY PREDICTED BY IDOCK:   -1.59 KCAL/MOL
REMARK 927      BINDING AFFINITY PREDICTED BY RF-SCORE:    0.00 PKD
ROOT
HETATM    1  N   UNL     1      -9.444   6.838  67.675  1.00  0.00    -0.119 NA 
HETATM    2  C   UNL     1      -9.760   8.137  67.455  1.00  0.00    -0.170 C  
HETATM    3  H2  UNL     1     -10.059   6.145  68.102  1.00  0.00     0.000 HD 
HETATM    4  H1  UNL     1      -8.495   6.662  67.348  1.00  0.00     0.000 HD 
HETATM    5  N   UNL     1      -8.915   8.930  66.892  1.00  0.00    -0.125 NA 
HETATM    6  N   UNL     1     -11.023   8.372  67.890  1.00  0.00    -0.476 NA 
HETATM    7  H2  UNL     1     -11.639   7.679  68.316  1.00  0.00     0.000 HD 
HETATM    8  H1  UNL     1     -11.262   9.350  67.724  1.00  0.00     0.000 HD 
HETATM    9  H   UNL     1      -8.000   8.591  66.594  1.00  0.00     0.000 HD 
ENDROOT
BRANCH   5  10
HETATM   10  C   UNL     1      -9.269  10.227  66.703  1.00  0.00    -0.155 A  
HETATM   11  N   UNL     1      -9.243  11.227  67.571  1.00  0.00    -0.157 NA 
HETATM   12  C   UNL     1      -9.669  12.413  66.980  1.00  0.00    -0.211 A  
HETATM   13  S   UNL     1      -9.808  10.687  65.122  1.00  0.00    -0.308 SA 
HETATM   14  C   UNL     1     -10.040  12.291  65.656  1.00  0.00    -0.252 A  
BRANCH  12  15
HETATM   15  C   UNL     1      -9.697  13.664  67.802  1.00  0.00    -0.225 C  
BRANCH  15  16
HETATM   16  S   UNL     1     -11.420  14.161  68.157  1.00  0.00    -0.329 SA 
BRANCH  16  17
HETATM   17  C   UNL     1     -12.130  12.562  68.684  1.00  0.00    -0.093 C  
BRANCH  17  18
HETATM   18  C   UNL     1     -12.030  12.273  70.177  1.00  0.00    -0.377 C  
BRANCH  18  19
HETATM   19  C   UNL     1     -12.195  10.790  70.508  1.00  0.00    -0.366 C  
HETATM   20  H2  UNL     1     -13.687  10.556  69.048  1.00  0.00     0.000 HD 
HETATM   21  N   UNL     1     -13.132  10.102  69.774  1.00  0.00    -0.267 NA 
HETATM   22  H1  UNL     1     -13.243   9.112  69.995  1.00  0.00     0.000 HD 
BRANCH  19  23
HETATM   23  N   UNL     1     -11.425  10.335  71.440  1.00  0.00    -0.186 N  
HETATM   24  H   UNL     1     -11.305  10.872  72.299  1.00  0.00     0.000 HD 
BRANCH  23  25
HETATM   25  S   UNL     1     -10.652   8.932  71.265  1.00  0.00    -0.310 S  
HETATM   26  O   UNL     1      -9.424   9.145  70.538  1.00  0.00    -0.202 OA 
HETATM   27  O   UNL     1     -11.601   7.920  70.863  1.00  0.00    -0.284 OA 
HETATM   28  N   UNL     1     -10.180   8.513  72.817  1.00  0.00    -0.187 N  
HETATM   29  H1  UNL     1      -9.691   7.626  72.706  1.00  0.00     0.000 HD 
HETATM   30  H2  UNL     1     -10.345   9.031  73.680  1.00  0.00     0.000 HD 
ENDBRANCH  23  25
ENDBRANCH  19  23
ENDBRANCH  18  19
ENDBRANCH  17  18
ENDBRANCH  16  17
ENDBRANCH  15  16
ENDBRANCH  12  15
ENDBRANCH   5  10
TORSDOF 8
ENDMDL
MODEL      270
REMARK 921   NORMALIZED FREE ENERGY PREDICTED BY IDOCK:   -3.55 KCAL/MOL
REMARK 922        TOTAL FREE ENERGY PREDICTED BY IDOCK:   -6.39 KCAL/MOL
REMARK 923 INTER-LIGAND FREE ENERGY PREDICTED BY IDOCK:   -5.41 KCAL/MOL
REMARK 924 INTRA-LIGAND FREE ENERGY PREDICTED BY IDOCK:   -0.98 KCAL/MOL
REMARK 927      BINDING AFFINITY PREDICTED BY RF-SCORE:    0.00 PKD
ROOT
HETATM    1  N   UNL     1      -8.503   5.422  72.838  1.00  0.00    -0.119 NA 
HETATM    2  C   UNL     1      -9.082   5.914  71.716  1.00  0.00    -0.142 C  
HETATM    3  H2  UNL     1      -8.787   5.641  73.793  1.00  0.00     0.000 HD 
HETATM    4  H1  UNL     1      -7.740   4.799  72.578  1.00  0.00     0.000 HD 
HETATM    5  N   UNL     1      -8.660   5.561  70.552  1.00  0.00    -0.122 NA 
HETATM    6  N   UNL     1     -10.099   6.744  72.062  1.00  0.00    -0.183 NA 
HETATM    7  H2  UNL     1     -10.382   6.963  73.017  1.00  0.00     0.000 HD 
HETATM    8  H1  UNL     1     -10.535   7.114  71.218  1.00  0.00     0.000 HD 
HETATM    9  H   UNL     1      -7.890   4.899  70.456  1.00  0.00     0.000 HD 
ENDROOT
BRANCH   5  10
HETATM   10  C   UNL     1      -9.260   6.089  69.454  1.00  0.00    -0.132 A  
HETATM   11  N   UNL     1      -9.321   7.357  69.074  1.00  0.00    -0.146 NA 
HETATM   12  C   UNL     1     -10.017   7.485  67.875  1.00  0.00    -0.165 A  
HETATM   13  S   UNL     1     -10.043   4.993  68.366  1.00  0.00    -0.065 SA 
HETATM   14  C   UNL     1     -10.501   6.297  67.365  1.00  0.00    -0.248 A  
BRANCH  12  15
HETATM   15  C   UNL     1     -10.181   8.846  67.274  1.00  0.00    -0.258 C  
BRANCH  15  16
HETATM   16  S   UNL     1     -11.140   9.930  68.389  1.00  0.00    -0.072 SA 
BRANCH  16  17
HETATM   17  C   UNL     1      -9.980  11.328  68.579  1.00  0.00    -0.202 C  
BRANCH  17  18
HETATM   18  C   UNL     1     -10.361  12.591  67.815  1.00  0.00    -0.224 C  
BRANCH  18  19
HETATM   19  C   UNL     1     -10.349  12.395  66.299  1.00  0.00    -0.244 C  
HETATM   20  H2  UNL     1      -8.263  12.161  66.272  1.00  0.00     0.000 HD 
HETATM   21  N   UNL     1      -9.121  12.185  65.721  1.00  0.00    -0.436 NA 
HETATM   22  H1  UNL     1      -9.113  12.054  64.709  1.00  0.00     0.000 HD 
BRANCH  19  23
HETATM   23  N   UNL     1     -11.504  12.438  65.720  1.00  0.00    -0.352 N  
HETATM   24  H   UNL     1     -12.177  11.690  65.887  1.00  0.00     0.000 HD 
BRANCH  23  25
HETATM   25  S   UNL     1     -11.894  13.655  64.740  1.00  0.00    -0.409 S  
HETATM   26  O   UNL     1     -10.757  14.531  64.582  1.00  0.00    -0.399 OA 
HETATM   27  O   UNL     1     -13.191  14.165  65.118  1.00  0.00    -0.743 OA 
HETATM   28  N   UNL     1     -12.112  12.939  63.242  1.00  0.00    -0.745 N  
HETATM   29  H1  UNL     1     -12.359  13.709  62.622  1.00  0.00     0.000 HD 
HETATM   30  H2  UNL     1     -12.019  11.951  63.003  1.00  0.00     0.000 HD 
ENDBRANCH  23  25
ENDBRANCH  19  23
ENDBRANCH  18  19
ENDBRANCH  17  18
ENDBRANCH  16  17
ENDBRANCH  15  16
ENDBRANCH  12  15
ENDBRANCH   5  10
TORSDOF 8
ENDMDL
MODEL      271
REMARK 921   NORMALIZED FREE ENERGY PREDICTED BY IDOCK:   -3.54 KCAL/MOL
REMARK 922        TOTAL FREE ENERGY PREDICTED BY IDOCK:   -6.38 KCAL/MOL
REMARK 923 INTER-LIGAND FREE ENERGY PREDICTED BY IDOCK:   -4.16 KCAL/MOL
REMARK 924 INTRA-LIGAND FREE ENERGY PREDICTED BY IDOCK:   -2.21 KCAL/MOL
REMARK 927      BINDING AFFINITY PREDICTED BY RF-SCORE:    0.00 PKD
ROOT
HETATM    1  N   UNL     1      -6.681   7.165  66.536  1.00  0.00    -0.055 NA 
HETATM    2  C   UNL     1      -7.361   8.280  66.897  1.00  0.00    -0.084 C  
HETATM    3  H2  UNL     1      -6.838   6.231  66.913  1.00  0.00     0.000 HD 
HETATM    4  H1  UNL     1      -5.990   7.407  65.827  1.00  0.00     0.000 HD 
HETATM    5  N   UNL     1      -7.099   9.415  66.346  1.00  0.00    -0.087 NA 
HETATM    6  N   UNL     1      -8.282   7.960  67.841  1.00  0.00    -0.128 NA 
HETATM    7  H2  UNL     1      -8.438   7.025  68.219  1.00  0.00     0.000 HD 
HETATM    8  H1  UNL     1      -8.794   8.799  68.113  1.00  0.00     0.000 HD 
HETATM    9  H   UNL     1      -6.384   9.490  65.622  1.00  0.00     0.000 HD 
ENDROOT
BRANCH   5  10
HETATM   10  C   UNL     1      -7.795  10.509  66.748  1.00  0.00    -0.121 A  
HETATM   11  N   UNL     1      -9.094  10.745  66.649  1.00  0.00    -0.157 NA 
HETATM   12  C   UNL     1      -9.420  11.982  67.200  1.00  0.00    -0.187 A  
HETATM   13  S   UNL     1      -6.909  11.780  67.522  1.00  0.00    -0.126 SA 
HETATM   14  C   UNL     1      -8.343  12.688  67.697  1.00  0.00    -0.174 A  
BRANCH  12  15
HETATM   15  C   UNL     1     -10.850  12.424  67.195  1.00  0.00    -0.245 C  
BRANCH  15  16
HETATM   16  S   UNL     1     -11.411  12.804  68.892  1.00  0.00    -0.325 SA 
BRANCH  16  17
HETATM   17  C   UNL     1     -12.372  11.297  69.274  1.00  0.00    -0.104 C  
BRANCH  17  18
HETATM   18  C   UNL     1     -12.010  10.618  70.590  1.00  0.00    -0.466 C  
BRANCH  18  19
HETATM   19  C   UNL     1     -10.956   9.524  70.424  1.00  0.00    -0.278 C  
HETATM   20  H2  UNL     1     -11.415   9.289  68.389  1.00  0.00     0.000 HD 
HETATM   21  N   UNL     1     -10.834   8.980  69.168  1.00  0.00    -0.399 NA 
HETATM   22  H1  UNL     1     -10.130   8.250  69.057  1.00  0.00     0.000 HD 
BRANCH  19  23
HETATM   23  N   UNL     1     -10.280   9.232  71.486  1.00  0.00    -0.321 N  
HETATM   24  H   UNL     1     -10.736   9.270  72.398  1.00  0.00     0.000 HD 
BRANCH  23  25
HETATM   25  S   UNL     1      -8.728   8.810  71.390  1.00  0.00    -0.198 S  
HETATM   26  O   UNL     1      -8.180   8.683  72.720  1.00  0.00    -0.385 OA 
HETATM   27  O   UNL     1      -8.083   9.618  70.383  1.00  0.00    -0.180 OA 
HETATM   28  N   UNL     1      -8.751   7.254  70.772  1.00  0.00    -0.145 N  
HETATM   29  H1  UNL     1      -7.769   6.987  70.711  1.00  0.00     0.000 HD 
HETATM   30  H2  UNL     1      -9.566   6.697  70.513  1.00  0.00     0.000 HD 
ENDBRANCH  23  25
ENDBRANCH  19  23
ENDBRANCH  18  19
ENDBRANCH  17  18
ENDBRANCH  16  17
ENDBRANCH  15  16
ENDBRANCH  12  15
ENDBRANCH   5  10
TORSDOF 8
ENDMDL
MODEL      272
REMARK 921   NORMALIZED FREE ENERGY PREDICTED BY IDOCK:   -3.54 KCAL/MOL
REMARK 922        TOTAL FREE ENERGY PREDICTED BY IDOCK:   -6.37 KCAL/MOL
REMARK 923 INTER-LIGAND FREE ENERGY PREDICTED BY IDOCK:   -5.58 KCAL/MOL
REMARK 924 INTRA-LIGAND FREE ENERGY PREDICTED BY IDOCK:   -0.79 KCAL/MOL
REMARK 927      BINDING AFFINITY PREDICTED BY RF-SCORE:    0.00 PKD
ROOT
HETATM    1  N   UNL     1     -14.017  13.218  72.693  1.00  0.00    -0.734 NA 
HETATM    2  C   UNL     1     -13.132  12.767  71.771  1.00  0.00    -0.356 C  
HETATM    3  H2  UNL     1     -14.031  14.159  73.086  1.00  0.00     0.000 HD 
HETATM    4  H1  UNL     1     -14.667  12.470  72.932  1.00  0.00     0.000 HD 
HETATM    5  N   UNL     1     -13.211  11.561  71.324  1.00  0.00    -0.149 NA 
HETATM    6  N   UNL     1     -12.267  13.762  71.453  1.00  0.00    -0.353 NA 
HETATM    7  H2  UNL     1     -12.281  14.703  71.846  1.00  0.00     0.000 HD 
HETATM    8  H1  UNL     1     -11.602  13.423  70.759  1.00  0.00     0.000 HD 
HETATM    9  H   UNL     1     -13.945  10.932  71.647  1.00  0.00     0.000 HD 
ENDROOT
BRANCH   5  10
HETATM   10  C   UNL     1     -12.295  11.146  70.411  1.00  0.00    -0.344 A  
HETATM   11  N   UNL     1     -11.731  11.838  69.433  1.00  0.00    -0.315 NA 
HETATM   12  C   UNL     1     -10.825  11.053  68.725  1.00  0.00    -0.210 A  
HETATM   13  S   UNL     1     -11.746   9.507  70.518  1.00  0.00    -0.180 SA 
HETATM   14  C   UNL     1     -10.730   9.749  69.168  1.00  0.00    -0.221 A  
BRANCH  12  15
HETATM   15  C   UNL     1     -10.072  11.663  67.584  1.00  0.00    -0.188 C  
BRANCH  15  16
HETATM   16  S   UNL     1     -11.214  12.128  66.235  1.00  0.00    -0.348 SA 
BRANCH  16  17
HETATM   17  C   UNL     1     -10.039  12.311  64.848  1.00  0.00    -0.250 C  
BRANCH  17  18
HETATM   18  C   UNL     1     -10.326  11.429  63.639  1.00  0.00    -0.463 C  
BRANCH  18  19
HETATM   19  C   UNL     1      -9.497  10.145  63.629  1.00  0.00    -0.267 C  
HETATM   20  H2  UNL     1      -8.823  10.508  61.674  1.00  0.00     0.000 HD 
HETATM   21  N   UNL     1      -8.794   9.881  62.478  1.00  0.00    -0.219 NA 
HETATM   22  H1  UNL     1      -8.241   9.024  62.472  1.00  0.00     0.000 HD 
BRANCH  19  23
HETATM   23  N   UNL     1      -9.538   9.444  64.714  1.00  0.00    -0.425 N  
HETATM   24  H   UNL     1     -10.370   9.479  65.304  1.00  0.00     0.000 HD 
BRANCH  23  25
HETATM   25  S   UNL     1      -8.295   8.516  65.148  1.00  0.00    -0.165 S  
HETATM   26  O   UNL     1      -7.304   9.321  65.823  1.00  0.00    -0.091 OA 
HETATM   27  O   UNL     1      -7.942   7.657  64.043  1.00  0.00    -0.134 OA 
HETATM   28  N   UNL     1      -8.916   7.501  66.326  1.00  0.00    -0.165 N  
HETATM   29  H1  UNL     1      -8.129   6.913  66.601  1.00  0.00     0.000 HD 
HETATM   30  H2  UNL     1      -9.869   7.475  66.689  1.00  0.00     0.000 HD 
ENDBRANCH  23  25
ENDBRANCH  19  23
ENDBRANCH  18  19
ENDBRANCH  17  18
ENDBRANCH  16  17
ENDBRANCH  15  16
ENDBRANCH  12  15
ENDBRANCH   5  10
TORSDOF 8
ENDMDL
MODEL      273
REMARK 921   NORMALIZED FREE ENERGY PREDICTED BY IDOCK:   -3.53 KCAL/MOL
REMARK 922        TOTAL FREE ENERGY PREDICTED BY IDOCK:   -6.36 KCAL/MOL
REMARK 923 INTER-LIGAND FREE ENERGY PREDICTED BY IDOCK:   -5.21 KCAL/MOL
REMARK 924 INTRA-LIGAND FREE ENERGY PREDICTED BY IDOCK:   -1.15 KCAL/MOL
REMARK 927      BINDING AFFINITY PREDICTED BY RF-SCORE:    0.00 PKD
ROOT
HETATM    1  N   UNL     1      -5.538  10.097  71.654  1.00  0.00    -0.266 NA 
HETATM    2  C   UNL     1      -6.730   9.941  71.030  1.00  0.00     0.099 C  
HETATM    3  H2  UNL     1      -4.901  10.883  71.520  1.00  0.00     0.000 HD 
HETATM    4  H1  UNL     1      -5.377   9.307  72.277  1.00  0.00     0.000 HD 
HETATM    5  N   UNL     1      -7.472   8.918  71.282  1.00  0.00    -0.165 NA 
HETATM    6  N   UNL     1      -6.945  10.992  70.200  1.00  0.00    -0.461 NA 
HETATM    7  H2  UNL     1      -6.308  11.777  70.066  1.00  0.00     0.000 HD 
HETATM    8  H1  UNL     1      -7.843  10.875  69.731  1.00  0.00     0.000 HD 
HETATM    9  H   UNL     1      -7.178   8.216  71.961  1.00  0.00     0.000 HD 
ENDROOT
BRANCH   5  10
HETATM   10  C   UNL     1      -8.653   8.794  70.624  1.00  0.00    -0.178 A  
HETATM   11  N   UNL     1      -8.862   8.560  69.337  1.00  0.00    -0.140 NA 
HETATM   12  C   UNL     1     -10.224   8.485  69.059  1.00  0.00    -0.207 A  
HETATM   13  S   UNL     1     -10.106   8.928  71.557  1.00  0.00    -0.335 SA 
HETATM   14  C   UNL     1     -11.043   8.688  70.151  1.00  0.00    -0.192 A  
BRANCH  12  15
HETATM   15  C   UNL     1     -10.664   8.212  67.655  1.00  0.00    -0.133 C  
BRANCH  15  16
HETATM   16  S   UNL     1      -9.245   8.307  66.507  1.00  0.00    -0.200 SA 
BRANCH  16  17
HETATM   17  C   UNL     1      -9.255  10.090  66.108  1.00  0.00    -0.165 C  
BRANCH  17  18
HETATM   18  C   UNL     1     -10.618  10.765  66.201  1.00  0.00    -0.241 C  
BRANCH  18  19
HETATM   19  C   UNL     1     -10.573  12.096  66.952  1.00  0.00    -0.229 C  
HETATM   20  H2  UNL     1     -10.817  11.140  68.806  1.00  0.00     0.000 HD 
HETATM   21  N   UNL     1     -10.700  12.029  68.319  1.00  0.00    -0.215 NA 
HETATM   22  H1  UNL     1     -10.670  12.917  68.820  1.00  0.00     0.000 HD 
BRANCH  19  23
HETATM   23  N   UNL     1     -10.410  13.147  66.219  1.00  0.00    -0.282 N  
HETATM   24  H   UNL     1      -9.516  13.300  65.752  1.00  0.00     0.000 HD 
BRANCH  23  25
HETATM   25  S   UNL     1     -11.599  14.218  66.032  1.00  0.00    -0.368 S  
HETATM   26  O   UNL     1     -12.664  13.627  65.258  1.00  0.00    -0.583 OA 
HETATM   27  O   UNL     1     -11.028  15.496  65.675  1.00  0.00    -0.333 OA 
HETATM   28  N   UNL     1     -12.230  14.422  67.570  1.00  0.00    -0.619 N  
HETATM   29  H1  UNL     1     -12.982  15.100  67.451  1.00  0.00     0.000 HD 
HETATM   30  H2  UNL     1     -11.929  13.969  68.433  1.00  0.00     0.000 HD 
ENDBRANCH  23  25
ENDBRANCH  19  23
ENDBRANCH  18  19
ENDBRANCH  17  18
ENDBRANCH  16  17
ENDBRANCH  15  16
ENDBRANCH  12  15
ENDBRANCH   5  10
TORSDOF 8
ENDMDL
MODEL      274
REMARK 921   NORMALIZED FREE ENERGY PREDICTED BY IDOCK:   -3.53 KCAL/MOL
REMARK 922        TOTAL FREE ENERGY PREDICTED BY IDOCK:   -6.36 KCAL/MOL
REMARK 923 INTER-LIGAND FREE ENERGY PREDICTED BY IDOCK:   -5.25 KCAL/MOL
REMARK 924 INTRA-LIGAND FREE ENERGY PREDICTED BY IDOCK:   -1.11 KCAL/MOL
REMARK 927      BINDING AFFINITY PREDICTED BY RF-SCORE:    0.00 PKD
ROOT
HETATM    1  N   UNL     1      -5.222  12.388  69.769  1.00  0.00    -0.075 NA 
HETATM    2  C   UNL     1      -6.057  13.307  69.227  1.00  0.00    -0.100 C  
HETATM    3  H2  UNL     1      -5.510  11.505  70.190  1.00  0.00     0.000 HD 
HETATM    4  H1  UNL     1      -4.261  12.717  69.690  1.00  0.00     0.000 HD 
HETATM    5  N   UNL     1      -5.591  14.387  68.702  1.00  0.00    -0.088 NA 
HETATM    6  N   UNL     1      -7.337  12.869  69.332  1.00  0.00    -0.297 NA 
HETATM    7  H2  UNL     1      -7.625  11.986  69.753  1.00  0.00     0.000 HD 
HETATM    8  H1  UNL     1      -7.966  13.560  68.924  1.00  0.00     0.000 HD 
HETATM    9  H   UNL     1      -4.586  14.562  68.678  1.00  0.00     0.000 HD 
ENDROOT
BRANCH   5  10
HETATM   10  C   UNL     1      -6.465  15.287  68.183  1.00  0.00    -0.125 A  
HETATM   11  N   UNL     1      -7.371  15.107  67.234  1.00  0.00    -0.202 NA 
HETATM   12  C   UNL     1      -8.085  16.279  66.997  1.00  0.00    -0.209 A  
HETATM   13  S   UNL     1      -6.444  16.891  68.836  1.00  0.00    -0.198 SA 
HETATM   14  C   UNL     1      -7.690  17.354  67.766  1.00  0.00    -0.195 A  
BRANCH  12  15
HETATM   15  C   UNL     1      -9.167  16.272  65.964  1.00  0.00    -0.316 C  
BRANCH  15  16
HETATM   16  S   UNL     1     -10.811  16.400  66.753  1.00  0.00    -0.008 SA 
BRANCH  16  17
HETATM   17  C   UNL     1     -10.997  14.709  67.418  1.00  0.00    -0.308 C  
BRANCH  17  18
HETATM   18  C   UNL     1     -12.182  13.925  66.866  1.00  0.00    -0.415 C  
BRANCH  18  19
HETATM   19  C   UNL     1     -11.804  13.027  65.688  1.00  0.00    -0.399 C  
HETATM   20  H2  UNL     1     -13.803  12.889  65.060  1.00  0.00     0.000 HD 
HETATM   21  N   UNL     1     -12.837  12.613  64.882  1.00  0.00    -0.842 NA 
HETATM   22  H1  UNL     1     -12.586  12.013  64.096  1.00  0.00     0.000 HD 
BRANCH  19  23
HETATM   23  N   UNL     1     -10.546  12.760  65.568  1.00  0.00    -0.276 N  
HETATM   24  H   UNL     1      -9.887  13.517  65.385  1.00  0.00     0.000 HD 
BRANCH  23  25
HETATM   25  S   UNL     1     -10.004  11.249  65.705  1.00  0.00    -0.260 S  
HETATM   26  O   UNL     1     -10.190  10.555  64.453  1.00  0.00    -0.346 OA 
HETATM   27  O   UNL     1     -10.473  10.693  66.952  1.00  0.00    -0.229 OA 
HETATM   28  N   UNL     1      -8.346  11.409  65.879  1.00  0.00    -0.366 N  
HETATM   29  H1  UNL     1      -8.003  10.453  65.966  1.00  0.00     0.000 HD 
HETATM   30  H2  UNL     1      -7.800  12.271  65.896  1.00  0.00     0.000 HD 
ENDBRANCH  23  25
ENDBRANCH  19  23
ENDBRANCH  18  19
ENDBRANCH  17  18
ENDBRANCH  16  17
ENDBRANCH  15  16
ENDBRANCH  12  15
ENDBRANCH   5  10
TORSDOF 8
ENDMDL
MODEL      275
REMARK 921   NORMALIZED FREE ENERGY PREDICTED BY IDOCK:   -3.52 KCAL/MOL
REMARK 922        TOTAL FREE ENERGY PREDICTED BY IDOCK:   -6.35 KCAL/MOL
REMARK 923 INTER-LIGAND FREE ENERGY PREDICTED BY IDOCK:   -4.48 KCAL/MOL
REMARK 924 INTRA-LIGAND FREE ENERGY PREDICTED BY IDOCK:   -1.87 KCAL/MOL
REMARK 927      BINDING AFFINITY PREDICTED BY RF-SCORE:    0.00 PKD
ROOT
HETATM    1  N   UNL     1     -10.785  16.079  66.001  1.00  0.00    -0.301 NA 
HETATM    2  C   UNL     1     -10.890  14.729  65.975  1.00  0.00    -0.318 C  
HETATM    3  H2  UNL     1     -11.544  16.725  66.219  1.00  0.00     0.000 HD 
HETATM    4  H1  UNL     1      -9.830  16.349  65.770  1.00  0.00     0.000 HD 
HETATM    5  N   UNL     1      -9.864  13.998  65.705  1.00  0.00    -0.485 NA 
HETATM    6  N   UNL     1     -12.162  14.370  66.283  1.00  0.00    -0.389 NA 
HETATM    7  H2  UNL     1     -12.920  15.016  66.501  1.00  0.00     0.000 HD 
HETATM    8  H1  UNL     1     -12.240  13.353  66.264  1.00  0.00     0.000 HD 
HETATM    9  H   UNL     1      -8.956  14.423  65.516  1.00  0.00     0.000 HD 
ENDROOT
BRANCH   5  10
HETATM   10  C   UNL     1     -10.017  12.649  65.675  1.00  0.00    -0.242 A  
HETATM   11  N   UNL     1     -10.200  11.815  66.688  1.00  0.00    -0.206 NA 
HETATM   12  C   UNL     1     -10.332  10.504  66.238  1.00  0.00    -0.212 A  
HETATM   13  S   UNL     1     -10.002  11.876  64.125  1.00  0.00    -0.239 SA 
HETATM   14  C   UNL     1     -10.222  10.356  64.870  1.00  0.00    -0.260 A  
BRANCH  12  15
HETATM   15  C   UNL     1     -10.560   9.414  67.237  1.00  0.00    -0.244 C  
BRANCH  15  16
HETATM   16  S   UNL     1     -10.110   9.975  68.916  1.00  0.00    -0.202 SA 
BRANCH  16  17
HETATM   17  C   UNL     1      -8.382   9.390  69.014  1.00  0.00    -0.124 C  
BRANCH  17  18
HETATM   18  C   UNL     1      -7.422  10.333  69.731  1.00  0.00    -0.169 C  
BRANCH  18  19
HETATM   19  C   UNL     1      -7.183  11.634  68.966  1.00  0.00    -0.094 C  
HETATM   20  H2  UNL     1      -7.338  10.658  67.113  1.00  0.00     0.000 HD 
HETATM   21  N   UNL     1      -7.185  11.544  67.594  1.00  0.00    -0.097 NA 
HETATM   22  H1  UNL     1      -7.026  12.413  67.083  1.00  0.00     0.000 HD 
BRANCH  19  23
HETATM   23  N   UNL     1      -7.014  12.688  69.693  1.00  0.00    -0.333 N  
HETATM   24  H   UNL     1      -6.779  12.585  70.680  1.00  0.00     0.000 HD 
BRANCH  23  25
HETATM   25  S   UNL     1      -7.170  14.163  69.063  1.00  0.00    -0.084 S  
HETATM   26  O   UNL     1      -6.714  15.146  70.017  1.00  0.00    -0.177 OA 
HETATM   27  O   UNL     1      -8.463  14.270  68.431  1.00  0.00    -0.156 OA 
HETATM   28  N   UNL     1      -6.054  14.209  67.814  1.00  0.00    -0.148 N  
HETATM   29  H1  UNL     1      -6.153  15.142  67.415  1.00  0.00     0.000 HD 
HETATM   30  H2  UNL     1      -5.418  13.468  67.518  1.00  0.00     0.000 HD 
ENDBRANCH  23  25
ENDBRANCH  19  23
ENDBRANCH  18  19
ENDBRANCH  17  18
ENDBRANCH  16  17
ENDBRANCH  15  16
ENDBRANCH  12  15
ENDBRANCH   5  10
TORSDOF 8
ENDMDL
MODEL      276
REMARK 921   NORMALIZED FREE ENERGY PREDICTED BY IDOCK:   -3.50 KCAL/MOL
REMARK 922        TOTAL FREE ENERGY PREDICTED BY IDOCK:   -6.31 KCAL/MOL
REMARK 923 INTER-LIGAND FREE ENERGY PREDICTED BY IDOCK:   -4.27 KCAL/MOL
REMARK 924 INTRA-LIGAND FREE ENERGY PREDICTED BY IDOCK:   -2.04 KCAL/MOL
REMARK 927      BINDING AFFINITY PREDICTED BY RF-SCORE:    0.00 PKD
ROOT
HETATM    1  N   UNL     1     -11.021  12.003  64.547  1.00  0.00    -0.303 NA 
HETATM    2  C   UNL     1      -9.882  11.467  65.049  1.00  0.00    -0.257 C  
HETATM    3  H2  UNL     1     -11.403  12.915  64.795  1.00  0.00     0.000 HD 
HETATM    4  H1  UNL     1     -11.436  11.350  63.883  1.00  0.00     0.000 HD 
HETATM    5  N   UNL     1      -9.474  10.310  64.656  1.00  0.00    -0.268 NA 
HETATM    6  N   UNL     1      -9.329  12.335  65.934  1.00  0.00    -0.407 NA 
HETATM    7  H2  UNL     1      -9.711  13.247  66.181  1.00  0.00     0.000 HD 
HETATM    8  H1  UNL     1      -8.471  11.932  66.311  1.00  0.00     0.000 HD 
HETATM    9  H   UNL     1      -9.995   9.784  63.956  1.00  0.00     0.000 HD 
ENDROOT
BRANCH   5  10
HETATM   10  C   UNL     1      -8.335   9.805  65.196  1.00  0.00    -0.142 A  
HETATM   11  N   UNL     1      -8.121   9.386  66.434  1.00  0.00    -0.107 NA 
HETATM   12  C   UNL     1      -6.818   8.921  66.585  1.00  0.00    -0.076 A  
HETATM   13  S   UNL     1      -6.959   9.649  64.156  1.00  0.00    -0.121 SA 
HETATM   14  C   UNL     1      -6.041   9.017  65.449  1.00  0.00    -0.062 A  
BRANCH  12  15
HETATM   15  C   UNL     1      -6.387   8.390  67.917  1.00  0.00    -0.056 C  
BRANCH  15  16
HETATM   16  S   UNL     1      -6.823   9.563  69.249  1.00  0.00    -0.051 SA 
BRANCH  16  17
HETATM   17  C   UNL     1      -8.241   8.697  70.009  1.00  0.00    -0.122 C  
BRANCH  17  18
HETATM   18  C   UNL     1      -9.448   9.578  70.310  1.00  0.00    -0.307 C  
BRANCH  18  19
HETATM   19  C   UNL     1     -10.092  10.155  69.050  1.00  0.00    -0.205 C  
HETATM   20  H2  UNL     1     -10.685   8.251  68.394  1.00  0.00     0.000 HD 
HETATM   21  N   UNL     1     -10.679   9.252  68.197  1.00  0.00    -0.398 NA 
HETATM   22  H1  UNL     1     -11.109   9.637  67.356  1.00  0.00     0.000 HD 
BRANCH  19  23
HETATM   23  N   UNL     1     -10.025  11.439  68.925  1.00  0.00    -0.352 N  
HETATM   24  H   UNL     1      -9.122  11.880  68.745  1.00  0.00     0.000 HD 
BRANCH  23  25
HETATM   25  S   UNL     1     -11.345  12.354  69.048  1.00  0.00    -0.290 S  
HETATM   26  O   UNL     1     -10.979  13.669  69.516  1.00  0.00    -0.143 OA 
HETATM   27  O   UNL     1     -12.388  11.589  69.690  1.00  0.00    -0.240 OA 
HETATM   28  N   UNL     1     -11.857  12.573  67.468  1.00  0.00    -0.367 N  
HETATM   29  H1  UNL     1     -12.692  13.151  67.546  1.00  0.00     0.000 HD 
HETATM   30  H2  UNL     1     -11.428  12.209  66.617  1.00  0.00     0.000 HD 
ENDBRANCH  23  25
ENDBRANCH  19  23
ENDBRANCH  18  19
ENDBRANCH  17  18
ENDBRANCH  16  17
ENDBRANCH  15  16
ENDBRANCH  12  15
ENDBRANCH   5  10
TORSDOF 8
ENDMDL
MODEL      277
REMARK 921   NORMALIZED FREE ENERGY PREDICTED BY IDOCK:   -3.49 KCAL/MOL
REMARK 922        TOTAL FREE ENERGY PREDICTED BY IDOCK:   -6.30 KCAL/MOL
REMARK 923 INTER-LIGAND FREE ENERGY PREDICTED BY IDOCK:   -5.68 KCAL/MOL
REMARK 924 INTRA-LIGAND FREE ENERGY PREDICTED BY IDOCK:   -0.61 KCAL/MOL
REMARK 927      BINDING AFFINITY PREDICTED BY RF-SCORE:    0.00 PKD
ROOT
HETATM    1  N   UNL     1      -7.849   5.730  65.491  1.00  0.00    -0.097 NA 
HETATM    2  C   UNL     1      -8.370   6.971  65.649  1.00  0.00    -0.136 C  
HETATM    3  H2  UNL     1      -8.080   4.917  66.061  1.00  0.00     0.000 HD 
HETATM    4  H1  UNL     1      -7.190   5.737  64.713  1.00  0.00     0.000 HD 
HETATM    5  N   UNL     1      -8.025   7.931  64.862  1.00  0.00    -0.133 NA 
HETATM    6  N   UNL     1      -9.246   6.963  66.684  1.00  0.00    -0.153 NA 
HETATM    7  H2  UNL     1      -9.477   6.149  67.255  1.00  0.00     0.000 HD 
HETATM    8  H1  UNL     1      -9.639   7.896  66.803  1.00  0.00     0.000 HD 
HETATM    9  H   UNL     1      -7.363   7.770  64.103  1.00  0.00     0.000 HD 
ENDROOT
BRANCH   5  10
HETATM   10  C   UNL     1      -8.561   9.162  65.065  1.00  0.00    -0.180 A  
HETATM   11  N   UNL     1      -9.534   9.761  64.394  1.00  0.00    -0.238 NA 
HETATM   12  C   UNL     1      -9.807  11.017  64.928  1.00  0.00    -0.274 A  
HETATM   13  S   UNL     1      -7.937  10.099  66.381  1.00  0.00    -0.124 SA 
HETATM   14  C   UNL     1      -9.010  11.370  65.999  1.00  0.00    -0.197 A  
BRANCH  12  15
HETATM   15  C   UNL     1     -10.890  11.847  64.312  1.00  0.00    -0.344 C  
BRANCH  15  16
HETATM   16  S   UNL     1     -11.936  12.602  65.606  1.00  0.00    -0.439 SA 
BRANCH  16  17
HETATM   17  C   UNL     1     -12.127  14.293  64.940  1.00  0.00    -0.435 C  
BRANCH  17  18
HETATM   18  C   UNL     1     -10.822  15.002  64.598  1.00  0.00    -0.290 C  
BRANCH  18  19
HETATM   19  C   UNL     1     -10.613  16.285  65.403  1.00  0.00    -0.352 C  
HETATM   20  H2  UNL     1     -11.674  17.426  63.995  1.00  0.00     0.000 HD 
HETATM   21  N   UNL     1     -11.158  17.431  64.876  1.00  0.00    -0.810 NA 
HETATM   22  H1  UNL     1     -11.019  18.287  65.413  1.00  0.00     0.000 HD 
BRANCH  19  23
HETATM   23  N   UNL     1      -9.951  16.153  66.505  1.00  0.00    -0.265 N  
HETATM   24  H   UNL     1     -10.120  15.341  67.099  1.00  0.00     0.000 HD 
BRANCH  23  25
HETATM   25  S   UNL     1      -8.863  17.253  66.953  1.00  0.00    -0.250 S  
HETATM   26  O   UNL     1      -9.513  18.293  67.713  1.00  0.00    -0.269 OA 
HETATM   27  O   UNL     1      -8.014  17.560  65.826  1.00  0.00    -0.548 OA 
HETATM   28  N   UNL     1      -7.881  16.453  68.050  1.00  0.00    -0.152 N  
HETATM   29  H1  UNL     1      -7.192  17.149  68.333  1.00  0.00     0.000 HD 
HETATM   30  H2  UNL     1      -7.955  15.485  68.364  1.00  0.00     0.000 HD 
ENDBRANCH  23  25
ENDBRANCH  19  23
ENDBRANCH  18  19
ENDBRANCH  17  18
ENDBRANCH  16  17
ENDBRANCH  15  16
ENDBRANCH  12  15
ENDBRANCH   5  10
TORSDOF 8
ENDMDL
MODEL      278
REMARK 921   NORMALIZED FREE ENERGY PREDICTED BY IDOCK:   -3.48 KCAL/MOL
REMARK 922        TOTAL FREE ENERGY PREDICTED BY IDOCK:   -6.28 KCAL/MOL
REMARK 923 INTER-LIGAND FREE ENERGY PREDICTED BY IDOCK:   -5.60 KCAL/MOL
REMARK 924 INTRA-LIGAND FREE ENERGY PREDICTED BY IDOCK:   -0.68 KCAL/MOL
REMARK 927      BINDING AFFINITY PREDICTED BY RF-SCORE:    0.00 PKD
ROOT
HETATM    1  N   UNL     1      -7.285   7.239  67.564  1.00  0.00    -0.088 NA 
HETATM    2  C   UNL     1      -8.035   8.228  67.020  1.00  0.00    -0.100 C  
HETATM    3  H2  UNL     1      -7.561   6.658  68.356  1.00  0.00     0.000 HD 
HETATM    4  H1  UNL     1      -6.403   7.166  67.058  1.00  0.00     0.000 HD 
HETATM    5  N   UNL     1      -7.602   8.895  66.006  1.00  0.00    -0.093 NA 
HETATM    6  N   UNL     1      -9.209   8.325  67.693  1.00  0.00    -0.137 NA 
HETATM    7  H2  UNL     1      -9.484   7.744  68.484  1.00  0.00     0.000 HD 
HETATM    8  H1  UNL     1      -9.773   9.069  67.283  1.00  0.00     0.000 HD 
HETATM    9  H   UNL     1      -6.695   8.683  65.591  1.00  0.00     0.000 HD 
ENDROOT
BRANCH   5  10
HETATM   10  C   UNL     1      -8.380   9.887  65.501  1.00  0.00    -0.140 A  
HETATM   11  N   UNL     1      -8.892  10.935  66.126  1.00  0.00    -0.180 NA 
HETATM   12  C   UNL     1      -9.621  11.733  65.248  1.00  0.00    -0.168 A  
HETATM   13  S   UNL     1      -8.757   9.825  63.811  1.00  0.00    -0.239 SA 
HETATM   14  C   UNL     1      -9.671  11.259  63.953  1.00  0.00    -0.277 A  
BRANCH  12  15
HETATM   15  C   UNL     1     -10.269  12.978  65.767  1.00  0.00    -0.290 C  
BRANCH  15  16
HETATM   16  S   UNL     1     -12.025  12.669  66.172  1.00  0.00    -0.331 SA 
BRANCH  16  17
HETATM   17  C   UNL     1     -11.880  12.143  67.916  1.00  0.00    -0.269 C  
BRANCH  17  18
HETATM   18  C   UNL     1     -10.868  12.926  68.743  1.00  0.00    -0.277 C  
BRANCH  18  19
HETATM   19  C   UNL     1     -11.421  14.255  69.258  1.00  0.00    -0.289 C  
HETATM   20  H2  UNL     1     -12.222  14.733  67.377  1.00  0.00     0.000 HD 
HETATM   21  N   UNL     1     -12.096  15.029  68.345  1.00  0.00    -0.573 NA 
HETATM   22  H1  UNL     1     -12.465  15.916  68.689  1.00  0.00     0.000 HD 
BRANCH  19  23
HETATM   23  N   UNL     1     -11.202  14.507  70.507  1.00  0.00    -0.491 N  
HETATM   24  H   UNL     1     -10.250  14.459  70.870  1.00  0.00     0.000 HD 
BRANCH  23  25
HETATM   25  S   UNL     1     -12.412  14.895  71.497  1.00  0.00    -0.359 S  
HETATM   26  O   UNL     1     -12.879  13.709  72.176  1.00  0.00    -0.308 OA 
HETATM   27  O   UNL     1     -13.323  15.774  70.804  1.00  0.00    -0.539 OA 
HETATM   28  N   UNL     1     -11.699  15.834  72.687  1.00  0.00    -0.456 N  
HETATM   29  H1  UNL     1     -12.465  16.079  73.314  1.00  0.00     0.000 HD 
HETATM   30  H2  UNL     1     -10.718  16.100  72.767  1.00  0.00     0.000 HD 
ENDBRANCH  23  25
ENDBRANCH  19  23
ENDBRANCH  18  19
ENDBRANCH  17  18
ENDBRANCH  16  17
ENDBRANCH  15  16
ENDBRANCH  12  15
ENDBRANCH   5  10
TORSDOF 8
ENDMDL
MODEL      279
REMARK 921   NORMALIZED FREE ENERGY PREDICTED BY IDOCK:   -3.45 KCAL/MOL
REMARK 922        TOTAL FREE ENERGY PREDICTED BY IDOCK:   -6.24 KCAL/MOL
REMARK 923 INTER-LIGAND FREE ENERGY PREDICTED BY IDOCK:   -4.69 KCAL/MOL
REMARK 924 INTRA-LIGAND FREE ENERGY PREDICTED BY IDOCK:   -1.55 KCAL/MOL
REMARK 927      BINDING AFFINITY PREDICTED BY RF-SCORE:    0.00 PKD
ROOT
HETATM    1  N   UNL     1     -10.136   5.154  73.301  1.00  0.00    -0.166 NA 
HETATM    2  C   UNL     1     -10.874   6.268  73.078  1.00  0.00    -0.259 C  
HETATM    3  H2  UNL     1      -9.561   4.982  74.125  1.00  0.00     0.000 HD 
HETATM    4  H1  UNL     1     -10.247   4.514  72.515  1.00  0.00     0.000 HD 
HETATM    5  N   UNL     1     -11.584   6.381  72.009  1.00  0.00    -0.308 NA 
HETATM    6  N   UNL     1     -10.727   7.121  74.124  1.00  0.00    -0.541 NA 
HETATM    7  H2  UNL     1     -10.151   6.949  74.948  1.00  0.00     0.000 HD 
HETATM    8  H1  UNL     1     -11.283   7.960  73.957  1.00  0.00     0.000 HD 
HETATM    9  H   UNL     1     -11.610   5.631  71.319  1.00  0.00     0.000 HD 
ENDROOT
BRANCH   5  10
HETATM   10  C   UNL     1     -12.297   7.521  71.821  1.00  0.00    -0.326 A  
HETATM   11  N   UNL     1     -11.859   8.769  71.753  1.00  0.00    -0.319 NA 
HETATM   12  C   UNL     1     -12.910   9.656  71.531  1.00  0.00    -0.392 A  
HETATM   13  S   UNL     1     -14.010   7.368  71.613  1.00  0.00    -0.341 SA 
HETATM   14  C   UNL     1     -14.153   9.061  71.455  1.00  0.00    -0.235 A  
BRANCH  12  15
HETATM   15  C   UNL     1     -12.612  11.117  71.410  1.00  0.00    -0.374 C  
BRANCH  15  16
HETATM   16  S   UNL     1     -12.221  11.553  69.678  1.00  0.00    -0.179 SA 
BRANCH  16  17
HETATM   17  C   UNL     1     -10.554  10.822  69.517  1.00  0.00    -0.196 C  
BRANCH  17  18
HETATM   18  C   UNL     1     -10.422   9.749  68.442  1.00  0.00    -0.250 C  
BRANCH  18  19
HETATM   19  C   UNL     1      -9.358   8.702  68.774  1.00  0.00    -0.142 C  
HETATM   20  H2  UNL     1     -10.507   7.929  70.352  1.00  0.00     0.000 HD 
HETATM   21  N   UNL     1      -9.638   7.860  69.823  1.00  0.00    -0.167 NA 
HETATM   22  H1  UNL     1      -8.928   7.162  70.045  1.00  0.00     0.000 HD 
BRANCH  19  23
HETATM   23  N   UNL     1      -8.307   8.714  68.022  1.00  0.00    -0.122 N  
HETATM   24  H   UNL     1      -7.881   9.605  67.769  1.00  0.00     0.000 HD 
BRANCH  23  25
HETATM   25  S   UNL     1      -7.662   7.341  67.479  1.00  0.00    -0.113 S  
HETATM   26  O   UNL     1      -7.019   6.647  68.569  1.00  0.00    -0.074 OA 
HETATM   27  O   UNL     1      -6.969   7.606  66.241  1.00  0.00    -0.063 OA 
HETATM   28  N   UNL     1      -8.977   6.391  67.065  1.00  0.00    -0.117 N  
HETATM   29  H1  UNL     1      -8.569   5.522  66.721  1.00  0.00     0.000 HD 
HETATM   30  H2  UNL     1      -9.967   6.628  67.139  1.00  0.00     0.000 HD 
ENDBRANCH  23  25
ENDBRANCH  19  23
ENDBRANCH  18  19
ENDBRANCH  17  18
ENDBRANCH  16  17
ENDBRANCH  15  16
ENDBRANCH  12  15
ENDBRANCH   5  10
TORSDOF 8
ENDMDL
MODEL      280
REMARK 921   NORMALIZED FREE ENERGY PREDICTED BY IDOCK:   -3.45 KCAL/MOL
REMARK 922        TOTAL FREE ENERGY PREDICTED BY IDOCK:   -6.24 KCAL/MOL
REMARK 923 INTER-LIGAND FREE ENERGY PREDICTED BY IDOCK:   -4.71 KCAL/MOL
REMARK 924 INTRA-LIGAND FREE ENERGY PREDICTED BY IDOCK:   -1.53 KCAL/MOL
REMARK 927      BINDING AFFINITY PREDICTED BY RF-SCORE:    0.00 PKD
ROOT
HETATM    1  N   UNL     1     -12.316  14.156  68.001  1.00  0.00    -0.540 NA 
HETATM    2  C   UNL     1     -10.987  14.070  67.753  1.00  0.00    -0.258 C  
HETATM    3  H2  UNL     1     -12.994  14.648  67.420  1.00  0.00     0.000 HD 
HETATM    4  H1  UNL     1     -12.532  13.650  68.859  1.00  0.00     0.000 HD 
HETATM    5  N   UNL     1     -10.215  13.406  68.542  1.00  0.00    -0.269 NA 
HETATM    6  N   UNL     1     -10.698  14.743  66.611  1.00  0.00    -0.303 NA 
HETATM    7  H2  UNL     1     -11.376  15.236  66.030  1.00  0.00     0.000 HD 
HETATM    8  H1  UNL     1      -9.698  14.678  66.424  1.00  0.00     0.000 HD 
HETATM    9  H   UNL     1     -10.593  12.927  69.360  1.00  0.00     0.000 HD 
ENDROOT
BRANCH   5  10
HETATM   10  C   UNL     1      -8.887  13.358  68.263  1.00  0.00    -0.172 A  
HETATM   11  N   UNL     1      -7.984  14.322  68.368  1.00  0.00    -0.136 NA 
HETATM   12  C   UNL     1      -6.721  13.864  68.001  1.00  0.00    -0.144 A  
HETATM   13  S   UNL     1      -8.239  11.847  67.718  1.00  0.00    -0.159 SA 
HETATM   14  C   UNL     1      -6.686  12.545  67.595  1.00  0.00    -0.136 A  
BRANCH  12  15
HETATM   15  C   UNL     1      -5.561  14.808  68.066  1.00  0.00    -0.133 C  
BRANCH  15  16
HETATM   16  S   UNL     1      -5.630  15.808  69.594  1.00  0.00    -0.130 SA 
BRANCH  16  17
HETATM   17  C   UNL     1      -5.937  17.468  68.896  1.00  0.00    -0.186 C  
BRANCH  17  18
HETATM   18  C   UNL     1      -7.405  17.807  68.659  1.00  0.00    -0.269 C  
BRANCH  18  19
HETATM   19  C   UNL     1      -7.794  17.763  67.182  1.00  0.00    -0.211 C  
HETATM   20  H2  UNL     1      -9.815  17.436  67.650  1.00  0.00     0.000 HD 
HETATM   21  N   UNL     1      -9.125  17.555  66.908  1.00  0.00    -0.247 NA 
HETATM   22  H1  UNL     1      -9.385  17.525  65.922  1.00  0.00     0.000 HD 
BRANCH  19  23
HETATM   23  N   UNL     1      -6.828  17.938  66.342  1.00  0.00    -0.217 N  
HETATM   24  H   UNL     1      -6.137  17.198  66.211  1.00  0.00     0.000 HD 
BRANCH  23  25
HETATM   25  S   UNL     1      -6.698  19.306  65.501  1.00  0.00    -0.254 S  
HETATM   26  O   UNL     1      -7.905  20.082  65.654  1.00  0.00    -0.305 OA 
HETATM   27  O   UNL     1      -6.155  19.005  64.197  1.00  0.00    -0.469 OA 
HETATM   28  N   UNL     1      -5.508  20.178  66.293  1.00  0.00    -0.170 N  
HETATM   29  H1  UNL     1      -5.426  21.043  65.761  1.00  0.00     0.000 HD 
HETATM   30  H2  UNL     1      -4.982  19.904  67.124  1.00  0.00     0.000 HD 
ENDBRANCH  23  25
ENDBRANCH  19  23
ENDBRANCH  18  19
ENDBRANCH  17  18
ENDBRANCH  16  17
ENDBRANCH  15  16
ENDBRANCH  12  15
ENDBRANCH   5  10
TORSDOF 8
ENDMDL
MODEL      281
REMARK 921   NORMALIZED FREE ENERGY PREDICTED BY IDOCK:   -3.44 KCAL/MOL
REMARK 922        TOTAL FREE ENERGY PREDICTED BY IDOCK:   -6.23 KCAL/MOL
REMARK 923 INTER-LIGAND FREE ENERGY PREDICTED BY IDOCK:   -5.17 KCAL/MOL
REMARK 924 INTRA-LIGAND FREE ENERGY PREDICTED BY IDOCK:   -1.06 KCAL/MOL
REMARK 927      BINDING AFFINITY PREDICTED BY RF-SCORE:    0.00 PKD
ROOT
HETATM    1  N   UNL     1      -7.051   6.321  65.229  1.00  0.00    -0.062 NA 
HETATM    2  C   UNL     1      -7.475   7.520  65.698  1.00  0.00    -0.083 C  
HETATM    3  H2  UNL     1      -7.401   5.412  65.531  1.00  0.00     0.000 HD 
HETATM    4  H1  UNL     1      -6.328   6.471  64.526  1.00  0.00     0.000 HD 
HETATM    5  N   UNL     1      -6.981   8.616  65.236  1.00  0.00    -0.074 NA 
HETATM    6  N   UNL     1      -8.438   7.321  66.633  1.00  0.00    -0.120 NA 
HETATM    7  H2  UNL     1      -8.787   6.412  66.936  1.00  0.00     0.000 HD 
HETATM    8  H1  UNL     1      -8.758   8.223  66.986  1.00  0.00     0.000 HD 
HETATM    9  H   UNL     1      -6.271   8.600  64.504  1.00  0.00     0.000 HD 
ENDROOT
BRANCH   5  10
HETATM   10  C   UNL     1      -7.425   9.794  65.744  1.00  0.00    -0.105 A  
HETATM   11  N   UNL     1      -8.665  10.258  65.794  1.00  0.00    -0.150 NA 
HETATM   12  C   UNL     1      -8.706  11.504  66.413  1.00  0.00    -0.179 A  
HETATM   13  S   UNL     1      -6.252  10.851  66.456  1.00  0.00    -0.134 SA 
HETATM   14  C   UNL     1      -7.476  11.986  66.812  1.00  0.00     0.024 A  
BRANCH  12  15
HETATM   15  C   UNL     1     -10.027  12.189  66.577  1.00  0.00    -0.213 C  
BRANCH  15  16
HETATM   16  S   UNL     1     -11.282  11.023  67.213  1.00  0.00    -0.182 SA 
BRANCH  16  17
HETATM   17  C   UNL     1     -10.865  11.019  68.992  1.00  0.00    -0.229 C  
BRANCH  17  18
HETATM   18  C   UNL     1     -12.023  11.349  69.927  1.00  0.00    -0.434 C  
BRANCH  18  19
HETATM   19  C   UNL     1     -12.053  12.820  70.341  1.00  0.00    -0.302 C  
HETATM   20  H2  UNL     1     -10.760  13.361  68.778  1.00  0.00     0.000 HD 
HETATM   21  N   UNL     1     -11.305  13.684  69.577  1.00  0.00    -0.400 NA 
HETATM   22  H1  UNL     1     -11.323  14.665  69.854  1.00  0.00     0.000 HD 
BRANCH  19  23
HETATM   23  N   UNL     1     -12.789  13.099  71.365  1.00  0.00    -0.354 N  
HETATM   24  H   UNL     1     -13.334  12.359  71.809  1.00  0.00     0.000 HD 
BRANCH  23  25
HETATM   25  S   UNL     1     -12.860  14.598  71.952  1.00  0.00    -0.348 S  
HETATM   26  O   UNL     1     -11.524  15.132  72.071  1.00  0.00    -0.420 OA 
HETATM   27  O   UNL     1     -13.785  14.626  73.060  1.00  0.00    -0.555 OA 
HETATM   28  N   UNL     1     -13.587  15.493  70.737  1.00  0.00    -0.847 N  
HETATM   29  H1  UNL     1     -13.632  16.441  71.108  1.00  0.00     0.000 HD 
HETATM   30  H2  UNL     1     -13.913  15.163  69.828  1.00  0.00     0.000 HD 
ENDBRANCH  23  25
ENDBRANCH  19  23
ENDBRANCH  18  19
ENDBRANCH  17  18
ENDBRANCH  16  17
ENDBRANCH  15  16
ENDBRANCH  12  15
ENDBRANCH   5  10
TORSDOF 8
ENDMDL
MODEL      282
REMARK 921   NORMALIZED FREE ENERGY PREDICTED BY IDOCK:   -3.44 KCAL/MOL
REMARK 922        TOTAL FREE ENERGY PREDICTED BY IDOCK:   -6.22 KCAL/MOL
REMARK 923 INTER-LIGAND FREE ENERGY PREDICTED BY IDOCK:   -4.88 KCAL/MOL
REMARK 924 INTRA-LIGAND FREE ENERGY PREDICTED BY IDOCK:   -1.34 KCAL/MOL
REMARK 927      BINDING AFFINITY PREDICTED BY RF-SCORE:    0.00 PKD
ROOT
HETATM    1  N   UNL     1      -5.949   9.732  71.161  1.00  0.00    -0.141 NA 
HETATM    2  C   UNL     1      -7.037   9.006  71.515  1.00  0.00    -0.013 C  
HETATM    3  H2  UNL     1      -5.888  10.343  70.346  1.00  0.00     0.000 HD 
HETATM    4  H1  UNL     1      -5.202   9.573  71.836  1.00  0.00     0.000 HD 
HETATM    5  N   UNL     1      -7.019   8.276  72.576  1.00  0.00    -0.091 NA 
HETATM    6  N   UNL     1      -8.031   9.218  70.616  1.00  0.00    -0.154 NA 
HETATM    7  H2  UNL     1      -7.970   9.829  69.802  1.00  0.00     0.000 HD 
HETATM    8  H1  UNL     1      -8.850   8.672  70.883  1.00  0.00     0.000 HD 
HETATM    9  H   UNL     1      -6.192   8.241  73.171  1.00  0.00     0.000 HD 
ENDROOT
BRANCH   5  10
HETATM   10  C   UNL     1      -8.127   7.554  72.886  1.00  0.00    -0.106 A  
HETATM   11  N   UNL     1      -9.042   7.052  72.071  1.00  0.00    -0.132 NA 
HETATM   12  C   UNL     1     -10.015   6.356  72.781  1.00  0.00    -0.172 A  
HETATM   13  S   UNL     1      -8.406   7.196  74.558  1.00  0.00    -0.193 SA 
HETATM   14  C   UNL     1      -9.835   6.357  74.150  1.00  0.00    -0.279 A  
BRANCH  12  15
HETATM   15  C   UNL     1     -11.133   5.701  72.031  1.00  0.00    -0.230 C  
BRANCH  15  16
HETATM   16  S   UNL     1     -11.519   6.637  70.509  1.00  0.00    -0.394 SA 
BRANCH  16  17
HETATM   17  C   UNL     1     -12.403   8.073  71.213  1.00  0.00    -0.271 C  
BRANCH  17  18
HETATM   18  C   UNL     1     -11.566   9.338  71.359  1.00  0.00    -0.437 C  
BRANCH  18  19
HETATM   19  C   UNL     1     -11.608  10.226  70.115  1.00  0.00    -0.299 C  
HETATM   20  H2  UNL     1     -13.695  10.049  69.972  1.00  0.00     0.000 HD 
HETATM   21  N   UNL     1     -12.849  10.452  69.570  1.00  0.00    -0.482 NA 
HETATM   22  H1  UNL     1     -12.877  11.045  68.740  1.00  0.00     0.000 HD 
BRANCH  19  23
HETATM   23  N   UNL     1     -10.468  10.681  69.713  1.00  0.00    -0.407 N  
HETATM   24  H   UNL     1      -9.609  10.333  70.140  1.00  0.00     0.000 HD 
BRANCH  23  25
HETATM   25  S   UNL     1     -10.383  11.788  68.546  1.00  0.00    -0.212 S  
HETATM   26  O   UNL     1     -11.280  11.429  67.474  1.00  0.00    -0.259 OA 
HETATM   27  O   UNL     1      -8.996  12.101  68.295  1.00  0.00    -0.189 OA 
HETATM   28  N   UNL     1     -11.039  13.171  69.227  1.00  0.00    -0.420 N  
HETATM   29  H1  UNL     1     -10.985  13.872  68.489  1.00  0.00     0.000 HD 
HETATM   30  H2  UNL     1     -11.410  13.286  70.171  1.00  0.00     0.000 HD 
ENDBRANCH  23  25
ENDBRANCH  19  23
ENDBRANCH  18  19
ENDBRANCH  17  18
ENDBRANCH  16  17
ENDBRANCH  15  16
ENDBRANCH  12  15
ENDBRANCH   5  10
TORSDOF 8
ENDMDL
MODEL      283
REMARK 921   NORMALIZED FREE ENERGY PREDICTED BY IDOCK:   -3.44 KCAL/MOL
REMARK 922        TOTAL FREE ENERGY PREDICTED BY IDOCK:   -6.22 KCAL/MOL
REMARK 923 INTER-LIGAND FREE ENERGY PREDICTED BY IDOCK:   -5.31 KCAL/MOL
REMARK 924 INTRA-LIGAND FREE ENERGY PREDICTED BY IDOCK:   -0.91 KCAL/MOL
REMARK 927      BINDING AFFINITY PREDICTED BY RF-SCORE:    0.00 PKD
ROOT
HETATM    1  N   UNL     1     -11.592  16.276  63.916  1.00  0.00    -1.573 NA 
HETATM    2  C   UNL     1     -11.492  15.335  64.886  1.00  0.00    -0.343 C  
HETATM    3  H2  UNL     1     -11.814  16.093  62.937  1.00  0.00     0.000 HD 
HETATM    4  H1  UNL     1     -11.412  17.195  64.318  1.00  0.00     0.000 HD 
HETATM    5  N   UNL     1     -11.225  15.672  66.100  1.00  0.00    -0.125 NA 
HETATM    6  N   UNL     1     -11.732  14.111  64.351  1.00  0.00    -0.520 NA 
HETATM    7  H2  UNL     1     -11.953  13.928  63.372  1.00  0.00     0.000 HD 
HETATM    8  H1  UNL     1     -11.657  13.403  65.081  1.00  0.00     0.000 HD 
HETATM    9  H   UNL     1     -11.094  16.652  66.352  1.00  0.00     0.000 HD 
ENDROOT
BRANCH   5  10
HETATM   10  C   UNL     1     -11.120  14.695  67.037  1.00  0.00    -0.333 A  
HETATM   11  N   UNL     1     -10.489  13.534  66.954  1.00  0.00    -0.269 NA 
HETATM   12  C   UNL     1     -10.603  12.818  68.143  1.00  0.00    -0.229 A  
HETATM   13  S   UNL     1     -11.878  14.973  68.570  1.00  0.00    -0.247 SA 
HETATM   14  C   UNL     1     -11.349  13.446  69.120  1.00  0.00    -0.280 A  
BRANCH  12  15
HETATM   15  C   UNL     1      -9.941  11.480  68.250  1.00  0.00    -0.202 C  
BRANCH  15  16
HETATM   16  S   UNL     1     -11.094  10.247  68.949  1.00  0.00    -0.211 SA 
BRANCH  16  17
HETATM   17  C   UNL     1      -9.919   9.117  69.775  1.00  0.00    -0.193 C  
BRANCH  17  18
HETATM   18  C   UNL     1      -8.454   9.522  69.669  1.00  0.00    -0.174 C  
BRANCH  18  19
HETATM   19  C   UNL     1      -7.611   8.510  68.894  1.00  0.00    -0.096 C  
HETATM   20  H2  UNL     1      -5.881   9.682  69.102  1.00  0.00     0.000 HD 
HETATM   21  N   UNL     1      -6.283   8.822  68.728  1.00  0.00    -0.045 NA 
HETATM   22  H1  UNL     1      -5.720   8.147  68.210  1.00  0.00     0.000 HD 
BRANCH  19  23
HETATM   23  N   UNL     1      -8.238   7.458  68.482  1.00  0.00    -0.124 N  
HETATM   24  H   UNL     1      -9.022   7.560  67.838  1.00  0.00     0.000 HD 
BRANCH  23  25
HETATM   25  S   UNL     1      -7.798   5.987  68.972  1.00  0.00    -0.097 S  
HETATM   26  O   UNL     1      -6.959   6.099  70.141  1.00  0.00    -0.058 OA 
HETATM   27  O   UNL     1      -7.392   5.212  67.824  1.00  0.00    -0.073 OA 
HETATM   28  N   UNL     1      -9.217   5.280  69.513  1.00  0.00    -0.114 N  
HETATM   29  H1  UNL     1      -8.939   4.350  69.823  1.00  0.00     0.000 HD 
HETATM   30  H2  UNL     1     -10.152   5.689  69.528  1.00  0.00     0.000 HD 
ENDBRANCH  23  25
ENDBRANCH  19  23
ENDBRANCH  18  19
ENDBRANCH  17  18
ENDBRANCH  16  17
ENDBRANCH  15  16
ENDBRANCH  12  15
ENDBRANCH   5  10
TORSDOF 8
ENDMDL
MODEL      284
REMARK 921   NORMALIZED FREE ENERGY PREDICTED BY IDOCK:   -3.42 KCAL/MOL
REMARK 922        TOTAL FREE ENERGY PREDICTED BY IDOCK:   -6.20 KCAL/MOL
REMARK 923 INTER-LIGAND FREE ENERGY PREDICTED BY IDOCK:   -5.31 KCAL/MOL
REMARK 924 INTRA-LIGAND FREE ENERGY PREDICTED BY IDOCK:   -0.89 KCAL/MOL
REMARK 927      BINDING AFFINITY PREDICTED BY RF-SCORE:    0.00 PKD
ROOT
HETATM    1  N   UNL     1      -8.351   4.088  70.709  1.00  0.00    -0.070 NA 
HETATM    2  C   UNL     1      -9.178   5.161  70.681  1.00  0.00    -0.147 C  
HETATM    3  H2  UNL     1      -8.378   3.305  70.055  1.00  0.00     0.000 HD 
HETATM    4  H1  UNL     1      -7.697   4.186  71.484  1.00  0.00     0.000 HD 
HETATM    5  N   UNL     1      -9.049   6.109  71.544  1.00  0.00    -0.143 NA 
HETATM    6  N   UNL     1     -10.049   5.031  69.649  1.00  0.00    -0.241 NA 
HETATM    7  H2  UNL     1     -10.076   4.248  68.996  1.00  0.00     0.000 HD 
HETATM    8  H1  UNL     1     -10.671   5.839  69.628  1.00  0.00     0.000 HD 
HETATM    9  H   UNL     1      -8.318   6.072  72.254  1.00  0.00     0.000 HD 
ENDROOT
BRANCH   5  10
HETATM   10  C   UNL     1      -9.909   7.159  71.488  1.00  0.00    -0.171 A  
HETATM   11  N   UNL     1      -9.917   8.177  70.640  1.00  0.00    -0.188 NA 
HETATM   12  C   UNL     1     -10.978   9.038  70.906  1.00  0.00    -0.268 A  
HETATM   13  S   UNL     1     -11.197   7.200  72.645  1.00  0.00    -0.280 SA 
HETATM   14  C   UNL     1     -11.759   8.669  71.982  1.00  0.00    -0.369 A  
BRANCH  12  15
HETATM   15  C   UNL     1     -11.164  10.247  70.043  1.00  0.00    -0.311 C  
BRANCH  15  16
HETATM   16  S   UNL     1      -9.686  10.531  69.006  1.00  0.00    -0.206 SA 
BRANCH  16  17
HETATM   17  C   UNL     1     -10.254  11.939  67.990  1.00  0.00    -0.192 C  
BRANCH  17  18
HETATM   18  C   UNL     1     -11.729  12.289  68.140  1.00  0.00    -0.408 C  
BRANCH  18  19
HETATM   19  C   UNL     1     -11.970  13.789  68.309  1.00  0.00    -0.357 C  
HETATM   20  H2  UNL     1     -12.490  13.552  70.330  1.00  0.00     0.000 HD 
HETATM   21  N   UNL     1     -12.364  14.207  69.557  1.00  0.00    -0.463 NA 
HETATM   22  H1  UNL     1     -12.526  15.208  69.670  1.00  0.00     0.000 HD 
BRANCH  19  23
HETATM   23  N   UNL     1     -11.767  14.511  67.257  1.00  0.00    -0.396 N  
HETATM   24  H   UNL     1     -12.424  14.460  66.478  1.00  0.00     0.000 HD 
BRANCH  23  25
HETATM   25  S   UNL     1     -10.491  15.489  67.157  1.00  0.00    -0.290 S  
HETATM   26  O   UNL     1      -9.741  15.431  68.389  1.00  0.00    -0.205 OA 
HETATM   27  O   UNL     1     -10.908  16.749  66.588  1.00  0.00    -0.171 OA 
HETATM   28  N   UNL     1      -9.504  14.781  66.005  1.00  0.00    -0.431 N  
HETATM   29  H1  UNL     1      -8.696  15.400  65.942  1.00  0.00     0.000 HD 
HETATM   30  H2  UNL     1      -9.672  13.921  65.482  1.00  0.00     0.000 HD 
ENDBRANCH  23  25
ENDBRANCH  19  23
ENDBRANCH  18  19
ENDBRANCH  17  18
ENDBRANCH  16  17
ENDBRANCH  15  16
ENDBRANCH  12  15
ENDBRANCH   5  10
TORSDOF 8
ENDMDL
MODEL      285
REMARK 921   NORMALIZED FREE ENERGY PREDICTED BY IDOCK:   -3.42 KCAL/MOL
REMARK 922        TOTAL FREE ENERGY PREDICTED BY IDOCK:   -6.19 KCAL/MOL
REMARK 923 INTER-LIGAND FREE ENERGY PREDICTED BY IDOCK:   -4.39 KCAL/MOL
REMARK 924 INTRA-LIGAND FREE ENERGY PREDICTED BY IDOCK:   -1.81 KCAL/MOL
REMARK 927      BINDING AFFINITY PREDICTED BY RF-SCORE:    0.00 PKD
ROOT
HETATM    1  N   UNL     1      -7.826   9.008  71.457  1.00  0.00    -0.330 NA 
HETATM    2  C   UNL     1      -8.450   9.174  70.266  1.00  0.00    -0.191 C  
HETATM    3  H2  UNL     1      -7.565   8.111  71.867  1.00  0.00     0.000 HD 
HETATM    4  H1  UNL     1      -7.656   9.921  71.880  1.00  0.00     0.000 HD 
HETATM    5  N   UNL     1      -8.721  10.355  69.828  1.00  0.00    -0.385 NA 
HETATM    6  N   UNL     1      -8.675   7.960  69.704  1.00  0.00    -0.134 NA 
HETATM    7  H2  UNL     1      -8.415   7.064  70.113  1.00  0.00     0.000 HD 
HETATM    8  H1  UNL     1      -9.145   8.085  68.807  1.00  0.00     0.000 HD 
HETATM    9  H   UNL     1      -8.460  11.183  70.364  1.00  0.00     0.000 HD 
ENDROOT
BRANCH   5  10
HETATM   10  C   UNL     1      -9.360  10.475  68.636  1.00  0.00    -0.172 A  
HETATM   11  N   UNL     1      -8.960  10.071  67.439  1.00  0.00    -0.131 NA 
HETATM   12  C   UNL     1      -9.915  10.365  66.469  1.00  0.00    -0.217 A  
HETATM   13  S   UNL     1     -10.920  11.227  68.637  1.00  0.00    -0.239 SA 
HETATM   14  C   UNL     1     -11.033  11.019  66.947  1.00  0.00    -0.249 A  
BRANCH  12  15
HETATM   15  C   UNL     1      -9.650   9.973  65.049  1.00  0.00    -0.297 C  
BRANCH  15  16
HETATM   16  S   UNL     1      -7.869  10.114  64.664  1.00  0.00    -0.125 SA 
BRANCH  16  17
HETATM   17  C   UNL     1      -7.339   8.379  64.887  1.00  0.00    -0.087 C  
BRANCH  17  18
HETATM   18  C   UNL     1      -8.409   7.335  64.590  1.00  0.00     0.048 C  
BRANCH  18  19
HETATM   19  C   UNL     1      -8.611   6.346  65.738  1.00  0.00    -0.148 C  
HETATM   20  H2  UNL     1      -9.027   7.895  67.093  1.00  0.00     0.000 HD 
HETATM   21  N   UNL     1      -8.930   6.888  66.960  1.00  0.00    -0.118 NA 
HETATM   22  H1  UNL     1      -9.064   6.229  67.727  1.00  0.00     0.000 HD 
BRANCH  19  23
HETATM   23  N   UNL     1      -8.468   5.099  65.434  1.00  0.00    -0.135 N  
HETATM   24  H   UNL     1      -7.647   4.800  64.909  1.00  0.00     0.000 HD 
BRANCH  23  25
HETATM   25  S   UNL     1      -9.570   4.009  65.874  1.00  0.00    -0.188 S  
HETATM   26  O   UNL     1      -9.544   3.848  67.309  1.00  0.00    -0.193 OA 
HETATM   27  O   UNL     1      -9.487   2.873  64.987  1.00  0.00    -0.153 OA 
HETATM   28  N   UNL     1     -11.041   4.735  65.537  1.00  0.00    -0.943 N  
HETATM   29  H1  UNL     1     -11.738   4.045  65.816  1.00  0.00     0.000 HD 
HETATM   30  H2  UNL     1     -11.204   5.661  65.142  1.00  0.00     0.000 HD 
ENDBRANCH  23  25
ENDBRANCH  19  23
ENDBRANCH  18  19
ENDBRANCH  17  18
ENDBRANCH  16  17
ENDBRANCH  15  16
ENDBRANCH  12  15
ENDBRANCH   5  10
TORSDOF 8
ENDMDL
MODEL      286
REMARK 921   NORMALIZED FREE ENERGY PREDICTED BY IDOCK:   -3.41 KCAL/MOL
REMARK 922        TOTAL FREE ENERGY PREDICTED BY IDOCK:   -6.19 KCAL/MOL
REMARK 923 INTER-LIGAND FREE ENERGY PREDICTED BY IDOCK:   -5.02 KCAL/MOL
REMARK 924 INTRA-LIGAND FREE ENERGY PREDICTED BY IDOCK:   -1.17 KCAL/MOL
REMARK 927      BINDING AFFINITY PREDICTED BY RF-SCORE:    0.00 PKD
ROOT
HETATM    1  N   UNL     1      -6.300   8.973  73.008  1.00  0.00    -0.312 NA 
HETATM    2  C   UNL     1      -7.334   8.278  72.475  1.00  0.00    -0.109 C  
HETATM    3  H2  UNL     1      -5.313   8.739  72.899  1.00  0.00     0.000 HD 
HETATM    4  H1  UNL     1      -6.663   9.767  73.534  1.00  0.00     0.000 HD 
HETATM    5  N   UNL     1      -8.548   8.669  72.656  1.00  0.00    -0.407 NA 
HETATM    6  N   UNL     1      -6.851   7.221  71.774  1.00  0.00    -0.058 NA 
HETATM    7  H2  UNL     1      -5.865   6.987  71.665  1.00  0.00     0.000 HD 
HETATM    8  H1  UNL     1      -7.630   6.698  71.372  1.00  0.00     0.000 HD 
HETATM    9  H   UNL     1      -8.750   9.511  73.195  1.00  0.00     0.000 HD 
ENDROOT
BRANCH   5  10
HETATM   10  C   UNL     1      -9.554   7.934  72.115  1.00  0.00    -0.197 A  
HETATM   11  N   UNL     1      -9.737   7.587  70.850  1.00  0.00    -0.173 NA 
HETATM   12  C   UNL     1     -10.886   6.813  70.707  1.00  0.00    -0.249 A  
HETATM   13  S   UNL     1     -10.769   7.329  73.191  1.00  0.00    -0.371 SA 
HETATM   14  C   UNL     1     -11.581   6.599  71.879  1.00  0.00    -0.303 A  
BRANCH  12  15
HETATM   15  C   UNL     1     -11.256   6.311  69.346  1.00  0.00    -0.420 C  
BRANCH  15  16
HETATM   16  S   UNL     1      -9.852   5.423  68.584  1.00  0.00    -0.159 SA 
BRANCH  16  17
HETATM   17  C   UNL     1      -9.282   6.669  67.375  1.00  0.00    -0.122 C  
BRANCH  17  18
HETATM   18  C   UNL     1     -10.349   7.656  66.916  1.00  0.00    -0.388 C  
BRANCH  18  19
HETATM   19  C   UNL     1      -9.764   8.871  66.196  1.00  0.00    -0.268 C  
HETATM   20  H2  UNL     1     -10.682  10.199  67.539  1.00  0.00     0.000 HD 
HETATM   21  N   UNL     1     -10.086  10.101  66.717  1.00  0.00    -0.210 NA 
HETATM   22  H1  UNL     1      -9.696  10.913  66.237  1.00  0.00     0.000 HD 
BRANCH  19  23
HETATM   23  N   UNL     1      -9.018   8.611  65.174  1.00  0.00    -0.405 N  
HETATM   24  H   UNL     1      -8.597   7.686  65.081  1.00  0.00     0.000 HD 
BRANCH  23  25
HETATM   25  S   UNL     1      -8.741   9.727  64.045  1.00  0.00    -0.232 S  
HETATM   26  O   UNL     1      -8.266   9.087  62.841  1.00  0.00    -0.164 OA 
HETATM   27  O   UNL     1      -8.031  10.833  64.642  1.00  0.00    -0.013 OA 
HETATM   28  N   UNL     1     -10.258  10.323  63.660  1.00  0.00    -0.462 N  
HETATM   29  H1  UNL     1     -10.083  11.029  62.945  1.00  0.00     0.000 HD 
HETATM   30  H2  UNL     1     -11.157  10.042  64.052  1.00  0.00     0.000 HD 
ENDBRANCH  23  25
ENDBRANCH  19  23
ENDBRANCH  18  19
ENDBRANCH  17  18
ENDBRANCH  16  17
ENDBRANCH  15  16
ENDBRANCH  12  15
ENDBRANCH   5  10
TORSDOF 8
ENDMDL
MODEL      287
REMARK 921   NORMALIZED FREE ENERGY PREDICTED BY IDOCK:   -3.41 KCAL/MOL
REMARK 922        TOTAL FREE ENERGY PREDICTED BY IDOCK:   -6.18 KCAL/MOL
REMARK 923 INTER-LIGAND FREE ENERGY PREDICTED BY IDOCK:   -5.24 KCAL/MOL
REMARK 924 INTRA-LIGAND FREE ENERGY PREDICTED BY IDOCK:   -0.94 KCAL/MOL
REMARK 927      BINDING AFFINITY PREDICTED BY RF-SCORE:    0.00 PKD
ROOT
HETATM    1  N   UNL     1     -13.047  13.963  64.958  1.00  0.00    -0.732 NA 
HETATM    2  C   UNL     1     -12.077  13.042  65.177  1.00  0.00    -0.433 C  
HETATM    3  H2  UNL     1     -13.831  14.153  65.582  1.00  0.00     0.000 HD 
HETATM    4  H1  UNL     1     -12.870  14.435  64.073  1.00  0.00     0.000 HD 
HETATM    5  N   UNL     1     -11.116  12.890  64.332  1.00  0.00    -0.340 NA 
HETATM    6  N   UNL     1     -12.312  12.413  66.356  1.00  0.00    -0.433 NA 
HETATM    7  H2  UNL     1     -13.096  12.603  66.979  1.00  0.00     0.000 HD 
HETATM    8  H1  UNL     1     -11.582  11.720  66.520  1.00  0.00     0.000 HD 
HETATM    9  H   UNL     1     -11.065  13.466  63.492  1.00  0.00     0.000 HD 
ENDROOT
BRANCH   5  10
HETATM   10  C   UNL     1     -10.173  11.946  64.584  1.00  0.00    -0.278 A  
HETATM   11  N   UNL     1      -9.586  11.650  65.734  1.00  0.00    -0.230 NA 
HETATM   12  C   UNL     1      -8.683  10.602  65.577  1.00  0.00    -0.188 A  
HETATM   13  S   UNL     1      -9.657  10.958  63.259  1.00  0.00    -0.382 SA 
HETATM   14  C   UNL     1      -8.579  10.124  64.287  1.00  0.00    -0.193 A  
BRANCH  12  15
HETATM   15  C   UNL     1      -7.927  10.112  66.773  1.00  0.00    -0.115 C  
BRANCH  15  16
HETATM   16  S   UNL     1      -8.342  11.106  68.249  1.00  0.00    -0.149 SA 
BRANCH  16  17
HETATM   17  C   UNL     1      -7.784   9.984  69.578  1.00  0.00    -0.146 C  
BRANCH  17  18
HETATM   18  C   UNL     1      -8.660   8.755  69.794  1.00  0.00    -0.131 C  
BRANCH  18  19
HETATM   19  C   UNL     1      -8.692   8.297  71.252  1.00  0.00    -0.152 C  
HETATM   20  H2  UNL     1      -6.660   7.770  71.207  1.00  0.00     0.000 HD 
HETATM   21  N   UNL     1      -7.512   7.818  71.767  1.00  0.00    -0.069 NA 
HETATM   22  H1  UNL     1      -7.533   7.511  72.740  1.00  0.00     0.000 HD 
BRANCH  19  23
HETATM   23  N   UNL     1      -9.830   8.419  71.853  1.00  0.00    -0.230 N  
HETATM   24  H   UNL     1     -10.419   9.228  71.654  1.00  0.00     0.000 HD 
BRANCH  23  25
HETATM   25  S   UNL     1     -10.331   7.311  72.910  1.00  0.00    -0.296 S  
HETATM   26  O   UNL     1     -10.041   5.992  72.400  1.00  0.00    -0.174 OA 
HETATM   27  O   UNL     1     -11.652   7.666  73.372  1.00  0.00    -0.147 OA 
HETATM   28  N   UNL     1      -9.324   7.504  74.234  1.00  0.00    -0.419 N  
HETATM   29  H1  UNL     1      -9.642   6.803  74.903  1.00  0.00     0.000 HD 
HETATM   30  H2  UNL     1      -8.563   8.175  74.347  1.00  0.00     0.000 HD 
ENDBRANCH  23  25
ENDBRANCH  19  23
ENDBRANCH  18  19
ENDBRANCH  17  18
ENDBRANCH  16  17
ENDBRANCH  15  16
ENDBRANCH  12  15
ENDBRANCH   5  10
TORSDOF 8
ENDMDL
MODEL      288
REMARK 921   NORMALIZED FREE ENERGY PREDICTED BY IDOCK:   -3.40 KCAL/MOL
REMARK 922        TOTAL FREE ENERGY PREDICTED BY IDOCK:   -6.17 KCAL/MOL
REMARK 923 INTER-LIGAND FREE ENERGY PREDICTED BY IDOCK:   -5.19 KCAL/MOL
REMARK 924 INTRA-LIGAND FREE ENERGY PREDICTED BY IDOCK:   -0.98 KCAL/MOL
REMARK 927      BINDING AFFINITY PREDICTED BY RF-SCORE:    0.00 PKD
ROOT
HETATM    1  N   UNL     1      -7.031  14.422  67.268  1.00  0.00    -0.372 NA 
HETATM    2  C   UNL     1      -7.598  13.193  67.338  1.00  0.00    -0.131 C  
HETATM    3  H2  UNL     1      -6.078  14.615  66.962  1.00  0.00     0.000 HD 
HETATM    4  H1  UNL     1      -7.707  15.123  67.569  1.00  0.00     0.000 HD 
HETATM    5  N   UNL     1      -8.820  13.056  67.722  1.00  0.00    -0.177 NA 
HETATM    6  N   UNL     1      -6.698  12.260  66.938  1.00  0.00    -0.364 NA 
HETATM    7  H2  UNL     1      -5.745  12.453  66.631  1.00  0.00     0.000 HD 
HETATM    8  H1  UNL     1      -7.124  11.334  66.990  1.00  0.00     0.000 HD 
HETATM    9  H   UNL     1      -9.382  13.870  67.970  1.00  0.00     0.000 HD 
ENDROOT
BRANCH   5  10
HETATM   10  C   UNL     1      -9.343  11.805  67.791  1.00  0.00    -0.181 A  
HETATM   11  N   UNL     1      -9.225  10.911  68.762  1.00  0.00    -0.186 NA 
HETATM   12  C   UNL     1      -9.930   9.749  68.458  1.00  0.00    -0.160 A  
HETATM   13  S   UNL     1     -10.323  11.274  66.465  1.00  0.00    -0.248 SA 
HETATM   14  C   UNL     1     -10.564   9.769  67.232  1.00  0.00    -0.255 A  
BRANCH  12  15
HETATM   15  C   UNL     1      -9.929   8.622  69.443  1.00  0.00    -0.197 C  
BRANCH  15  16
HETATM   16  S   UNL     1     -10.438   7.063  68.637  1.00  0.00    -0.203 SA 
BRANCH  16  17
HETATM   17  C   UNL     1     -11.087   6.139  70.073  1.00  0.00    -0.392 C  
BRANCH  17  18
HETATM   18  C   UNL     1     -12.180   6.853  70.859  1.00  0.00    -0.404 C  
BRANCH  18  19
HETATM   19  C   UNL     1     -11.720   7.301  72.246  1.00  0.00    -0.265 C  
HETATM   20  H2  UNL     1     -13.269   8.711  72.384  1.00  0.00     0.000 HD 
HETATM   21  N   UNL     1     -12.458   8.295  72.842  1.00  0.00    -0.650 NA 
HETATM   22  H1  UNL     1     -12.151   8.594  73.768  1.00  0.00     0.000 HD 
BRANCH  19  23
HETATM   23  N   UNL     1     -10.686   6.687  72.718  1.00  0.00    -0.230 N  
HETATM   24  H   UNL     1     -10.718   5.676  72.848  1.00  0.00     0.000 HD 
BRANCH  23  25
HETATM   25  S   UNL     1      -9.347   7.496  73.102  1.00  0.00    -0.232 S  
HETATM   26  O   UNL     1      -8.935   7.140  74.439  1.00  0.00    -0.202 OA 
HETATM   27  O   UNL     1      -9.500   8.875  72.703  1.00  0.00    -0.236 OA 
HETATM   28  N   UNL     1      -8.167   6.865  72.094  1.00  0.00    -0.105 N  
HETATM   29  H1  UNL     1      -7.320   7.377  72.338  1.00  0.00     0.000 HD 
HETATM   30  H2  UNL     1      -8.273   6.132  71.393  1.00  0.00     0.000 HD 
ENDBRANCH  23  25
ENDBRANCH  19  23
ENDBRANCH  18  19
ENDBRANCH  17  18
ENDBRANCH  16  17
ENDBRANCH  15  16
ENDBRANCH  12  15
ENDBRANCH   5  10
TORSDOF 8
ENDMDL
MODEL      289
REMARK 921   NORMALIZED FREE ENERGY PREDICTED BY IDOCK:   -3.39 KCAL/MOL
REMARK 922        TOTAL FREE ENERGY PREDICTED BY IDOCK:   -6.15 KCAL/MOL
REMARK 923 INTER-LIGAND FREE ENERGY PREDICTED BY IDOCK:   -5.01 KCAL/MOL
REMARK 924 INTRA-LIGAND FREE ENERGY PREDICTED BY IDOCK:   -1.14 KCAL/MOL
REMARK 927      BINDING AFFINITY PREDICTED BY RF-SCORE:    0.00 PKD
ROOT
HETATM    1  N   UNL     1      -7.722   8.663  73.755  1.00  0.00    -0.417 NA 
HETATM    2  C   UNL     1      -8.218   8.301  72.547  1.00  0.00    -0.164 C  
HETATM    3  H2  UNL     1      -6.754   8.545  74.054  1.00  0.00     0.000 HD 
HETATM    4  H1  UNL     1      -8.467   9.071  74.318  1.00  0.00     0.000 HD 
HETATM    5  N   UNL     1      -9.456   8.510  72.259  1.00  0.00    -0.287 NA 
HETATM    6  N   UNL     1      -7.226   7.757  71.798  1.00  0.00    -0.064 NA 
HETATM    7  H2  UNL     1      -6.258   7.639  72.097  1.00  0.00     0.000 HD 
HETATM    8  H1  UNL     1      -7.599   7.486  70.889  1.00  0.00     0.000 HD 
HETATM    9  H   UNL     1     -10.079   8.959  72.930  1.00  0.00     0.000 HD 
ENDROOT
BRANCH   5  10
HETATM   10  C   UNL     1      -9.914   8.120  71.042  1.00  0.00    -0.187 A  
HETATM   11  N   UNL     1      -9.687   8.668  69.858  1.00  0.00    -0.171 NA 
HETATM   12  C   UNL     1     -10.326   7.955  68.847  1.00  0.00    -0.213 A  
HETATM   13  S   UNL     1     -10.913   6.706  70.979  1.00  0.00    -0.273 SA 
HETATM   14  C   UNL     1     -11.060   6.871  69.287  1.00  0.00    -0.184 A  
BRANCH  12  15
HETATM   15  C   UNL     1     -10.177   8.413  67.430  1.00  0.00    -0.260 C  
BRANCH  15  16
HETATM   16  S   UNL     1      -8.599   9.306  67.206  1.00  0.00    -0.125 SA 
BRANCH  16  17
HETATM   17  C   UNL     1      -9.206  11.018  67.009  1.00  0.00    -0.153 C  
BRANCH  17  18
HETATM   18  C   UNL     1     -10.721  11.159  66.915  1.00  0.00    -0.322 C  
BRANCH  18  19
HETATM   19  C   UNL     1     -11.204  12.584  67.180  1.00  0.00    -0.300 C  
HETATM   20  H2  UNL     1     -12.112  12.705  65.291  1.00  0.00     0.000 HD 
HETATM   21  N   UNL     1     -11.916  13.184  66.170  1.00  0.00    -0.406 NA 
HETATM   22  H1  UNL     1     -12.239  14.136  66.347  1.00  0.00     0.000 HD 
BRANCH  19  23
HETATM   23  N   UNL     1     -10.899  13.073  68.337  1.00  0.00    -0.249 N  
HETATM   24  H   UNL     1     -10.699  12.441  69.112  1.00  0.00     0.000 HD 
BRANCH  23  25
HETATM   25  S   UNL     1     -10.828  14.665  68.570  1.00  0.00    -0.260 S  
HETATM   26  O   UNL     1     -12.147  15.167  68.875  1.00  0.00    -0.281 OA 
HETATM   27  O   UNL     1     -10.018  15.257  67.532  1.00  0.00    -0.225 OA 
HETATM   28  N   UNL     1      -9.950  14.847  69.984  1.00  0.00    -0.465 N  
HETATM   29  H1  UNL     1      -9.905  15.854  70.132  1.00  0.00     0.000 HD 
HETATM   30  H2  UNL     1      -9.548  14.112  70.568  1.00  0.00     0.000 HD 
ENDBRANCH  23  25
ENDBRANCH  19  23
ENDBRANCH  18  19
ENDBRANCH  17  18
ENDBRANCH  16  17
ENDBRANCH  15  16
ENDBRANCH  12  15
ENDBRANCH   5  10
TORSDOF 8
ENDMDL
MODEL      290
REMARK 921   NORMALIZED FREE ENERGY PREDICTED BY IDOCK:   -3.38 KCAL/MOL
REMARK 922        TOTAL FREE ENERGY PREDICTED BY IDOCK:   -6.14 KCAL/MOL
REMARK 923 INTER-LIGAND FREE ENERGY PREDICTED BY IDOCK:   -5.13 KCAL/MOL
REMARK 924 INTRA-LIGAND FREE ENERGY PREDICTED BY IDOCK:   -1.01 KCAL/MOL
REMARK 927      BINDING AFFINITY PREDICTED BY RF-SCORE:    0.00 PKD
ROOT
HETATM    1  N   UNL     1     -10.546  15.688  64.654  1.00  0.00    -0.692 NA 
HETATM    2  C   UNL     1     -10.585  14.638  65.511  1.00  0.00    -0.355 C  
HETATM    3  H2  UNL     1     -10.413  15.622  63.646  1.00  0.00     0.000 HD 
HETATM    4  H1  UNL     1     -10.670  16.554  65.177  1.00  0.00     0.000 HD 
HETATM    5  N   UNL     1     -10.776  14.828  66.770  1.00  0.00    -0.302 NA 
HETATM    6  N   UNL     1     -10.421  13.485  64.815  1.00  0.00    -0.405 NA 
HETATM    7  H2  UNL     1     -10.288  13.418  63.806  1.00  0.00     0.000 HD 
HETATM    8  H1  UNL     1     -10.451  12.695  65.459  1.00  0.00     0.000 HD 
HETATM    9  H   UNL     1     -10.911  15.768  67.142  1.00  0.00     0.000 HD 
ENDROOT
BRANCH   5  10
HETATM   10  C   UNL     1     -10.795  13.748  67.594  1.00  0.00    -0.254 A  
HETATM   11  N   UNL     1      -9.975  12.708  67.613  1.00  0.00    -0.212 NA 
HETATM   12  C   UNL     1     -10.321  11.819  68.626  1.00  0.00    -0.214 A  
HETATM   13  S   UNL     1     -12.023  13.694  68.814  1.00  0.00    -0.316 SA 
HETATM   14  C   UNL     1     -11.430  12.190  69.360  1.00  0.00    -0.290 A  
BRANCH  12  15
HETATM   15  C   UNL     1      -9.500  10.582  68.817  1.00  0.00    -0.180 C  
BRANCH  15  16
HETATM   16  S   UNL     1     -10.191   9.552  70.160  1.00  0.00    -0.265 SA 
BRANCH  16  17
HETATM   17  C   UNL     1     -10.176   7.907  69.364  1.00  0.00    -0.206 C  
BRANCH  17  18
HETATM   18  C   UNL     1      -8.861   7.146  69.482  1.00  0.00    -0.137 C  
BRANCH  18  19
HETATM   19  C   UNL     1      -8.151   6.972  68.140  1.00  0.00    -0.119 C  
HETATM   20  H2  UNL     1      -7.159   8.811  68.345  1.00  0.00     0.000 HD 
HETATM   21  N   UNL     1      -7.306   7.987  67.762  1.00  0.00    -0.091 NA 
HETATM   22  H1  UNL     1      -6.832   7.872  66.866  1.00  0.00     0.000 HD 
BRANCH  19  23
HETATM   23  N   UNL     1      -8.416   5.879  67.504  1.00  0.00    -0.105 N  
HETATM   24  H   UNL     1      -8.005   5.001  67.821  1.00  0.00     0.000 HD 
BRANCH  23  25
HETATM   25  S   UNL     1      -9.385   5.884  66.217  1.00  0.00    -0.129 S  
HETATM   26  O   UNL     1     -10.700   5.428  66.601  1.00  0.00    -0.295 OA 
HETATM   27  O   UNL     1      -8.683   5.300  65.098  1.00  0.00    -0.149 OA 
HETATM   28  N   UNL     1      -9.572   7.503  65.834  1.00  0.00    -0.413 N  
HETATM   29  H1  UNL     1     -10.185   7.506  65.020  1.00  0.00     0.000 HD 
HETATM   30  H2  UNL     1      -9.164   8.308  66.310  1.00  0.00     0.000 HD 
ENDBRANCH  23  25
ENDBRANCH  19  23
ENDBRANCH  18  19
ENDBRANCH  17  18
ENDBRANCH  16  17
ENDBRANCH  15  16
ENDBRANCH  12  15
ENDBRANCH   5  10
TORSDOF 8
ENDMDL
MODEL      291
REMARK 921   NORMALIZED FREE ENERGY PREDICTED BY IDOCK:   -3.38 KCAL/MOL
REMARK 922        TOTAL FREE ENERGY PREDICTED BY IDOCK:   -6.14 KCAL/MOL
REMARK 923 INTER-LIGAND FREE ENERGY PREDICTED BY IDOCK:   -4.78 KCAL/MOL
REMARK 924 INTRA-LIGAND FREE ENERGY PREDICTED BY IDOCK:   -1.35 KCAL/MOL
REMARK 927      BINDING AFFINITY PREDICTED BY RF-SCORE:    0.00 PKD
ROOT
HETATM    1  N   UNL     1      -7.632  14.564  67.261  1.00  0.00    -0.284 NA 
HETATM    2  C   UNL     1      -7.827  13.224  67.296  1.00  0.00    -0.108 C  
HETATM    3  H2  UNL     1      -6.767  15.028  66.984  1.00  0.00     0.000 HD 
HETATM    4  H1  UNL     1      -8.486  15.037  67.555  1.00  0.00     0.000 HD 
HETATM    5  N   UNL     1      -8.967  12.736  67.645  1.00  0.00    -0.181 NA 
HETATM    6  N   UNL     1      -6.690  12.594  66.905  1.00  0.00    -0.440 NA 
HETATM    7  H2  UNL     1      -5.825  13.058  66.627  1.00  0.00     0.000 HD 
HETATM    8  H1  UNL     1      -6.837  11.585  66.930  1.00  0.00     0.000 HD 
HETATM    9  H   UNL     1      -9.743  13.350  67.891  1.00  0.00     0.000 HD 
ENDROOT
BRANCH   5  10
HETATM   10  C   UNL     1      -9.113  11.386  67.679  1.00  0.00    -0.155 A  
HETATM   11  N   UNL     1      -8.457  10.502  68.414  1.00  0.00    -0.122 NA 
HETATM   12  C   UNL     1      -8.917   9.211  68.170  1.00  0.00    -0.129 A  
HETATM   13  S   UNL     1     -10.327  10.688  66.660  1.00  0.00    -0.234 SA 
HETATM   14  C   UNL     1      -9.917   9.130  67.222  1.00  0.00    -0.211 A  
BRANCH  12  15
HETATM   15  C   UNL     1      -8.304   8.069  68.919  1.00  0.00    -0.126 C  
BRANCH  15  16
HETATM   16  S   UNL     1      -9.383   6.596  68.840  1.00  0.00    -0.127 SA 
BRANCH  16  17
HETATM   17  C   UNL     1     -10.157   6.656  70.494  1.00  0.00    -0.187 C  
BRANCH  17  18
HETATM   18  C   UNL     1     -11.353   7.593  70.612  1.00  0.00    -0.288 C  
BRANCH  18  19
HETATM   19  C   UNL     1     -11.132   8.715  71.626  1.00  0.00    -0.305 C  
HETATM   20  H2  UNL     1      -9.073   8.317  71.725  1.00  0.00     0.000 HD 
HETATM   21  N   UNL     1      -9.841   8.898  72.061  1.00  0.00    -0.313 NA 
HETATM   22  H1  UNL     1      -9.693   9.647  72.738  1.00  0.00     0.000 HD 
BRANCH  19  23
HETATM   23  N   UNL     1     -12.186   9.383  71.961  1.00  0.00    -0.352 N  
HETATM   24  H   UNL     1     -12.730   9.089  72.773  1.00  0.00     0.000 HD 
BRANCH  23  25
HETATM   25  S   UNL     1     -12.653  10.673  71.116  1.00  0.00    -0.451 S  
HETATM   26  O   UNL     1     -13.042  11.728  72.021  1.00  0.00    -0.467 OA 
HETATM   27  O   UNL     1     -13.518  10.243  70.043  1.00  0.00     0.124 OA 
HETATM   28  N   UNL     1     -11.255  11.221  70.374  1.00  0.00    -0.425 N  
HETATM   29  H1  UNL     1     -11.550  12.037  69.840  1.00  0.00     0.000 HD 
HETATM   30  H2  UNL     1     -10.316  10.826  70.442  1.00  0.00     0.000 HD 
ENDBRANCH  23  25
ENDBRANCH  19  23
ENDBRANCH  18  19
ENDBRANCH  17  18
ENDBRANCH  16  17
ENDBRANCH  15  16
ENDBRANCH  12  15
ENDBRANCH   5  10
TORSDOF 8
ENDMDL
MODEL      292
REMARK 921   NORMALIZED FREE ENERGY PREDICTED BY IDOCK:   -3.37 KCAL/MOL
REMARK 922        TOTAL FREE ENERGY PREDICTED BY IDOCK:   -6.13 KCAL/MOL
REMARK 923 INTER-LIGAND FREE ENERGY PREDICTED BY IDOCK:   -4.96 KCAL/MOL
REMARK 924 INTRA-LIGAND FREE ENERGY PREDICTED BY IDOCK:   -1.17 KCAL/MOL
REMARK 927      BINDING AFFINITY PREDICTED BY RF-SCORE:    0.00 PKD
ROOT
HETATM    1  N   UNL     1      -6.689   8.241  69.316  1.00  0.00    -0.042 NA 
HETATM    2  C   UNL     1      -7.721   8.254  70.194  1.00  0.00    -0.084 C  
HETATM    3  H2  UNL     1      -5.952   8.944  69.261  1.00  0.00     0.000 HD 
HETATM    4  H1  UNL     1      -6.764   7.418  68.719  1.00  0.00     0.000 HD 
HETATM    5  N   UNL     1      -8.593   7.306  70.194  1.00  0.00    -0.138 NA 
HETATM    6  N   UNL     1      -7.621   9.349  70.989  1.00  0.00    -0.311 NA 
HETATM    7  H2  UNL     1      -6.885  10.052  70.934  1.00  0.00     0.000 HD 
HETATM    8  H1  UNL     1      -8.398   9.359  71.650  1.00  0.00     0.000 HD 
HETATM    9  H   UNL     1      -8.515   6.526  69.540  1.00  0.00     0.000 HD 
ENDROOT
BRANCH   5  10
HETATM   10  C   UNL     1      -9.619   7.366  71.082  1.00  0.00    -0.159 A  
HETATM   11  N   UNL     1     -10.540   8.307  71.218  1.00  0.00    -0.213 NA 
HETATM   12  C   UNL     1     -11.432   7.988  72.238  1.00  0.00    -0.360 A  
HETATM   13  S   UNL     1      -9.798   6.044  72.186  1.00  0.00    -0.160 SA 
HETATM   14  C   UNL     1     -11.158   6.801  72.887  1.00  0.00    -0.243 A  
BRANCH  12  15
HETATM   15  C   UNL     1     -12.558   8.927  72.537  1.00  0.00    -0.293 C  
BRANCH  15  16
HETATM   16  S   UNL     1     -13.731   8.992  71.137  1.00  0.00     0.036 SA 
BRANCH  16  17
HETATM   17  C   UNL     1     -13.212  10.550  70.335  1.00  0.00     0.066 C  
BRANCH  17  18
HETATM   18  C   UNL     1     -12.413  11.497  71.223  1.00  0.00    -0.399 C  
BRANCH  18  19
HETATM   19  C   UNL     1     -12.266  12.894  70.621  1.00  0.00    -0.302 C  
HETATM   20  H2  UNL     1     -11.996  12.113  68.691  1.00  0.00     0.000 HD 
HETATM   21  N   UNL     1     -12.053  12.954  69.265  1.00  0.00    -0.235 NA 
HETATM   22  H1  UNL     1     -11.954  13.887  68.863  1.00  0.00     0.000 HD 
BRANCH  19  23
HETATM   23  N   UNL     1     -12.367  13.876  71.455  1.00  0.00    -0.335 N  
HETATM   24  H   UNL     1     -12.784  13.716  72.372  1.00  0.00     0.000 HD 
BRANCH  23  25
HETATM   25  S   UNL     1     -11.845  15.350  71.066  1.00  0.00    -0.404 S  
HETATM   26  O   UNL     1     -10.609  15.244  70.328  1.00  0.00    -0.285 OA 
HETATM   27  O   UNL     1     -11.964  16.210  72.219  1.00  0.00    -0.483 OA 
HETATM   28  N   UNL     1     -12.970  15.919  69.963  1.00  0.00    -0.620 N  
HETATM   29  H1  UNL     1     -12.639  16.852  69.717  1.00  0.00     0.000 HD 
HETATM   30  H2  UNL     1     -13.801  15.440  69.615  1.00  0.00     0.000 HD 
ENDBRANCH  23  25
ENDBRANCH  19  23
ENDBRANCH  18  19
ENDBRANCH  17  18
ENDBRANCH  16  17
ENDBRANCH  15  16
ENDBRANCH  12  15
ENDBRANCH   5  10
TORSDOF 8
ENDMDL
MODEL      293
REMARK 921   NORMALIZED FREE ENERGY PREDICTED BY IDOCK:   -3.37 KCAL/MOL
REMARK 922        TOTAL FREE ENERGY PREDICTED BY IDOCK:   -6.13 KCAL/MOL
REMARK 923 INTER-LIGAND FREE ENERGY PREDICTED BY IDOCK:   -5.00 KCAL/MOL
REMARK 924 INTRA-LIGAND FREE ENERGY PREDICTED BY IDOCK:   -1.13 KCAL/MOL
REMARK 927      BINDING AFFINITY PREDICTED BY RF-SCORE:    0.00 PKD
ROOT
HETATM    1  N   UNL     1      -8.315   4.618  64.133  1.00  0.00    -0.113 NA 
HETATM    2  C   UNL     1      -8.450   5.774  64.827  1.00  0.00    -0.079 C  
HETATM    3  H2  UNL     1      -8.859   3.769  64.289  1.00  0.00     0.000 HD 
HETATM    4  H1  UNL     1      -7.585   4.730  63.430  1.00  0.00     0.000 HD 
HETATM    5  N   UNL     1      -7.725   6.799  64.540  1.00  0.00    -0.107 NA 
HETATM    6  N   UNL     1      -9.422   5.625  65.763  1.00  0.00    -0.334 NA 
HETATM    7  H2  UNL     1      -9.965   4.776  65.919  1.00  0.00     0.000 HD 
HETATM    8  H1  UNL     1      -9.524   6.495  66.285  1.00  0.00     0.000 HD 
HETATM    9  H   UNL     1      -7.046   6.760  63.780  1.00  0.00     0.000 HD 
ENDROOT
BRANCH   5  10
HETATM   10  C   UNL     1      -7.884   7.933  65.270  1.00  0.00    -0.111 A  
HETATM   11  N   UNL     1      -8.948   8.716  65.359  1.00  0.00    -0.169 NA 
HETATM   12  C   UNL     1      -8.715   9.775  66.232  1.00  0.00    -0.139 A  
HETATM   13  S   UNL     1      -6.552   8.446  66.250  1.00  0.00    -0.058 SA 
HETATM   14  C   UNL     1      -7.451   9.794  66.785  1.00  0.00    -0.095 A  
BRANCH  12  15
HETATM   15  C   UNL     1      -9.809  10.767  66.477  1.00  0.00    -0.203 C  
BRANCH  15  16
HETATM   16  S   UNL     1     -10.168  10.902  68.264  1.00  0.00    -0.181 SA 
BRANCH  16  17
HETATM   17  C   UNL     1     -11.780  11.760  68.220  1.00  0.00    -0.310 C  
BRANCH  17  18
HETATM   18  C   UNL     1     -12.032  12.596  66.971  1.00  0.00    -0.330 C  
BRANCH  18  19
HETATM   19  C   UNL     1     -11.830  14.093  67.207  1.00  0.00    -0.419 C  
HETATM   20  H2  UNL     1     -10.775  14.308  65.404  1.00  0.00     0.000 HD 
HETATM   21  N   UNL     1     -11.136  14.775  66.236  1.00  0.00    -0.338 NA 
HETATM   22  H1  UNL     1     -11.001  15.774  66.394  1.00  0.00     0.000 HD 
BRANCH  19  23
HETATM   23  N   UNL     1     -12.345  14.563  68.294  1.00  0.00    -0.595 N  
HETATM   24  H   UNL     1     -13.317  14.355  68.521  1.00  0.00     0.000 HD 
BRANCH  23  25
HETATM   25  S   UNL     1     -11.472  15.473  69.298  1.00  0.00    -0.365 S  
HETATM   26  O   UNL     1     -12.064  15.443  70.614  1.00  0.00    -0.310 OA 
HETATM   27  O   UNL     1     -11.153  16.720  68.644  1.00  0.00    -0.326 OA 
HETATM   28  N   UNL     1     -10.016  14.659  69.449  1.00  0.00    -0.416 N  
HETATM   29  H1  UNL     1      -9.464  15.235  70.084  1.00  0.00     0.000 HD 
HETATM   30  H2  UNL     1      -9.743  13.782  69.004  1.00  0.00     0.000 HD 
ENDBRANCH  23  25
ENDBRANCH  19  23
ENDBRANCH  18  19
ENDBRANCH  17  18
ENDBRANCH  16  17
ENDBRANCH  15  16
ENDBRANCH  12  15
ENDBRANCH   5  10
TORSDOF 8
ENDMDL
MODEL      294
REMARK 921   NORMALIZED FREE ENERGY PREDICTED BY IDOCK:   -3.37 KCAL/MOL
REMARK 922        TOTAL FREE ENERGY PREDICTED BY IDOCK:   -6.12 KCAL/MOL
REMARK 923 INTER-LIGAND FREE ENERGY PREDICTED BY IDOCK:   -5.24 KCAL/MOL
REMARK 924 INTRA-LIGAND FREE ENERGY PREDICTED BY IDOCK:   -0.89 KCAL/MOL
REMARK 927      BINDING AFFINITY PREDICTED BY RF-SCORE:    0.00 PKD
ROOT
HETATM    1  N   UNL     1     -10.692  19.700  65.749  1.00  0.00    -0.482 NA 
HETATM    2  C   UNL     1     -10.292  18.608  66.444  1.00  0.00    -0.432 C  
HETATM    3  H2  UNL     1     -10.824  19.741  64.739  1.00  0.00     0.000 HD 
HETATM    4  H1  UNL     1     -10.841  20.475  66.395  1.00  0.00     0.000 HD 
HETATM    5  N   UNL     1     -10.173  18.654  67.726  1.00  0.00    -0.366 NA 
HETATM    6  N   UNL     1     -10.094  17.576  65.585  1.00  0.00    -0.591 NA 
HETATM    7  H2  UNL     1     -10.226  17.617  64.575  1.00  0.00     0.000 HD 
HETATM    8  H1  UNL     1      -9.794  16.754  66.108  1.00  0.00     0.000 HD 
HETATM    9  H   UNL     1     -10.386  19.510  68.239  1.00  0.00     0.000 HD 
ENDROOT
BRANCH   5  10
HETATM   10  C   UNL     1      -9.756  17.540  68.381  1.00  0.00    -0.316 A  
HETATM   11  N   UNL     1      -8.533  17.039  68.463  1.00  0.00    -0.249 NA 
HETATM   12  C   UNL     1      -8.518  15.888  69.247  1.00  0.00    -0.242 A  
HETATM   13  S   UNL     1     -10.944  16.637  69.259  1.00  0.00    -0.193 SA 
HETATM   14  C   UNL     1      -9.752  15.514  69.738  1.00  0.00    -0.241 A  
BRANCH  12  15
HETATM   15  C   UNL     1      -7.218  15.180  69.471  1.00  0.00    -0.204 C  
BRANCH  15  16
HETATM   16  S   UNL     1      -7.263  13.506  68.741  1.00  0.00    -0.072 SA 
BRANCH  16  17
HETATM   17  C   UNL     1      -7.580  13.912  66.988  1.00  0.00     0.250 C  
BRANCH  17  18
HETATM   18  C   UNL     1      -9.052  14.033  66.611  1.00  0.00    -0.221 C  
BRANCH  18  19
HETATM   19  C   UNL     1      -9.725  12.678  66.396  1.00  0.00    -0.258 C  
HETATM   20  H2  UNL     1     -10.701  12.788  68.252  1.00  0.00     0.000 HD 
HETATM   21  N   UNL     1     -10.548  12.239  67.405  1.00  0.00    -0.219 NA 
HETATM   22  H1  UNL     1     -10.997  11.334  67.263  1.00  0.00     0.000 HD 
BRANCH  19  23
HETATM   23  N   UNL     1      -9.455  12.089  65.278  1.00  0.00    -0.428 N  
HETATM   24  H   UNL     1      -9.570  12.599  64.401  1.00  0.00     0.000 HD 
BRANCH  23  25
HETATM   25  S   UNL     1      -8.940  10.563  65.249  1.00  0.00    -0.197 S  
HETATM   26  O   UNL     1      -9.506   9.885  64.107  1.00  0.00    -0.280 OA 
HETATM   27  O   UNL     1      -9.036  10.010  66.578  1.00  0.00    -0.141 OA 
HETATM   28  N   UNL     1      -7.300  10.676  64.926  1.00  0.00    -0.354 N  
HETATM   29  H1  UNL     1      -6.974   9.711  64.908  1.00  0.00     0.000 HD 
HETATM   30  H2  UNL     1      -6.750  11.523  64.781  1.00  0.00     0.000 HD 
ENDBRANCH  23  25
ENDBRANCH  19  23
ENDBRANCH  18  19
ENDBRANCH  17  18
ENDBRANCH  16  17
ENDBRANCH  15  16
ENDBRANCH  12  15
ENDBRANCH   5  10
TORSDOF 8
ENDMDL
MODEL      295
REMARK 921   NORMALIZED FREE ENERGY PREDICTED BY IDOCK:   -3.35 KCAL/MOL
REMARK 922        TOTAL FREE ENERGY PREDICTED BY IDOCK:   -6.10 KCAL/MOL
REMARK 923 INTER-LIGAND FREE ENERGY PREDICTED BY IDOCK:   -4.92 KCAL/MOL
REMARK 924 INTRA-LIGAND FREE ENERGY PREDICTED BY IDOCK:   -1.18 KCAL/MOL
REMARK 927      BINDING AFFINITY PREDICTED BY RF-SCORE:    0.00 PKD
ROOT
HETATM    1  N   UNL     1     -11.004  11.855  63.433  1.00  0.00    -0.613 NA 
HETATM    2  C   UNL     1     -10.553  12.863  64.219  1.00  0.00    -0.408 C  
HETATM    3  H2  UNL     1     -10.573  10.934  63.351  1.00  0.00     0.000 HD 
HETATM    4  H1  UNL     1     -11.841  12.161  62.939  1.00  0.00     0.000 HD 
HETATM    5  N   UNL     1     -11.182  13.987  64.266  1.00  0.00    -0.594 NA 
HETATM    6  N   UNL     1      -9.439  12.457  64.877  1.00  0.00    -0.445 NA 
HETATM    7  H2  UNL     1      -9.008  11.536  64.795  1.00  0.00     0.000 HD 
HETATM    8  H1  UNL     1      -9.100  13.216  65.469  1.00  0.00     0.000 HD 
HETATM    9  H   UNL     1     -12.033  14.132  63.723  1.00  0.00     0.000 HD 
ENDROOT
BRANCH   5  10
HETATM   10  C   UNL     1     -10.688  14.975  65.056  1.00  0.00    -0.427 A  
HETATM   11  N   UNL     1      -9.951  14.867  66.151  1.00  0.00    -0.285 NA 
HETATM   12  C   UNL     1      -9.630  16.122  66.662  1.00  0.00    -0.244 A  
HETATM   13  S   UNL     1     -11.020  16.610  64.593  1.00  0.00     0.340 SA 
HETATM   14  C   UNL     1     -10.155  17.181  65.949  1.00  0.00    -0.240 A  
BRANCH  12  15
HETATM   15  C   UNL     1      -8.787  16.209  67.896  1.00  0.00    -0.182 C  
BRANCH  15  16
HETATM   16  S   UNL     1      -9.005  14.719  68.930  1.00  0.00    -0.133 SA 
BRANCH  16  17
HETATM   17  C   UNL     1      -7.432  13.849  68.603  1.00  0.00    -0.122 C  
BRANCH  17  18
HETATM   18  C   UNL     1      -7.548  12.619  67.712  1.00  0.00    -0.141 C  
BRANCH  18  19
HETATM   19  C   UNL     1      -7.724  11.324  68.505  1.00  0.00    -0.131 C  
HETATM   20  H2  UNL     1      -6.991  12.215  70.260  1.00  0.00     0.000 HD 
HETATM   21  N   UNL     1      -7.359  11.366  69.829  1.00  0.00    -0.340 NA 
HETATM   22  H1  UNL     1      -7.476  10.502  70.359  1.00  0.00     0.000 HD 
BRANCH  19  23
HETATM   23  N   UNL     1      -8.208  10.324  67.845  1.00  0.00    -0.109 N  
HETATM   24  H   UNL     1      -7.617   9.830  67.177  1.00  0.00     0.000 HD 
BRANCH  23  25
HETATM   25  S   UNL     1      -9.732   9.849  68.063  1.00  0.00    -0.142 S  
HETATM   26  O   UNL     1      -9.768   8.418  68.252  1.00  0.00    -0.149 OA 
HETATM   27  O   UNL     1     -10.572  10.502  67.088  1.00  0.00    -0.237 OA 
HETATM   28  N   UNL     1     -10.171  10.501  69.542  1.00  0.00    -0.322 N  
HETATM   29  H1  UNL     1     -11.135  10.200  69.680  1.00  0.00     0.000 HD 
HETATM   30  H2  UNL     1      -9.600  11.072  70.167  1.00  0.00     0.000 HD 
ENDBRANCH  23  25
ENDBRANCH  19  23
ENDBRANCH  18  19
ENDBRANCH  17  18
ENDBRANCH  16  17
ENDBRANCH  15  16
ENDBRANCH  12  15
ENDBRANCH   5  10
TORSDOF 8
ENDMDL
MODEL      296
REMARK 921   NORMALIZED FREE ENERGY PREDICTED BY IDOCK:   -3.35 KCAL/MOL
REMARK 922        TOTAL FREE ENERGY PREDICTED BY IDOCK:   -6.10 KCAL/MOL
REMARK 923 INTER-LIGAND FREE ENERGY PREDICTED BY IDOCK:   -5.05 KCAL/MOL
REMARK 924 INTRA-LIGAND FREE ENERGY PREDICTED BY IDOCK:   -1.05 KCAL/MOL
REMARK 927      BINDING AFFINITY PREDICTED BY RF-SCORE:    0.00 PKD
ROOT
HETATM    1  N   UNL     1      -5.583   5.522  63.754  1.00  0.00    -0.013 NA 
HETATM    2  C   UNL     1      -6.312   6.463  64.401  1.00  0.00    -0.030 C  
HETATM    3  H2  UNL     1      -4.648   5.213  64.020  1.00  0.00     0.000 HD 
HETATM    4  H1  UNL     1      -6.116   5.170  62.959  1.00  0.00     0.000 HD 
HETATM    5  N   UNL     1      -7.495   6.770  63.994  1.00  0.00    -0.090 NA 
HETATM    6  N   UNL     1      -5.603   6.932  65.459  1.00  0.00    -0.030 NA 
HETATM    7  H2  UNL     1      -4.668   6.623  65.725  1.00  0.00     0.000 HD 
HETATM    8  H1  UNL     1      -6.151   7.640  65.946  1.00  0.00     0.000 HD 
HETATM    9  H   UNL     1      -7.905   6.303  63.185  1.00  0.00     0.000 HD 
ENDROOT
BRANCH   5  10
HETATM   10  C   UNL     1      -8.184   7.729  64.664  1.00  0.00    -0.076 A  
HETATM   11  N   UNL     1      -8.904   7.610  65.769  1.00  0.00    -0.140 NA 
HETATM   12  C   UNL     1      -9.440   8.837  66.150  1.00  0.00    -0.247 A  
HETATM   13  S   UNL     1      -8.122   9.343  64.039  1.00  0.00    -0.162 SA 
HETATM   14  C   UNL     1      -9.133   9.883  65.303  1.00  0.00    -0.211 A  
BRANCH  12  15
HETATM   15  C   UNL     1     -10.276   8.910  67.389  1.00  0.00    -0.249 C  
BRANCH  15  16
HETATM   16  S   UNL     1      -9.615   7.796  68.678  1.00  0.00    -0.156 SA 
BRANCH  16  17
HETATM   17  C   UNL     1     -10.964   6.568  68.786  1.00  0.00    -0.305 C  
BRANCH  17  18
HETATM   18  C   UNL     1     -11.113   5.892  70.144  1.00  0.00    -0.395 C  
BRANCH  18  19
HETATM   19  C   UNL     1     -12.013   6.674  71.102  1.00  0.00    -0.357 C  
HETATM   20  H2  UNL     1     -11.716   5.273  72.638  1.00  0.00     0.000 HD 
HETATM   21  N   UNL     1     -12.172   6.142  72.359  1.00  0.00    -0.532 NA 
HETATM   22  H1  UNL     1     -12.773   6.663  72.998  1.00  0.00     0.000 HD 
BRANCH  19  23
HETATM   23  N   UNL     1     -12.522   7.763  70.628  1.00  0.00    -0.502 N  
HETATM   24  H   UNL     1     -13.018   7.740  69.737  1.00  0.00     0.000 HD 
BRANCH  23  25
HETATM   25  S   UNL     1     -12.386   9.156  71.426  1.00  0.00    -0.342 S  
HETATM   26  O   UNL     1     -12.632  10.255  70.523  1.00  0.00    -0.301 OA 
HETATM   27  O   UNL     1     -11.204   9.110  72.253  1.00  0.00    -0.249 OA 
HETATM   28  N   UNL     1     -13.679   9.161  72.491  1.00  0.00    -0.660 N  
HETATM   29  H1  UNL     1     -13.593  10.042  72.996  1.00  0.00     0.000 HD 
HETATM   30  H2  UNL     1     -14.393   8.442  72.609  1.00  0.00     0.000 HD 
ENDBRANCH  23  25
ENDBRANCH  19  23
ENDBRANCH  18  19
ENDBRANCH  17  18
ENDBRANCH  16  17
ENDBRANCH  15  16
ENDBRANCH  12  15
ENDBRANCH   5  10
TORSDOF 8
ENDMDL
MODEL      297
REMARK 921   NORMALIZED FREE ENERGY PREDICTED BY IDOCK:   -3.34 KCAL/MOL
REMARK 922        TOTAL FREE ENERGY PREDICTED BY IDOCK:   -6.08 KCAL/MOL
REMARK 923 INTER-LIGAND FREE ENERGY PREDICTED BY IDOCK:   -5.07 KCAL/MOL
REMARK 924 INTRA-LIGAND FREE ENERGY PREDICTED BY IDOCK:   -1.01 KCAL/MOL
REMARK 927      BINDING AFFINITY PREDICTED BY RF-SCORE:    0.00 PKD
ROOT
HETATM    1  N   UNL     1     -10.790  16.827  64.719  1.00  0.00    -0.799 NA 
HETATM    2  C   UNL     1     -11.115  15.731  65.446  1.00  0.00    -0.228 C  
HETATM    3  H2  UNL     1     -10.875  16.911  63.707  1.00  0.00     0.000 HD 
HETATM    4  H1  UNL     1     -10.448  17.556  65.344  1.00  0.00     0.000 HD 
HETATM    5  N   UNL     1     -10.987  15.732  66.727  1.00  0.00    -0.251 NA 
HETATM    6  N   UNL     1     -11.571  14.760  64.614  1.00  0.00    -0.512 NA 
HETATM    7  H2  UNL     1     -11.656  14.844  63.601  1.00  0.00     0.000 HD 
HETATM    8  H1  UNL     1     -11.817  13.934  65.160  1.00  0.00     0.000 HD 
HETATM    9  H   UNL     1     -10.649  16.561  67.216  1.00  0.00     0.000 HD 
ENDROOT
BRANCH   5  10
HETATM   10  C   UNL     1     -11.312  14.606  67.414  1.00  0.00    -0.356 A  
HETATM   11  N   UNL     1     -11.232  13.345  67.019  1.00  0.00    -0.296 NA 
HETATM   12  C   UNL     1     -11.645  12.479  68.028  1.00  0.00    -0.342 A  
HETATM   13  S   UNL     1     -11.890  14.797  69.036  1.00  0.00    -0.285 SA 
HETATM   14  C   UNL     1     -12.061  13.106  69.185  1.00  0.00    -0.214 A  
BRANCH  12  15
HETATM   15  C   UNL     1     -11.613  11.004  67.776  1.00  0.00    -0.194 C  
BRANCH  15  16
HETATM   16  S   UNL     1     -10.244  10.574  66.644  1.00  0.00    -0.235 SA 
BRANCH  16  17
HETATM   17  C   UNL     1      -8.825  10.638  67.793  1.00  0.00    -0.133 C  
BRANCH  17  18
HETATM   18  C   UNL     1      -7.891   9.435  67.732  1.00  0.00    -0.095 C  
BRANCH  18  19
HETATM   19  C   UNL     1      -8.076   8.478  68.910  1.00  0.00    -0.119 C  
HETATM   20  H2  UNL     1      -9.710   7.539  67.982  1.00  0.00     0.000 HD 
HETATM   21  N   UNL     1      -9.104   7.572  68.803  1.00  0.00    -0.136 NA 
HETATM   22  H1  UNL     1      -9.228   6.933  69.589  1.00  0.00     0.000 HD 
BRANCH  19  23
HETATM   23  N   UNL     1      -7.237   8.618  69.882  1.00  0.00    -0.050 N  
HETATM   24  H   UNL     1      -6.240   8.690  69.678  1.00  0.00     0.000 HD 
BRANCH  23  25
HETATM   25  S   UNL     1      -7.742   8.678  71.410  1.00  0.00    -0.112 S  
HETATM   26  O   UNL     1      -9.079   9.220  71.455  1.00  0.00    -0.315 OA 
HETATM   27  O   UNL     1      -6.684   9.212  72.234  1.00  0.00    -0.305 OA 
HETATM   28  N   UNL     1      -7.901   7.074  71.866  1.00  0.00    -0.093 N  
HETATM   29  H1  UNL     1      -8.220   7.112  72.834  1.00  0.00     0.000 HD 
HETATM   30  H2  UNL     1      -7.718   6.244  71.302  1.00  0.00     0.000 HD 
ENDBRANCH  23  25
ENDBRANCH  19  23
ENDBRANCH  18  19
ENDBRANCH  17  18
ENDBRANCH  16  17
ENDBRANCH  15  16
ENDBRANCH  12  15
ENDBRANCH   5  10
TORSDOF 8
ENDMDL
MODEL      298
REMARK 921   NORMALIZED FREE ENERGY PREDICTED BY IDOCK:   -3.34 KCAL/MOL
REMARK 922        TOTAL FREE ENERGY PREDICTED BY IDOCK:   -6.08 KCAL/MOL
REMARK 923 INTER-LIGAND FREE ENERGY PREDICTED BY IDOCK:   -4.98 KCAL/MOL
REMARK 924 INTRA-LIGAND FREE ENERGY PREDICTED BY IDOCK:   -1.10 KCAL/MOL
REMARK 927      BINDING AFFINITY PREDICTED BY RF-SCORE:    0.00 PKD
ROOT
HETATM    1  N   UNL     1     -11.045  20.317  65.138  1.00  0.00     0.064 NA 
HETATM    2  C   UNL     1     -10.308  19.749  66.123  1.00  0.00    -0.524 C  
HETATM    3  H2  UNL     1     -12.037  20.546  65.201  1.00  0.00     0.000 HD 
HETATM    4  H1  UNL     1     -10.453  20.479  64.324  1.00  0.00     0.000 HD 
HETATM    5  N   UNL     1      -9.053  19.515  65.950  1.00  0.00    -0.400 NA 
HETATM    6  N   UNL     1     -11.096  19.533  67.206  1.00  0.00    -0.340 NA 
HETATM    7  H2  UNL     1     -12.087  19.762  67.269  1.00  0.00     0.000 HD 
HETATM    8  H1  UNL     1     -10.541  19.106  67.948  1.00  0.00     0.000 HD 
HETATM    9  H   UNL     1      -8.593  19.762  65.074  1.00  0.00     0.000 HD 
ENDROOT
BRANCH   5  10
HETATM   10  C   UNL     1      -8.355  18.932  66.959  1.00  0.00    -0.276 A  
HETATM   11  N   UNL     1      -8.525  17.734  67.497  1.00  0.00    -0.225 NA 
HETATM   12  C   UNL     1      -7.589  17.501  68.501  1.00  0.00    -0.266 A  
HETATM   13  S   UNL     1      -7.043  19.830  67.646  1.00  0.00    -0.260 SA 
HETATM   14  C   UNL     1      -6.723  18.551  68.730  1.00  0.00    -0.266 A  
BRANCH  12  15
HETATM   15  C   UNL     1      -7.611  16.190  69.223  1.00  0.00    -0.218 C  
BRANCH  15  16
HETATM   16  S   UNL     1      -9.257  15.407  69.084  1.00  0.00    -0.252 SA 
BRANCH  16  17
HETATM   17  C   UNL     1      -8.905  14.100  67.857  1.00  0.00    -0.182 C  
BRANCH  17  18
HETATM   18  C   UNL     1     -10.135  13.414  67.275  1.00  0.00    -0.238 C  
BRANCH  18  19
HETATM   19  C   UNL     1      -9.786  12.243  66.357  1.00  0.00    -0.234 C  
HETATM   20  H2  UNL     1      -9.855  13.466  64.651  1.00  0.00     0.000 HD 
HETATM   21  N   UNL     1      -9.696  12.526  65.015  1.00  0.00    -0.473 NA 
HETATM   22  H1  UNL     1      -9.463  11.744  64.402  1.00  0.00     0.000 HD 
BRANCH  19  23
HETATM   23  N   UNL     1      -9.600  11.107  66.945  1.00  0.00    -0.184 N  
HETATM   24  H   UNL     1     -10.137  10.881  67.783  1.00  0.00     0.000 HD 
BRANCH  23  25
HETATM   25  S   UNL     1      -8.535  10.043  66.372  1.00  0.00    -0.131 S  
HETATM   26  O   UNL     1      -8.489   8.891  67.241  1.00  0.00    -0.114 OA 
HETATM   27  O   UNL     1      -7.333  10.744  65.985  1.00  0.00    -0.142 OA 
HETATM   28  N   UNL     1      -9.213   9.492  64.943  1.00  0.00    -0.319 N  
HETATM   29  H1  UNL     1      -8.539   8.819  64.581  1.00  0.00     0.000 HD 
HETATM   30  H2  UNL     1     -10.103   9.769  64.528  1.00  0.00     0.000 HD 
ENDBRANCH  23  25
ENDBRANCH  19  23
ENDBRANCH  18  19
ENDBRANCH  17  18
ENDBRANCH  16  17
ENDBRANCH  15  16
ENDBRANCH  12  15
ENDBRANCH   5  10
TORSDOF 8
ENDMDL
MODEL      299
REMARK 921   NORMALIZED FREE ENERGY PREDICTED BY IDOCK:   -3.34 KCAL/MOL
REMARK 922        TOTAL FREE ENERGY PREDICTED BY IDOCK:   -6.08 KCAL/MOL
REMARK 923 INTER-LIGAND FREE ENERGY PREDICTED BY IDOCK:   -5.12 KCAL/MOL
REMARK 924 INTRA-LIGAND FREE ENERGY PREDICTED BY IDOCK:   -0.96 KCAL/MOL
REMARK 927      BINDING AFFINITY PREDICTED BY RF-SCORE:    0.00 PKD
ROOT
HETATM    1  N   UNL     1     -11.915  16.054  64.061  1.00  0.00    -1.206 NA 
HETATM    2  C   UNL     1     -11.424  15.086  64.873  1.00  0.00    -0.399 C  
HETATM    3  H2  UNL     1     -11.359  16.769  63.592  1.00  0.00     0.000 HD 
HETATM    4  H1  UNL     1     -12.927  15.955  63.993  1.00  0.00     0.000 HD 
HETATM    5  N   UNL     1     -12.211  14.216  65.405  1.00  0.00    -0.415 NA 
HETATM    6  N   UNL     1     -10.077  15.217  64.964  1.00  0.00    -0.290 NA 
HETATM    7  H2  UNL     1      -9.521  15.932  64.495  1.00  0.00     0.000 HD 
HETATM    8  H1  UNL     1      -9.706  14.489  65.574  1.00  0.00     0.000 HD 
HETATM    9  H   UNL     1     -13.213  14.235  65.216  1.00  0.00     0.000 HD 
ENDROOT
BRANCH   5  10
HETATM   10  C   UNL     1     -11.677  13.272  66.223  1.00  0.00    -0.369 A  
HETATM   11  N   UNL     1     -11.044  12.156  65.894  1.00  0.00    -0.306 NA 
HETATM   12  C   UNL     1     -10.632  11.464  67.030  1.00  0.00    -0.248 A  
HETATM   13  S   UNL     1     -11.796  13.534  67.930  1.00  0.00    -0.346 SA 
HETATM   14  C   UNL     1     -10.984  12.062  68.223  1.00  0.00    -0.234 A  
BRANCH  12  15
HETATM   15  C   UNL     1      -9.884  10.178  66.865  1.00  0.00    -0.195 C  
BRANCH  15  16
HETATM   16  S   UNL     1      -8.153  10.500  66.375  1.00  0.00    -0.140 SA 
BRANCH  16  17
HETATM   17  C   UNL     1      -7.796   9.000  65.395  1.00  0.00    -0.101 C  
BRANCH  17  18
HETATM   18  C   UNL     1      -8.701   7.809  65.687  1.00  0.00    -0.132 C  
BRANCH  18  19
HETATM   19  C   UNL     1      -7.978   6.468  65.563  1.00  0.00    -0.117 C  
HETATM   20  H2  UNL     1      -6.177   7.406  65.031  1.00  0.00     0.000 HD 
HETATM   21  N   UNL     1      -6.652   6.521  65.205  1.00  0.00    -0.038 NA 
HETATM   22  H1  UNL     1      -6.170   5.626  65.122  1.00  0.00     0.000 HD 
BRANCH  19  23
HETATM   23  N   UNL     1      -8.691   5.421  65.820  1.00  0.00    -0.144 N  
HETATM   24  H   UNL     1      -9.300   5.416  66.638  1.00  0.00     0.000 HD 
BRANCH  23  25
HETATM   25  S   UNL     1      -8.632   4.124  64.865  1.00  0.00    -0.123 S  
HETATM   26  O   UNL     1      -8.546   4.544  63.487  1.00  0.00    -0.114 OA 
HETATM   27  O   UNL     1      -9.625   3.173  65.304  1.00  0.00    -0.141 OA 
HETATM   28  N   UNL     1      -7.152   3.417  65.205  1.00  0.00    -0.064 N  
HETATM   29  H1  UNL     1      -7.114   2.597  64.601  1.00  0.00     0.000 HD 
HETATM   30  H2  UNL     1      -6.445   3.736  65.868  1.00  0.00     0.000 HD 
ENDBRANCH  23  25
ENDBRANCH  19  23
ENDBRANCH  18  19
ENDBRANCH  17  18
ENDBRANCH  16  17
ENDBRANCH  15  16
ENDBRANCH  12  15
ENDBRANCH   5  10
TORSDOF 8
ENDMDL
MODEL      300
REMARK 921   NORMALIZED FREE ENERGY PREDICTED BY IDOCK:   -3.33 KCAL/MOL
REMARK 922        TOTAL FREE ENERGY PREDICTED BY IDOCK:   -6.06 KCAL/MOL
REMARK 923 INTER-LIGAND FREE ENERGY PREDICTED BY IDOCK:   -5.04 KCAL/MOL
REMARK 924 INTRA-LIGAND FREE ENERGY PREDICTED BY IDOCK:   -1.03 KCAL/MOL
REMARK 927      BINDING AFFINITY PREDICTED BY RF-SCORE:    0.00 PKD
ROOT
HETATM    1  N   UNL     1     -12.550  15.858  70.512  1.00  0.00    -0.490 NA 
HETATM    2  C   UNL     1     -11.722  15.244  69.633  1.00  0.00    -0.334 C  
HETATM    3  H2  UNL     1     -13.548  16.014  70.372  1.00  0.00     0.000 HD 
HETATM    4  H1  UNL     1     -12.019  16.139  71.336  1.00  0.00     0.000 HD 
HETATM    5  N   UNL     1     -10.475  15.080  69.913  1.00  0.00    -0.430 NA 
HETATM    6  N   UNL     1     -12.428  14.870  68.537  1.00  0.00    -0.467 NA 
HETATM    7  H2  UNL     1     -13.426  15.026  68.397  1.00  0.00     0.000 HD 
HETATM    8  H1  UNL     1     -11.805  14.407  67.875  1.00  0.00     0.000 HD 
HETATM    9  H   UNL     1     -10.094  15.399  70.803  1.00  0.00     0.000 HD 
ENDROOT
BRANCH   5  10
HETATM   10  C   UNL     1      -9.679  14.471  68.996  1.00  0.00    -0.121 A  
HETATM   11  N   UNL     1      -9.851  13.303  68.397  1.00  0.00    -0.235 NA 
HETATM   12  C   UNL     1      -8.814  13.043  67.505  1.00  0.00    -0.195 A  
HETATM   13  S   UNL     1      -8.248  15.311  68.498  1.00  0.00    -0.155 SA 
HETATM   14  C   UNL     1      -7.842  14.022  67.456  1.00  0.00    -0.184 A  
BRANCH  12  15
HETATM   15  C   UNL     1      -8.838  11.770  66.717  1.00  0.00    -0.191 C  
BRANCH  15  16
HETATM   16  S   UNL     1      -7.190  10.980  66.722  1.00  0.00    -0.144 SA 
BRANCH  16  17
HETATM   17  C   UNL     1      -7.520   9.521  67.770  1.00  0.00    -0.084 C  
BRANCH  17  18
HETATM   18  C   UNL     1      -7.715   8.213  67.012  1.00  0.00    -0.096 C  
BRANCH  18  19
HETATM   19  C   UNL     1      -9.109   7.616  67.205  1.00  0.00    -0.127 C  
HETATM   20  H2  UNL     1      -9.837   8.575  65.485  1.00  0.00     0.000 HD 
HETATM   21  N   UNL     1     -10.054   7.957  66.267  1.00  0.00    -0.478 NA 
HETATM   22  H1  UNL     1     -10.984   7.559  66.396  1.00  0.00     0.000 HD 
BRANCH  19  23
HETATM   23  N   UNL     1      -9.249   6.842  68.230  1.00  0.00    -0.124 N  
HETATM   24  H   UNL     1      -8.760   5.947  68.255  1.00  0.00     0.000 HD 
BRANCH  23  25
HETATM   25  S   UNL     1     -10.186   7.270  69.469  1.00  0.00    -0.203 S  
HETATM   26  O   UNL     1      -9.360   7.698  70.573  1.00  0.00    -0.163 OA 
HETATM   27  O   UNL     1     -11.220   6.277  69.642  1.00  0.00    -0.378 OA 
HETATM   28  N   UNL     1     -10.974   8.652  68.946  1.00  0.00    -0.438 N  
HETATM   29  H1  UNL     1     -11.566   8.923  69.730  1.00  0.00     0.000 HD 
HETATM   30  H2  UNL     1     -10.882   9.119  68.043  1.00  0.00     0.000 HD 
ENDBRANCH  23  25
ENDBRANCH  19  23
ENDBRANCH  18  19
ENDBRANCH  17  18
ENDBRANCH  16  17
ENDBRANCH  15  16
ENDBRANCH  12  15
ENDBRANCH   5  10
TORSDOF 8
ENDMDL
MODEL      301
REMARK 921   NORMALIZED FREE ENERGY PREDICTED BY IDOCK:   -3.32 KCAL/MOL
REMARK 922        TOTAL FREE ENERGY PREDICTED BY IDOCK:   -6.05 KCAL/MOL
REMARK 923 INTER-LIGAND FREE ENERGY PREDICTED BY IDOCK:   -5.26 KCAL/MOL
REMARK 924 INTRA-LIGAND FREE ENERGY PREDICTED BY IDOCK:   -0.79 KCAL/MOL
REMARK 927      BINDING AFFINITY PREDICTED BY RF-SCORE:    0.00 PKD
ROOT
HETATM    1  N   UNL     1     -11.743  16.350  69.031  1.00  0.00    -0.181 NA 
HETATM    2  C   UNL     1     -11.559  15.055  69.384  1.00  0.00    -0.315 C  
HETATM    3  H2  UNL     1     -11.292  17.151  69.473  1.00  0.00     0.000 HD 
HETATM    4  H1  UNL     1     -12.402  16.398  68.256  1.00  0.00     0.000 HD 
HETATM    5  N   UNL     1     -12.165  14.111  68.750  1.00  0.00    -0.546 NA 
HETATM    6  N   UNL     1     -10.682  14.990  70.417  1.00  0.00    -0.495 NA 
HETATM    7  H2  UNL     1     -10.231  15.791  70.858  1.00  0.00     0.000 HD 
HETATM    8  H1  UNL     1     -10.543  14.015  70.682  1.00  0.00     0.000 HD 
HETATM    9  H   UNL     1     -12.783  14.323  67.967  1.00  0.00     0.000 HD 
ENDROOT
BRANCH   5  10
HETATM   10  C   UNL     1     -11.963  12.828  69.146  1.00  0.00    -0.246 A  
HETATM   11  N   UNL     1     -12.224  12.274  70.320  1.00  0.00    -0.301 NA 
HETATM   12  C   UNL     1     -11.887  10.923  70.320  1.00  0.00    -0.361 A  
HETATM   13  S   UNL     1     -11.298  11.728  67.984  1.00  0.00    -0.310 SA 
HETATM   14  C   UNL     1     -11.344  10.469  69.135  1.00  0.00    -0.257 A  
BRANCH  12  15
HETATM   15  C   UNL     1     -12.122  10.117  71.559  1.00  0.00    -0.351 C  
BRANCH  15  16
HETATM   16  S   UNL     1     -11.755   8.353  71.258  1.00  0.00    -0.290 SA 
BRANCH  16  17
HETATM   17  C   UNL     1     -11.282   7.816  72.939  1.00  0.00    -0.376 C  
BRANCH  17  18
HETATM   18  C   UNL     1      -9.796   7.928  73.258  1.00  0.00    -0.345 C  
BRANCH  18  19
HETATM   19  C   UNL     1      -8.911   7.809  72.017  1.00  0.00    -0.134 C  
HETATM   20  H2  UNL     1      -8.499   9.868  72.025  1.00  0.00     0.000 HD 
HETATM   21  N   UNL     1      -8.341   8.973  71.561  1.00  0.00    -0.337 NA 
HETATM   22  H1  UNL     1      -7.751   8.894  70.733  1.00  0.00     0.000 HD 
BRANCH  19  23
HETATM   23  N   UNL     1      -8.784   6.618  71.532  1.00  0.00    -0.131 N  
HETATM   24  H   UNL     1      -9.527   6.231  70.949  1.00  0.00     0.000 HD 
BRANCH  23  25
HETATM   25  S   UNL     1      -7.470   5.736  71.834  1.00  0.00    -0.097 S  
HETATM   26  O   UNL     1      -6.737   5.528  70.608  1.00  0.00    -0.044 OA 
HETATM   27  O   UNL     1      -7.832   4.633  72.693  1.00  0.00    -0.085 OA 
HETATM   28  N   UNL     1      -6.498   6.732  72.767  1.00  0.00    -0.058 N  
HETATM   29  H1  UNL     1      -5.667   6.174  72.958  1.00  0.00     0.000 HD 
HETATM   30  H2  UNL     1      -6.695   7.684  73.075  1.00  0.00     0.000 HD 
ENDBRANCH  23  25
ENDBRANCH  19  23
ENDBRANCH  18  19
ENDBRANCH  17  18
ENDBRANCH  16  17
ENDBRANCH  15  16
ENDBRANCH  12  15
ENDBRANCH   5  10
TORSDOF 8
ENDMDL
MODEL      302
REMARK 921   NORMALIZED FREE ENERGY PREDICTED BY IDOCK:   -3.31 KCAL/MOL
REMARK 922        TOTAL FREE ENERGY PREDICTED BY IDOCK:   -6.04 KCAL/MOL
REMARK 923 INTER-LIGAND FREE ENERGY PREDICTED BY IDOCK:   -5.08 KCAL/MOL
REMARK 924 INTRA-LIGAND FREE ENERGY PREDICTED BY IDOCK:   -0.96 KCAL/MOL
REMARK 927      BINDING AFFINITY PREDICTED BY RF-SCORE:    0.00 PKD
ROOT
HETATM    1  N   UNL     1      -9.643  11.832  62.782  1.00  0.00    -0.567 NA 
HETATM    2  C   UNL     1      -9.707  10.789  63.644  1.00  0.00    -0.327 C  
HETATM    3  H2  UNL     1      -9.479  11.759  61.778  1.00  0.00     0.000 HD 
HETATM    4  H1  UNL     1      -9.785  12.702  63.294  1.00  0.00     0.000 HD 
HETATM    5  N   UNL     1      -9.938  10.988  64.896  1.00  0.00    -0.265 NA 
HETATM    6  N   UNL     1      -9.519   9.631  62.963  1.00  0.00    -0.540 NA 
HETATM    7  H2  UNL     1      -9.355   9.557  61.959  1.00  0.00     0.000 HD 
HETATM    8  H1  UNL     1      -9.568   8.845  63.612  1.00  0.00     0.000 HD 
HETATM    9  H   UNL     1     -10.085  11.930  65.256  1.00  0.00     0.000 HD 
ENDROOT
BRANCH   5  10
HETATM   10  C   UNL     1      -9.980   9.914  65.727  1.00  0.00    -0.277 A  
HETATM   11  N   UNL     1      -9.339   8.760  65.620  1.00  0.00    -0.191 NA 
HETATM   12  C   UNL     1      -9.638   7.923  66.691  1.00  0.00    -0.226 A  
HETATM   13  S   UNL     1     -10.974  10.036  67.140  1.00  0.00     0.008 SA 
HETATM   14  C   UNL     1     -10.534   8.452  67.598  1.00  0.00    -0.239 A  
BRANCH  12  15
HETATM   15  C   UNL     1      -8.996   6.572  66.757  1.00  0.00    -0.131 C  
BRANCH  15  16
HETATM   16  S   UNL     1      -9.762   5.560  68.072  1.00  0.00    -0.138 SA 
BRANCH  16  17
HETATM   17  C   UNL     1      -8.477   5.665  69.367  1.00  0.00    -0.106 C  
BRANCH  17  18
HETATM   18  C   UNL     1      -8.194   7.071  69.882  1.00  0.00    -0.130 C  
BRANCH  18  19
HETATM   19  C   UNL     1      -9.199   7.531  70.939  1.00  0.00    -0.153 C  
HETATM   20  H2  UNL     1      -8.879   9.552  70.466  1.00  0.00     0.000 HD 
HETATM   21  N   UNL     1      -9.384   8.888  71.053  1.00  0.00    -0.226 NA 
HETATM   22  H1  UNL     1     -10.054   9.196  71.759  1.00  0.00     0.000 HD 
BRANCH  19  23
HETATM   23  N   UNL     1      -9.778   6.590  71.608  1.00  0.00    -0.164 N  
HETATM   24  H   UNL     1      -9.376   5.653  71.608  1.00  0.00     0.000 HD 
BRANCH  23  25
HETATM   25  S   UNL     1     -11.125   6.878  72.445  1.00  0.00    -0.271 S  
HETATM   26  O   UNL     1     -12.172   7.296  71.544  1.00  0.00    -0.313 OA 
HETATM   27  O   UNL     1     -10.792   7.645  73.622  1.00  0.00    -0.308 OA 
HETATM   28  N   UNL     1     -11.601   5.374  73.009  1.00  0.00    -0.511 N  
HETATM   29  H1  UNL     1     -12.453   5.556  73.538  1.00  0.00     0.000 HD 
HETATM   30  H2  UNL     1     -11.141   4.476  72.856  1.00  0.00     0.000 HD 
ENDBRANCH  23  25
ENDBRANCH  19  23
ENDBRANCH  18  19
ENDBRANCH  17  18
ENDBRANCH  16  17
ENDBRANCH  15  16
ENDBRANCH  12  15
ENDBRANCH   5  10
TORSDOF 8
ENDMDL
MODEL      303
REMARK 921   NORMALIZED FREE ENERGY PREDICTED BY IDOCK:   -3.29 KCAL/MOL
REMARK 922        TOTAL FREE ENERGY PREDICTED BY IDOCK:   -6.01 KCAL/MOL
REMARK 923 INTER-LIGAND FREE ENERGY PREDICTED BY IDOCK:   -4.82 KCAL/MOL
REMARK 924 INTRA-LIGAND FREE ENERGY PREDICTED BY IDOCK:   -1.19 KCAL/MOL
REMARK 927      BINDING AFFINITY PREDICTED BY RF-SCORE:    0.00 PKD
ROOT
HETATM    1  N   UNL     1      -7.473   5.006  63.680  1.00  0.00    -0.054 NA 
HETATM    2  C   UNL     1      -7.839   6.205  64.196  1.00  0.00    -0.117 C  
HETATM    3  H2  UNL     1      -7.595   4.104  64.140  1.00  0.00     0.000 HD 
HETATM    4  H1  UNL     1      -7.058   5.148  62.760  1.00  0.00     0.000 HD 
HETATM    5  N   UNL     1      -7.658   7.290  63.525  1.00  0.00    -0.111 NA 
HETATM    6  N   UNL     1      -8.392   6.017  65.421  1.00  0.00    -0.147 NA 
HETATM    7  H2  UNL     1      -8.514   5.115  65.880  1.00  0.00     0.000 HD 
HETATM    8  H1  UNL     1      -8.668   6.919  65.809  1.00  0.00     0.000 HD 
HETATM    9  H   UNL     1      -7.246   7.263  62.592  1.00  0.00     0.000 HD 
ENDROOT
BRANCH   5  10
HETATM   10  C   UNL     1      -8.026   8.470  64.086  1.00  0.00    -0.150 A  
HETATM   11  N   UNL     1      -9.243   8.900  64.382  1.00  0.00     0.224 NA 
HETATM   12  C   UNL     1      -9.197  10.163  64.966  1.00  0.00    -0.217 A  
HETATM   13  S   UNL     1      -6.767   9.581  64.511  1.00  0.00    -0.101 SA 
HETATM   14  C   UNL     1      -7.928  10.692  65.087  1.00  0.00    -0.036 A  
BRANCH  12  15
HETATM   15  C   UNL     1     -10.477  10.816  65.385  1.00  0.00    -0.202 C  
BRANCH  15  16
HETATM   16  S   UNL     1     -10.463  11.167  67.178  1.00  0.00    -0.243 SA 
BRANCH  16  17
HETATM   17  C   UNL     1     -11.669  12.537  67.262  1.00  0.00    -0.362 C  
BRANCH  17  18
HETATM   18  C   UNL     1     -12.179  13.030  65.914  1.00  0.00    -0.493 C  
BRANCH  18  19
HETATM   19  C   UNL     1     -11.591  14.383  65.513  1.00  0.00    -0.347 C  
HETATM   20  H2  UNL     1     -11.584  13.860  63.480  1.00  0.00     0.000 HD 
HETATM   21  N   UNL     1     -11.368  14.578  64.171  1.00  0.00    -0.606 NA 
HETATM   22  H1  UNL     1     -10.975  15.481  63.904  1.00  0.00     0.000 HD 
BRANCH  19  23
HETATM   23  N   UNL     1     -11.373  15.208  66.484  1.00  0.00    -0.287 N  
HETATM   24  H   UNL     1     -12.078  15.324  67.212  1.00  0.00     0.000 HD 
BRANCH  23  25
HETATM   25  S   UNL     1     -10.005  16.056  66.559  1.00  0.00    -0.297 S  
HETATM   26  O   UNL     1      -9.712  16.378  67.935  1.00  0.00    -0.230 OA 
HETATM   27  O   UNL     1     -10.026  17.073  65.535  1.00  0.00    -0.567 OA 
HETATM   28  N   UNL     1      -8.813  14.975  66.094  1.00  0.00    -0.472 N  
HETATM   29  H1  UNL     1      -7.947  15.512  66.141  1.00  0.00     0.000 HD 
HETATM   30  H2  UNL     1      -8.927  13.998  65.823  1.00  0.00     0.000 HD 
ENDBRANCH  23  25
ENDBRANCH  19  23
ENDBRANCH  18  19
ENDBRANCH  17  18
ENDBRANCH  16  17
ENDBRANCH  15  16
ENDBRANCH  12  15
ENDBRANCH   5  10
TORSDOF 8
ENDMDL
MODEL      304
REMARK 921   NORMALIZED FREE ENERGY PREDICTED BY IDOCK:   -3.29 KCAL/MOL
REMARK 922        TOTAL FREE ENERGY PREDICTED BY IDOCK:   -6.01 KCAL/MOL
REMARK 923 INTER-LIGAND FREE ENERGY PREDICTED BY IDOCK:   -4.55 KCAL/MOL
REMARK 924 INTRA-LIGAND FREE ENERGY PREDICTED BY IDOCK:   -1.46 KCAL/MOL
REMARK 927      BINDING AFFINITY PREDICTED BY RF-SCORE:    0.00 PKD
ROOT
HETATM    1  N   UNL     1      -8.746   4.792  73.250  1.00  0.00    -0.105 NA 
HETATM    2  C   UNL     1      -9.076   6.037  72.827  1.00  0.00    -0.129 C  
HETATM    3  H2  UNL     1      -7.987   4.570  73.893  1.00  0.00     0.000 HD 
HETATM    4  H1  UNL     1      -9.376   4.113  72.824  1.00  0.00     0.000 HD 
HETATM    5  N   UNL     1     -10.068   6.214  72.024  1.00  0.00    -0.180 NA 
HETATM    6  N   UNL     1      -8.238   6.941  73.393  1.00  0.00    -0.108 NA 
HETATM    7  H2  UNL     1      -7.478   6.719  74.036  1.00  0.00     0.000 HD 
HETATM    8  H1  UNL     1      -8.487   7.878  73.075  1.00  0.00     0.000 HD 
HETATM    9  H   UNL     1     -10.626   5.423  71.703  1.00  0.00     0.000 HD 
ENDROOT
BRANCH   5  10
HETATM   10  C   UNL     1     -10.355   7.476  71.615  1.00  0.00    -0.192 A  
HETATM   11  N   UNL     1      -9.716   8.224  70.728  1.00  0.00    -0.169 NA 
HETATM   12  C   UNL     1     -10.339   9.459  70.575  1.00  0.00    -0.281 A  
HETATM   13  S   UNL     1     -11.750   8.242  72.301  1.00  0.00    -0.398 SA 
HETATM   14  C   UNL     1     -11.447   9.644  71.377  1.00  0.00    -0.385 A  
BRANCH  12  15
HETATM   15  C   UNL     1      -9.770  10.443  69.601  1.00  0.00    -0.124 C  
BRANCH  15  16
HETATM   16  S   UNL     1     -10.939  10.740  68.228  1.00  0.00    -0.278 SA 
BRANCH  16  17
HETATM   17  C   UNL     1     -10.850   9.136  67.357  1.00  0.00    -0.070 C  
BRANCH  17  18
HETATM   18  C   UNL     1      -9.476   8.780  66.802  1.00  0.00    -0.249 C  
BRANCH  18  19
HETATM   19  C   UNL     1      -9.118   7.307  66.997  1.00  0.00    -0.135 C  
HETATM   20  H2  UNL     1      -7.893   7.749  68.644  1.00  0.00     0.000 HD 
HETATM   21  N   UNL     1      -8.266   7.019  68.037  1.00  0.00    -0.118 NA 
HETATM   22  H1  UNL     1      -8.027   6.036  68.168  1.00  0.00     0.000 HD 
BRANCH  19  23
HETATM   23  N   UNL     1      -9.666   6.483  66.167  1.00  0.00    -0.392 N  
HETATM   24  H   UNL     1      -9.723   6.729  65.178  1.00  0.00     0.000 HD 
BRANCH  23  25
HETATM   25  S   UNL     1     -10.259   5.072  66.670  1.00  0.00    -0.264 S  
HETATM   26  O   UNL     1     -11.013   5.271  67.884  1.00  0.00     0.070 OA 
HETATM   27  O   UNL     1      -9.224   4.069  66.581  1.00  0.00    -0.139 OA 
HETATM   28  N   UNL     1     -11.392   4.652  65.510  1.00  0.00    -0.901 N  
HETATM   29  H1  UNL     1     -11.767   3.759  65.828  1.00  0.00     0.000 HD 
HETATM   30  H2  UNL     1     -11.649   5.173  64.671  1.00  0.00     0.000 HD 
ENDBRANCH  23  25
ENDBRANCH  19  23
ENDBRANCH  18  19
ENDBRANCH  17  18
ENDBRANCH  16  17
ENDBRANCH  15  16
ENDBRANCH  12  15
ENDBRANCH   5  10
TORSDOF 8
ENDMDL
MODEL      305
REMARK 921   NORMALIZED FREE ENERGY PREDICTED BY IDOCK:   -3.29 KCAL/MOL
REMARK 922        TOTAL FREE ENERGY PREDICTED BY IDOCK:   -6.01 KCAL/MOL
REMARK 923 INTER-LIGAND FREE ENERGY PREDICTED BY IDOCK:   -4.79 KCAL/MOL
REMARK 924 INTRA-LIGAND FREE ENERGY PREDICTED BY IDOCK:   -1.22 KCAL/MOL
REMARK 927      BINDING AFFINITY PREDICTED BY RF-SCORE:    0.00 PKD
ROOT
HETATM    1  N   UNL     1     -12.746  15.847  70.480  1.00  0.00    -0.588 NA 
HETATM    2  C   UNL     1     -11.860  15.271  69.632  1.00  0.00    -0.339 C  
HETATM    3  H2  UNL     1     -13.760  15.763  70.421  1.00  0.00     0.000 HD 
HETATM    4  H1  UNL     1     -12.239  16.378  71.188  1.00  0.00     0.000 HD 
HETATM    5  N   UNL     1     -10.593  15.425  69.805  1.00  0.00    -0.276 NA 
HETATM    6  N   UNL     1     -12.534  14.565  68.690  1.00  0.00    -0.566 NA 
HETATM    7  H2  UNL     1     -13.548  14.480  68.630  1.00  0.00     0.000 HD 
HETATM    8  H1  UNL     1     -11.867  14.131  68.052  1.00  0.00     0.000 HD 
HETATM    9  H   UNL     1     -10.236  15.974  70.587  1.00  0.00     0.000 HD 
ENDROOT
BRANCH   5  10
HETATM   10  C   UNL     1      -9.741  14.842  68.923  1.00  0.00    -0.215 A  
HETATM   11  N   UNL     1      -9.741  13.595  68.475  1.00  0.00    -0.215 NA 
HETATM   12  C   UNL     1      -8.709  13.394  67.562  1.00  0.00    -0.205 A  
HETATM   13  S   UNL     1      -8.488  15.829  68.248  1.00  0.00    -0.169 SA 
HETATM   14  C   UNL     1      -7.914  14.501  67.343  1.00  0.00    -0.200 A  
BRANCH  12  15
HETATM   15  C   UNL     1      -8.551  12.045  66.932  1.00  0.00    -0.189 C  
BRANCH  15  16
HETATM   16  S   UNL     1      -6.789  11.563  66.876  1.00  0.00    -0.117 SA 
BRANCH  16  17
HETATM   17  C   UNL     1      -6.512  11.098  68.621  1.00  0.00    -0.049 C  
BRANCH  17  18
HETATM   18  C   UNL     1      -6.907   9.670  68.978  1.00  0.00    -0.050 C  
BRANCH  18  19
HETATM   19  C   UNL     1      -7.805   9.592  70.212  1.00  0.00    -0.178 C  
HETATM   20  H2  UNL     1      -6.462   8.315  71.199  1.00  0.00     0.000 HD 
HETATM   21  N   UNL     1      -7.350   8.813  71.249  1.00  0.00    -0.092 NA 
HETATM   22  H1  UNL     1      -7.950   8.761  72.073  1.00  0.00     0.000 HD 
BRANCH  19  23
HETATM   23  N   UNL     1      -8.899  10.278  70.153  1.00  0.00    -0.309 N  
HETATM   24  H   UNL     1      -8.854  11.297  70.165  1.00  0.00     0.000 HD 
BRANCH  23  25
HETATM   25  S   UNL     1     -10.331   9.546  70.060  1.00  0.00    -0.267 S  
HETATM   26  O   UNL     1     -10.968   9.890  68.811  1.00  0.00    -0.223 OA 
HETATM   27  O   UNL     1     -11.017   9.695  71.322  1.00  0.00    -0.349 OA 
HETATM   28  N   UNL     1      -9.966   7.916  69.937  1.00  0.00    -0.189 N  
HETATM   29  H1  UNL     1     -10.873   7.454  69.878  1.00  0.00     0.000 HD 
HETATM   30  H2  UNL     1      -9.043   7.483  69.923  1.00  0.00     0.000 HD 
ENDBRANCH  23  25
ENDBRANCH  19  23
ENDBRANCH  18  19
ENDBRANCH  17  18
ENDBRANCH  16  17
ENDBRANCH  15  16
ENDBRANCH  12  15
ENDBRANCH   5  10
TORSDOF 8
ENDMDL
MODEL      306
REMARK 921   NORMALIZED FREE ENERGY PREDICTED BY IDOCK:   -3.29 KCAL/MOL
REMARK 922        TOTAL FREE ENERGY PREDICTED BY IDOCK:   -6.01 KCAL/MOL
REMARK 923 INTER-LIGAND FREE ENERGY PREDICTED BY IDOCK:   -5.10 KCAL/MOL
REMARK 924 INTRA-LIGAND FREE ENERGY PREDICTED BY IDOCK:   -0.90 KCAL/MOL
REMARK 927      BINDING AFFINITY PREDICTED BY RF-SCORE:    0.00 PKD
ROOT
HETATM    1  N   UNL     1      -6.652   7.794  67.203  1.00  0.00    -0.061 NA 
HETATM    2  C   UNL     1      -7.620   8.594  66.692  1.00  0.00    -0.089 C  
HETATM    3  H2  UNL     1      -6.803   7.040  67.872  1.00  0.00     0.000 HD 
HETATM    4  H1  UNL     1      -5.750   8.064  66.812  1.00  0.00     0.000 HD 
HETATM    5  N   UNL     1      -7.327   9.511  65.835  1.00  0.00    -0.095 NA 
HETATM    6  N   UNL     1      -8.820   8.235  67.212  1.00  0.00    -0.129 NA 
HETATM    7  H2  UNL     1      -8.971   7.481  67.881  1.00  0.00     0.000 HD 
HETATM    8  H1  UNL     1      -9.549   8.837  66.827  1.00  0.00     0.000 HD 
HETATM    9  H   UNL     1      -6.366   9.642  65.520  1.00  0.00     0.000 HD 
ENDROOT
BRANCH   5  10
HETATM   10  C   UNL     1      -8.325  10.299  65.360  1.00  0.00    -0.162 A  
HETATM   11  N   UNL     1      -8.869  11.370  65.917  1.00  0.00    -0.182 NA 
HETATM   12  C   UNL     1      -9.858  11.910  65.099  1.00  0.00    -0.218 A  
HETATM   13  S   UNL     1      -8.989   9.901  63.810  1.00  0.00    -0.254 SA 
HETATM   14  C   UNL     1     -10.070  11.217  63.925  1.00  0.00    -0.348 A  
BRANCH  12  15
HETATM   15  C   UNL     1     -10.583  13.138  65.552  1.00  0.00    -0.288 C  
BRANCH  15  16
HETATM   16  S   UNL     1     -11.875  12.710  66.773  1.00  0.00    -0.307 SA 
BRANCH  16  17
HETATM   17  C   UNL     1     -10.926  12.848  68.328  1.00  0.00    -0.256 C  
BRANCH  17  18
HETATM   18  C   UNL     1     -10.238  14.190  68.547  1.00  0.00    -0.247 C  
BRANCH  18  19
HETATM   19  C   UNL     1     -11.185  15.378  68.379  1.00  0.00    -0.315 C  
HETATM   20  H2  UNL     1     -12.470  14.658  69.876  1.00  0.00     0.000 HD 
HETATM   21  N   UNL     1     -12.290  15.397  69.196  1.00  0.00    -0.609 NA 
HETATM   22  H1  UNL     1     -12.923  16.189  69.084  1.00  0.00     0.000 HD 
BRANCH  19  23
HETATM   23  N   UNL     1     -10.839  16.249  67.490  1.00  0.00    -0.303 N  
HETATM   24  H   UNL     1     -11.181  16.154  66.534  1.00  0.00     0.000 HD 
BRANCH  23  25
HETATM   25  S   UNL     1      -9.874  17.482  67.870  1.00  0.00    -0.308 S  
HETATM   26  O   UNL     1      -8.510  17.148  67.537  1.00  0.00    -0.195 OA 
HETATM   27  O   UNL     1     -10.232  17.972  69.180  1.00  0.00    -0.349 OA 
HETATM   28  N   UNL     1     -10.303  18.699  66.802  1.00  0.00    -0.386 N  
HETATM   29  H1  UNL     1      -9.693  19.480  67.043  1.00  0.00     0.000 HD 
HETATM   30  H2  UNL     1     -11.017  18.667  66.074  1.00  0.00     0.000 HD 
ENDBRANCH  23  25
ENDBRANCH  19  23
ENDBRANCH  18  19
ENDBRANCH  17  18
ENDBRANCH  16  17
ENDBRANCH  15  16
ENDBRANCH  12  15
ENDBRANCH   5  10
TORSDOF 8
ENDMDL
MODEL      307
REMARK 921   NORMALIZED FREE ENERGY PREDICTED BY IDOCK:   -3.26 KCAL/MOL
REMARK 922        TOTAL FREE ENERGY PREDICTED BY IDOCK:   -5.96 KCAL/MOL
REMARK 923 INTER-LIGAND FREE ENERGY PREDICTED BY IDOCK:   -4.75 KCAL/MOL
REMARK 924 INTRA-LIGAND FREE ENERGY PREDICTED BY IDOCK:   -1.21 KCAL/MOL
REMARK 927      BINDING AFFINITY PREDICTED BY RF-SCORE:    0.00 PKD
ROOT
HETATM    1  N   UNL     1     -13.304  14.855  71.273  1.00  0.00    -0.393 NA 
HETATM    2  C   UNL     1     -12.376  14.880  70.286  1.00  0.00    -0.341 C  
HETATM    3  H2  UNL     1     -13.111  14.690  72.260  1.00  0.00     0.000 HD 
HETATM    4  H1  UNL     1     -14.226  15.028  70.873  1.00  0.00     0.000 HD 
HETATM    5  N   UNL     1     -12.722  15.116  69.067  1.00  0.00    -0.290 NA 
HETATM    6  N   UNL     1     -11.149  14.650  70.817  1.00  0.00    -0.509 NA 
HETATM    7  H2  UNL     1     -10.955  14.485  71.804  1.00  0.00     0.000 HD 
HETATM    8  H1  UNL     1     -10.450  14.670  70.074  1.00  0.00     0.000 HD 
HETATM    9  H   UNL     1     -13.697  15.297  68.828  1.00  0.00     0.000 HD 
ENDROOT
BRANCH   5  10
HETATM   10  C   UNL     1     -11.761  15.118  68.108  1.00  0.00    -0.302 A  
HETATM   11  N   UNL     1     -10.645  15.830  68.057  1.00  0.00    -0.270 NA 
HETATM   12  C   UNL     1      -9.914  15.529  66.911  1.00  0.00    -0.247 A  
HETATM   13  S   UNL     1     -11.969  14.043  66.766  1.00  0.00    -0.445 SA 
HETATM   14  C   UNL     1     -10.504  14.594  66.085  1.00  0.00    -0.302 A  
BRANCH  12  15
HETATM   15  C   UNL     1      -8.609  16.224  66.680  1.00  0.00    -0.267 C  
BRANCH  15  16
HETATM   16  S   UNL     1      -7.408  15.790  67.988  1.00  0.00    -0.133 SA 
BRANCH  16  17
HETATM   17  C   UNL     1      -7.044  14.055  67.547  1.00  0.00    -0.160 C  
BRANCH  17  18
HETATM   18  C   UNL     1      -6.983  13.089  68.725  1.00  0.00    -0.103 C  
BRANCH  18  19
HETATM   19  C   UNL     1      -7.901  11.880  68.551  1.00  0.00    -0.136 C  
HETATM   20  H2  UNL     1      -9.563  12.950  69.263  1.00  0.00     0.000 HD 
HETATM   21  N   UNL     1      -9.218  12.059  68.905  1.00  0.00    -0.392 NA 
HETATM   22  H1  UNL     1      -9.831  11.252  68.789  1.00  0.00     0.000 HD 
BRANCH  19  23
HETATM   23  N   UNL     1      -7.343  10.815  68.079  1.00  0.00    -0.087 N  
HETATM   24  H   UNL     1      -6.555  10.399  68.576  1.00  0.00     0.000 HD 
BRANCH  23  25
HETATM   25  S   UNL     1      -7.872  10.136  66.718  1.00  0.00    -0.110 S  
HETATM   26  O   UNL     1      -7.727  11.069  65.626  1.00  0.00    -0.056 OA 
HETATM   27  O   UNL     1      -9.127   9.473  66.981  1.00  0.00    -0.132 OA 
HETATM   28  N   UNL     1      -6.775   8.911  66.402  1.00  0.00    -0.073 N  
HETATM   29  H1  UNL     1      -7.110   8.481  65.540  1.00  0.00     0.000 HD 
HETATM   30  H2  UNL     1      -5.953   8.652  66.949  1.00  0.00     0.000 HD 
ENDBRANCH  23  25
ENDBRANCH  19  23
ENDBRANCH  18  19
ENDBRANCH  17  18
ENDBRANCH  16  17
ENDBRANCH  15  16
ENDBRANCH  12  15
ENDBRANCH   5  10
TORSDOF 8
ENDMDL
MODEL      308
REMARK 921   NORMALIZED FREE ENERGY PREDICTED BY IDOCK:   -3.20 KCAL/MOL
REMARK 922        TOTAL FREE ENERGY PREDICTED BY IDOCK:   -5.88 KCAL/MOL
REMARK 923 INTER-LIGAND FREE ENERGY PREDICTED BY IDOCK:   -4.97 KCAL/MOL
REMARK 924 INTRA-LIGAND FREE ENERGY PREDICTED BY IDOCK:   -0.91 KCAL/MOL
REMARK 927      BINDING AFFINITY PREDICTED BY RF-SCORE:    0.00 PKD
ROOT
HETATM    1  N   UNL     1      -9.535   9.627  62.352  1.00  0.00    -0.561 NA 
HETATM    2  C   UNL     1      -9.109   9.989  63.586  1.00  0.00    -0.268 C  
HETATM    3  H2  UNL     1      -9.537  10.229  61.528  1.00  0.00     0.000 HD 
HETATM    4  H1  UNL     1      -9.854   8.660  62.375  1.00  0.00     0.000 HD 
HETATM    5  N   UNL     1      -9.132   9.146  64.560  1.00  0.00    -0.429 NA 
HETATM    6  N   UNL     1      -8.684  11.277  63.555  1.00  0.00    -0.409 NA 
HETATM    7  H2  UNL     1      -8.686  11.879  62.732  1.00  0.00     0.000 HD 
HETATM    8  H1  UNL     1      -8.363  11.549  64.484  1.00  0.00     0.000 HD 
HETATM    9  H   UNL     1      -9.461   8.192  64.415  1.00  0.00     0.000 HD 
ENDROOT
BRANCH   5  10
HETATM   10  C   UNL     1      -8.708   9.555  65.783  1.00  0.00    -0.147 A  
HETATM   11  N   UNL     1      -8.756  10.768  66.312  1.00  0.00    -0.163 NA 
HETATM   12  C   UNL     1      -8.234  10.771  67.603  1.00  0.00    -0.115 A  
HETATM   13  S   UNL     1      -8.030   8.358  66.836  1.00  0.00    -0.099 SA 
HETATM   14  C   UNL     1      -7.769   9.545  68.034  1.00  0.00    -0.087 A  
BRANCH  12  15
HETATM   15  C   UNL     1      -8.213  12.053  68.374  1.00  0.00    -0.151 C  
BRANCH  15  16
HETATM   16  S   UNL     1      -6.607  12.901  68.171  1.00  0.00    -0.109 SA 
BRANCH  16  17
HETATM   17  C   UNL     1      -6.663  14.070  69.573  1.00  0.00    -0.091 C  
BRANCH  17  18
HETATM   18  C   UNL     1      -7.282  15.426  69.258  1.00  0.00    -0.186 C  
BRANCH  18  19
HETATM   19  C   UNL     1      -8.776  15.340  68.946  1.00  0.00    -0.208 C  
HETATM   20  H2  UNL     1      -9.230  14.788  70.921  1.00  0.00     0.000 HD 
HETATM   21  N   UNL     1      -9.597  14.984  69.989  1.00  0.00    -0.453 NA 
HETATM   22  H1  UNL     1     -10.594  14.926  69.781  1.00  0.00     0.000 HD 
BRANCH  19  23
HETATM   23  N   UNL     1      -9.112  15.622  67.731  1.00  0.00    -0.181 N  
HETATM   24  H   UNL     1      -8.503  15.340  66.963  1.00  0.00     0.000 HD 
BRANCH  23  25
HETATM   25  S   UNL     1     -10.478  16.414  67.411  1.00  0.00    -0.300 S  
HETATM   26  O   UNL     1     -11.605  15.640  67.876  1.00  0.00    -0.305 OA 
HETATM   27  O   UNL     1     -10.421  16.926  66.063  1.00  0.00    -0.337 OA 
HETATM   28  N   UNL     1     -10.429  17.761  68.405  1.00  0.00    -0.368 N  
HETATM   29  H1  UNL     1     -11.293  18.262  68.203  1.00  0.00     0.000 HD 
HETATM   30  H2  UNL     1      -9.696  18.023  69.066  1.00  0.00     0.000 HD 
ENDBRANCH  23  25
ENDBRANCH  19  23
ENDBRANCH  18  19
ENDBRANCH  17  18
ENDBRANCH  16  17
ENDBRANCH  15  16
ENDBRANCH  12  15
ENDBRANCH   5  10
TORSDOF 8
ENDMDL
MODEL      309
REMARK 921   NORMALIZED FREE ENERGY PREDICTED BY IDOCK:   -3.20 KCAL/MOL
REMARK 922        TOTAL FREE ENERGY PREDICTED BY IDOCK:   -5.87 KCAL/MOL
REMARK 923 INTER-LIGAND FREE ENERGY PREDICTED BY IDOCK:   -4.92 KCAL/MOL
REMARK 924 INTRA-LIGAND FREE ENERGY PREDICTED BY IDOCK:   -0.95 KCAL/MOL
REMARK 927      BINDING AFFINITY PREDICTED BY RF-SCORE:    0.00 PKD
ROOT
HETATM    1  N   UNL     1     -10.134   5.139  67.782  1.00  0.00    -0.159 NA 
HETATM    2  C   UNL     1     -10.219   6.323  67.130  1.00  0.00    -0.196 C  
HETATM    3  H2  UNL     1     -10.890   4.460  67.873  1.00  0.00     0.000 HD 
HETATM    4  H1  UNL     1      -9.197   5.032  68.168  1.00  0.00     0.000 HD 
HETATM    5  N   UNL     1      -9.198   7.105  67.057  1.00  0.00    -0.139 NA 
HETATM    6  N   UNL     1     -11.467   6.466  66.617  1.00  0.00    -0.683 NA 
HETATM    7  H2  UNL     1     -12.223   5.787  66.708  1.00  0.00     0.000 HD 
HETATM    8  H1  UNL     1     -11.531   7.357  66.126  1.00  0.00     0.000 HD 
HETATM    9  H   UNL     1      -8.308   6.841  67.480  1.00  0.00     0.000 HD 
ENDROOT
BRANCH   5  10
HETATM   10  C   UNL     1      -9.332   8.289  66.406  1.00  0.00    -0.213 A  
HETATM   11  N   UNL     1      -9.935   9.395  66.815  1.00  0.00    -0.220 NA 
HETATM   12  C   UNL     1      -9.837  10.401  65.858  1.00  0.00    -0.235 A  
HETATM   13  S   UNL     1      -8.610   8.425  64.837  1.00  0.00    -0.013 SA 
HETATM   14  C   UNL     1      -9.169  10.032  64.707  1.00  0.00    -0.249 A  
BRANCH  12  15
HETATM   15  C   UNL     1     -10.449  11.736  66.143  1.00  0.00    -0.245 C  
BRANCH  15  16
HETATM   16  S   UNL     1     -10.238  12.177  67.904  1.00  0.00    -0.203 SA 
BRANCH  16  17
HETATM   17  C   UNL     1      -8.635  13.052  67.843  1.00  0.00    -0.189 C  
BRANCH  17  18
HETATM   18  C   UNL     1      -8.640  14.352  67.047  1.00  0.00    -0.226 C  
BRANCH  18  19
HETATM   19  C   UNL     1      -8.629  15.594  67.937  1.00  0.00    -0.162 C  
HETATM   20  H2  UNL     1      -7.545  16.693  66.513  1.00  0.00     0.000 HD 
HETATM   21  N   UNL     1      -7.989  16.700  67.432  1.00  0.00    -0.158 NA 
HETATM   22  H1  UNL     1      -7.981  17.530  68.026  1.00  0.00     0.000 HD 
BRANCH  19  23
HETATM   23  N   UNL     1      -9.234  15.475  69.072  1.00  0.00    -0.220 N  
HETATM   24  H   UNL     1      -8.776  14.979  69.837  1.00  0.00     0.000 HD 
BRANCH  23  25
HETATM   25  S   UNL     1     -10.703  16.098  69.297  1.00  0.00    -0.319 S  
HETATM   26  O   UNL     1     -11.121  15.869  70.660  1.00  0.00    -0.332 OA 
HETATM   27  O   UNL     1     -11.543  15.736  68.180  1.00  0.00    -0.344 OA 
HETATM   28  N   UNL     1     -10.482  17.754  69.175  1.00  0.00    -0.414 N  
HETATM   29  H1  UNL     1     -11.411  18.149  69.317  1.00  0.00     0.000 HD 
HETATM   30  H2  UNL     1      -9.612  18.257  68.998  1.00  0.00     0.000 HD 
ENDBRANCH  23  25
ENDBRANCH  19  23
ENDBRANCH  18  19
ENDBRANCH  17  18
ENDBRANCH  16  17
ENDBRANCH  15  16
ENDBRANCH  12  15
ENDBRANCH   5  10
TORSDOF 8
ENDMDL
MODEL      310
REMARK 921   NORMALIZED FREE ENERGY PREDICTED BY IDOCK:   -3.19 KCAL/MOL
REMARK 922        TOTAL FREE ENERGY PREDICTED BY IDOCK:   -5.87 KCAL/MOL
REMARK 923 INTER-LIGAND FREE ENERGY PREDICTED BY IDOCK:   -5.77 KCAL/MOL
REMARK 924 INTRA-LIGAND FREE ENERGY PREDICTED BY IDOCK:   -0.10 KCAL/MOL
REMARK 927      BINDING AFFINITY PREDICTED BY RF-SCORE:    0.00 PKD
ROOT
HETATM    1  N   UNL     1     -12.766  16.182  72.711  1.00  0.00    -0.434 NA 
HETATM    2  C   UNL     1     -12.482  14.952  72.219  1.00  0.00    -0.341 C  
HETATM    3  H2  UNL     1     -12.086  16.924  72.874  1.00  0.00     0.000 HD 
HETATM    4  H1  UNL     1     -13.767  16.250  72.893  1.00  0.00     0.000 HD 
HETATM    5  N   UNL     1     -13.420  14.088  72.033  1.00  0.00    -0.399 NA 
HETATM    6  N   UNL     1     -11.150  14.861  71.978  1.00  0.00    -0.339 NA 
HETATM    7  H2  UNL     1     -10.470  15.602  72.140  1.00  0.00     0.000 HD 
HETATM    8  H1  UNL     1     -10.937  13.935  71.607  1.00  0.00     0.000 HD 
HETATM    9  H   UNL     1     -14.391  14.320  72.243  1.00  0.00     0.000 HD 
ENDROOT
BRANCH   5  10
HETATM   10  C   UNL     1     -13.089  12.863  71.551  1.00  0.00    -0.298 A  
HETATM   11  N   UNL     1     -13.359  11.672  72.064  1.00  0.00    -0.429 NA 
HETATM   12  C   UNL     1     -12.859  10.655  71.255  1.00  0.00    -0.434 A  
HETATM   13  S   UNL     1     -12.218  12.800  70.056  1.00  0.00    -0.144 SA 
HETATM   14  C   UNL     1     -12.186  11.096  70.133  1.00  0.00    -0.337 A  
BRANCH  12  15
HETATM   15  C   UNL     1     -13.076   9.231  71.662  1.00  0.00    -0.382 C  
BRANCH  15  16
HETATM   16  S   UNL     1     -11.500   8.461  72.176  1.00  0.00    -0.388 SA 
BRANCH  16  17
HETATM   17  C   UNL     1     -11.839   6.709  71.784  1.00  0.00    -0.335 C  
BRANCH  17  18
HETATM   18  C   UNL     1     -10.662   5.942  71.192  1.00  0.00    -0.328 C  
BRANCH  18  19
HETATM   19  C   UNL     1     -10.591   6.045  69.669  1.00  0.00    -0.300 C  
HETATM   20  H2  UNL     1     -10.352   3.968  69.468  1.00  0.00     0.000 HD 
HETATM   21  N   UNL     1     -10.424   4.864  68.985  1.00  0.00    -0.024 NA 
HETATM   22  H1  UNL     1     -10.376   4.932  67.969  1.00  0.00     0.000 HD 
BRANCH  19  23
HETATM   23  N   UNL     1     -10.705   7.236  69.182  1.00  0.00    -0.308 N  
HETATM   24  H   UNL     1     -11.598   7.724  69.251  1.00  0.00     0.000 HD 
BRANCH  23  25
HETATM   25  S   UNL     1      -9.456   7.962  68.469  1.00  0.00    -0.149 S  
HETATM   26  O   UNL     1      -9.829   9.305  68.093  1.00  0.00    -0.153 OA 
HETATM   27  O   UNL     1      -8.863   7.051  67.519  1.00  0.00    -0.120 OA 
HETATM   28  N   UNL     1      -8.320   8.143  69.687  1.00  0.00    -0.123 N  
HETATM   29  H1  UNL     1      -7.530   8.603  69.235  1.00  0.00     0.000 HD 
HETATM   30  H2  UNL     1      -8.401   7.858  70.663  1.00  0.00     0.000 HD 
ENDBRANCH  23  25
ENDBRANCH  19  23
ENDBRANCH  18  19
ENDBRANCH  17  18
ENDBRANCH  16  17
ENDBRANCH  15  16
ENDBRANCH  12  15
ENDBRANCH   5  10
TORSDOF 8
ENDMDL
MODEL      311
REMARK 921   NORMALIZED FREE ENERGY PREDICTED BY IDOCK:   -3.19 KCAL/MOL
REMARK 922        TOTAL FREE ENERGY PREDICTED BY IDOCK:   -5.86 KCAL/MOL
REMARK 923 INTER-LIGAND FREE ENERGY PREDICTED BY IDOCK:   -4.79 KCAL/MOL
REMARK 924 INTRA-LIGAND FREE ENERGY PREDICTED BY IDOCK:   -1.07 KCAL/MOL
REMARK 927      BINDING AFFINITY PREDICTED BY RF-SCORE:    0.00 PKD
ROOT
HETATM    1  N   UNL     1     -14.395   8.931  73.032  1.00  0.00    -1.154 NA 
HETATM    2  C   UNL     1     -13.190   8.945  72.411  1.00  0.00    -0.430 C  
HETATM    3  H2  UNL     1     -15.073   9.692  73.020  1.00  0.00     0.000 HD 
HETATM    4  H1  UNL     1     -14.516   8.040  73.512  1.00  0.00     0.000 HD 
HETATM    5  N   UNL     1     -12.410   7.922  72.472  1.00  0.00    -0.565 NA 
HETATM    6  N   UNL     1     -13.028  10.131  71.772  1.00  0.00    -0.434 NA 
HETATM    7  H2  UNL     1     -13.706  10.892  71.760  1.00  0.00     0.000 HD 
HETATM    8  H1  UNL     1     -12.121  10.141  71.304  1.00  0.00     0.000 HD 
HETATM    9  H   UNL     1     -12.690   7.082  72.979  1.00  0.00     0.000 HD 
ENDROOT
BRANCH   5  10
HETATM   10  C   UNL     1     -11.206   7.985  71.847  1.00  0.00    -0.280 A  
HETATM   11  N   UNL     1     -10.951   8.175  70.562  1.00  0.00    -0.242 NA 
HETATM   12  C   UNL     1      -9.579   8.193  70.323  1.00  0.00    -0.171 A  
HETATM   13  S   UNL     1      -9.787   7.823  72.827  1.00  0.00    -0.273 SA 
HETATM   14  C   UNL     1      -8.800   7.990  71.444  1.00  0.00    -0.141 A  
BRANCH  12  15
HETATM   15  C   UNL     1      -9.089   8.411  68.926  1.00  0.00    -0.147 C  
BRANCH  15  16
HETATM   16  S   UNL     1      -8.353   6.879  68.255  1.00  0.00    -0.122 SA 
BRANCH  16  17
HETATM   17  C   UNL     1      -9.656   5.669  68.674  1.00  0.00    -0.130 C  
BRANCH  17  18
HETATM   18  C   UNL     1      -9.615   4.374  67.871  1.00  0.00    -0.205 C  
BRANCH  18  19
HETATM   19  C   UNL     1      -8.957   3.223  68.632  1.00  0.00    -0.132 C  
HETATM   20  H2  UNL     1      -9.963   1.788  67.475  1.00  0.00     0.000 HD 
HETATM   21  N   UNL     1      -9.303   1.953  68.235  1.00  0.00    -0.186 NA 
HETATM   22  H1  UNL     1      -8.865   1.185  68.743  1.00  0.00     0.000 HD 
BRANCH  19  23
HETATM   23  N   UNL     1      -8.133   3.567  69.565  1.00  0.00    -0.053 N  
HETATM   24  H   UNL     1      -8.005   4.555  69.783  1.00  0.00     0.000 HD 
BRANCH  23  25
HETATM   25  S   UNL     1      -7.306   2.458  70.390  1.00  0.00    -0.032 S  
HETATM   26  O   UNL     1      -6.579   3.096  71.462  1.00  0.00    -0.021 OA 
HETATM   27  O   UNL     1      -6.650   1.571  69.458  1.00  0.00    -0.028 OA 
HETATM   28  N   UNL     1      -8.479   1.529  71.144  1.00  0.00    -0.046 N  
HETATM   29  H1  UNL     1      -7.956   0.827  71.666  1.00  0.00     0.000 HD 
HETATM   30  H2  UNL     1      -9.492   1.641  71.092  1.00  0.00     0.000 HD 
ENDBRANCH  23  25
ENDBRANCH  19  23
ENDBRANCH  18  19
ENDBRANCH  17  18
ENDBRANCH  16  17
ENDBRANCH  15  16
ENDBRANCH  12  15
ENDBRANCH   5  10
TORSDOF 8
ENDMDL
MODEL      312
REMARK 921   NORMALIZED FREE ENERGY PREDICTED BY IDOCK:   -3.18 KCAL/MOL
REMARK 922        TOTAL FREE ENERGY PREDICTED BY IDOCK:   -5.85 KCAL/MOL
REMARK 923 INTER-LIGAND FREE ENERGY PREDICTED BY IDOCK:   -4.73 KCAL/MOL
REMARK 924 INTRA-LIGAND FREE ENERGY PREDICTED BY IDOCK:   -1.12 KCAL/MOL
REMARK 927      BINDING AFFINITY PREDICTED BY RF-SCORE:    0.00 PKD
ROOT
HETATM    1  N   UNL     1     -11.131  11.654  63.117  1.00  0.00    -0.761 NA 
HETATM    2  C   UNL     1     -10.766  12.650  63.960  1.00  0.00    -0.425 C  
HETATM    3  H2  UNL     1     -10.668  10.749  63.038  1.00  0.00     0.000 HD 
HETATM    4  H1  UNL     1     -11.941  11.952  62.574  1.00  0.00     0.000 HD 
HETATM    5  N   UNL     1     -11.429  13.754  63.996  1.00  0.00    -0.608 NA 
HETATM    6  N   UNL     1      -9.687  12.255  64.682  1.00  0.00    -0.470 NA 
HETATM    7  H2  UNL     1      -9.224  11.350  64.603  1.00  0.00     0.000 HD 
HETATM    8  H1  UNL     1      -9.412  13.004  65.317  1.00  0.00     0.000 HD 
HETATM    9  H   UNL     1     -12.245  13.892  63.399  1.00  0.00     0.000 HD 
ENDROOT
BRANCH   5  10
HETATM   10  C   UNL     1     -11.020  14.730  64.846  1.00  0.00    -0.412 A  
HETATM   11  N   UNL     1     -10.384  14.608  66.002  1.00  0.00    -0.291 NA 
HETATM   12  C   UNL     1     -10.125  15.855  66.563  1.00  0.00    -0.282 A  
HETATM   13  S   UNL     1     -11.327  16.372  64.386  1.00  0.00     0.315 SA 
HETATM   14  C   UNL     1     -10.595  16.923  65.825  1.00  0.00    -0.230 A  
BRANCH  12  15
HETATM   15  C   UNL     1      -9.399  15.926  67.870  1.00  0.00    -0.207 C  
BRANCH  15  16
HETATM   16  S   UNL     1      -9.532  14.338  68.766  1.00  0.00    -0.073 SA 
BRANCH  16  17
HETATM   17  C   UNL     1      -7.779  13.823  68.800  1.00  0.00    -0.080 C  
BRANCH  17  18
HETATM   18  C   UNL     1      -7.265  13.199  67.508  1.00  0.00    -0.156 C  
BRANCH  18  19
HETATM   19  C   UNL     1      -7.514  11.692  67.436  1.00  0.00    -0.135 C  
HETATM   20  H2  UNL     1      -6.822  11.600  65.455  1.00  0.00     0.000 HD 
HETATM   21  N   UNL     1      -7.200  11.079  66.247  1.00  0.00    -0.250 NA 
HETATM   22  H1  UNL     1      -7.366  10.073  66.198  1.00  0.00     0.000 HD 
BRANCH  19  23
HETATM   23  N   UNL     1      -7.986  11.150  68.510  1.00  0.00    -0.136 N  
HETATM   24  H   UNL     1      -8.952  11.332  68.781  1.00  0.00     0.000 HD 
BRANCH  23  25
HETATM   25  S   UNL     1      -7.070  10.193  69.425  1.00  0.00    -0.100 S  
HETATM   26  O   UNL     1      -7.764   8.951  69.670  1.00  0.00    -0.073 OA 
HETATM   27  O   UNL     1      -6.512  10.970  70.507  1.00  0.00    -0.309 OA 
HETATM   28  N   UNL     1      -5.772   9.788  68.448  1.00  0.00    -0.043 N  
HETATM   29  H1  UNL     1      -5.192   9.182  69.027  1.00  0.00     0.000 HD 
HETATM   30  H2  UNL     1      -5.599  10.083  67.486  1.00  0.00     0.000 HD 
ENDBRANCH  23  25
ENDBRANCH  19  23
ENDBRANCH  18  19
ENDBRANCH  17  18
ENDBRANCH  16  17
ENDBRANCH  15  16
ENDBRANCH  12  15
ENDBRANCH   5  10
TORSDOF 8
ENDMDL
MODEL      313
REMARK 921   NORMALIZED FREE ENERGY PREDICTED BY IDOCK:   -3.18 KCAL/MOL
REMARK 922        TOTAL FREE ENERGY PREDICTED BY IDOCK:   -5.84 KCAL/MOL
REMARK 923 INTER-LIGAND FREE ENERGY PREDICTED BY IDOCK:   -4.76 KCAL/MOL
REMARK 924 INTRA-LIGAND FREE ENERGY PREDICTED BY IDOCK:   -1.08 KCAL/MOL
REMARK 927      BINDING AFFINITY PREDICTED BY RF-SCORE:    0.00 PKD
ROOT
HETATM    1  N   UNL     1      -6.510   8.276  69.365  1.00  0.00    -0.037 NA 
HETATM    2  C   UNL     1      -7.522   8.126  70.253  1.00  0.00    -0.067 C  
HETATM    3  H2  UNL     1      -5.916   9.101  69.282  1.00  0.00     0.000 HD 
HETATM    4  H1  UNL     1      -6.435   7.436  68.792  1.00  0.00     0.000 HD 
HETATM    5  N   UNL     1      -8.205   7.034  70.289  1.00  0.00    -0.126 NA 
HETATM    6  N   UNL     1      -7.622   9.244  71.015  1.00  0.00    -0.268 NA 
HETATM    7  H2  UNL     1      -7.027  10.069  70.932  1.00  0.00     0.000 HD 
HETATM    8  H1  UNL     1      -8.383   9.131  71.684  1.00  0.00     0.000 HD 
HETATM    9  H   UNL     1      -7.988   6.263  69.658  1.00  0.00     0.000 HD 
ENDROOT
BRANCH   5  10
HETATM   10  C   UNL     1      -9.219   6.931  71.186  1.00  0.00    -0.154 A  
HETATM   11  N   UNL     1     -10.207   7.783  71.418  1.00  0.00    -0.182 NA 
HETATM   12  C   UNL     1     -11.057   7.301  72.409  1.00  0.00    -0.275 A  
HETATM   13  S   UNL     1      -9.283   5.501  72.160  1.00  0.00    -0.142 SA 
HETATM   14  C   UNL     1     -10.686   6.082  72.940  1.00  0.00    -0.247 A  
BRANCH  12  15
HETATM   15  C   UNL     1     -12.247   8.119  72.804  1.00  0.00    -0.099 C  
BRANCH  15  16
HETATM   16  S   UNL     1     -13.174   8.661  71.326  1.00  0.00    -0.072 SA 
BRANCH  16  17
HETATM   17  C   UNL     1     -12.477  10.333  71.086  1.00  0.00    -0.391 C  
BRANCH  17  18
HETATM   18  C   UNL     1     -12.406  10.800  69.637  1.00  0.00    -0.262 C  
BRANCH  18  19
HETATM   19  C   UNL     1     -11.743  12.169  69.485  1.00  0.00    -0.336 C  
HETATM   20  H2  UNL     1     -12.547  12.840  71.305  1.00  0.00     0.000 HD 
HETATM   21  N   UNL     1     -11.969  13.071  70.497  1.00  0.00    -0.534 NA 
HETATM   22  H1  UNL     1     -11.527  13.985  70.395  1.00  0.00     0.000 HD 
BRANCH  19  23
HETATM   23  N   UNL     1     -11.030  12.330  68.420  1.00  0.00    -0.222 N  
HETATM   24  H   UNL     1     -10.687  11.512  67.915  1.00  0.00     0.000 HD 
BRANCH  23  25
HETATM   25  S   UNL     1     -10.673  13.805  67.878  1.00  0.00    -0.252 S  
HETATM   26  O   UNL     1     -10.354  13.738  66.472  1.00  0.00    -0.277 OA 
HETATM   27  O   UNL     1      -9.791  14.451  68.821  1.00  0.00    -0.232 OA 
HETATM   28  N   UNL     1     -12.117  14.648  67.964  1.00  0.00    -0.582 N  
HETATM   29  H1  UNL     1     -11.891  15.581  67.621  1.00  0.00     0.000 HD 
HETATM   30  H2  UNL     1     -13.022  14.305  68.287  1.00  0.00     0.000 HD 
ENDBRANCH  23  25
ENDBRANCH  19  23
ENDBRANCH  18  19
ENDBRANCH  17  18
ENDBRANCH  16  17
ENDBRANCH  15  16
ENDBRANCH  12  15
ENDBRANCH   5  10
TORSDOF 8
ENDMDL
MODEL      314
REMARK 921   NORMALIZED FREE ENERGY PREDICTED BY IDOCK:   -3.17 KCAL/MOL
REMARK 922        TOTAL FREE ENERGY PREDICTED BY IDOCK:   -5.84 KCAL/MOL
REMARK 923 INTER-LIGAND FREE ENERGY PREDICTED BY IDOCK:   -4.90 KCAL/MOL
REMARK 924 INTRA-LIGAND FREE ENERGY PREDICTED BY IDOCK:   -0.93 KCAL/MOL
REMARK 927      BINDING AFFINITY PREDICTED BY RF-SCORE:    0.00 PKD
ROOT
HETATM    1  N   UNL     1      -7.326   3.926  72.680  1.00  0.00    -0.061 NA 
HETATM    2  C   UNL     1      -8.299   4.718  72.166  1.00  0.00    -0.119 C  
HETATM    3  H2  UNL     1      -7.278   3.602  73.646  1.00  0.00     0.000 HD 
HETATM    4  H1  UNL     1      -6.651   3.705  71.950  1.00  0.00     0.000 HD 
HETATM    5  N   UNL     1      -8.278   5.058  70.924  1.00  0.00    -0.105 NA 
HETATM    6  N   UNL     1      -9.198   5.012  73.138  1.00  0.00    -0.122 NA 
HETATM    7  H2  UNL     1      -9.150   4.688  74.104  1.00  0.00     0.000 HD 
HETATM    8  H1  UNL     1      -9.931   5.608  72.752  1.00  0.00     0.000 HD 
HETATM    9  H   UNL     1      -7.536   4.730  70.306  1.00  0.00     0.000 HD 
ENDROOT
BRANCH   5  10
HETATM   10  C   UNL     1      -9.265   5.864  70.455  1.00  0.00    -0.158 A  
HETATM   11  N   UNL     1      -9.494   7.139  70.733  1.00  0.00    -0.164 NA 
HETATM   12  C   UNL     1     -10.599   7.612  70.030  1.00  0.00    -0.238 A  
HETATM   13  S   UNL     1     -10.382   5.183  69.320  1.00  0.00    -0.111 SA 
HETATM   14  C   UNL     1     -11.217   6.668  69.234  1.00  0.00    -0.266 A  
BRANCH  12  15
HETATM   15  C   UNL     1     -11.010   9.041  70.201  1.00  0.00    -0.233 C  
BRANCH  15  16
HETATM   16  S   UNL     1      -9.962  10.138  69.183  1.00  0.00    -0.222 SA 
BRANCH  16  17
HETATM   17  C   UNL     1     -11.002  10.305  67.690  1.00  0.00    -0.294 C  
BRANCH  17  18
HETATM   18  C   UNL     1     -10.315  10.958  66.496  1.00  0.00    -0.299 C  
BRANCH  18  19
HETATM   19  C   UNL     1     -10.851  12.357  66.192  1.00  0.00    -0.273 C  
HETATM   20  H2  UNL     1     -12.800  11.627  65.910  1.00  0.00     0.000 HD 
HETATM   21  N   UNL     1     -12.194  12.448  65.914  1.00  0.00    -0.632 NA 
HETATM   22  H1  UNL     1     -12.552  13.382  65.711  1.00  0.00     0.000 HD 
BRANCH  19  23
HETATM   23  N   UNL     1      -9.983  13.312  66.240  1.00  0.00    -0.286 N  
HETATM   24  H   UNL     1      -8.988  13.086  66.268  1.00  0.00     0.000 HD 
BRANCH  23  25
HETATM   25  S   UNL     1     -10.447  14.854  66.254  1.00  0.00    -0.315 S  
HETATM   26  O   UNL     1     -11.383  15.066  67.333  1.00  0.00    -0.329 OA 
HETATM   27  O   UNL     1     -10.748  15.267  64.904  1.00  0.00    -0.419 OA 
HETATM   28  N   UNL     1      -9.072  15.706  66.689  1.00  0.00    -0.257 N  
HETATM   29  H1  UNL     1      -9.367  16.682  66.698  1.00  0.00     0.000 HD 
HETATM   30  H2  UNL     1      -8.146  15.332  66.898  1.00  0.00     0.000 HD 
ENDBRANCH  23  25
ENDBRANCH  19  23
ENDBRANCH  18  19
ENDBRANCH  17  18
ENDBRANCH  16  17
ENDBRANCH  15  16
ENDBRANCH  12  15
ENDBRANCH   5  10
TORSDOF 8
ENDMDL
MODEL      315
REMARK 921   NORMALIZED FREE ENERGY PREDICTED BY IDOCK:   -3.16 KCAL/MOL
REMARK 922        TOTAL FREE ENERGY PREDICTED BY IDOCK:   -5.82 KCAL/MOL
REMARK 923 INTER-LIGAND FREE ENERGY PREDICTED BY IDOCK:   -4.82 KCAL/MOL
REMARK 924 INTRA-LIGAND FREE ENERGY PREDICTED BY IDOCK:   -1.00 KCAL/MOL
REMARK 927      BINDING AFFINITY PREDICTED BY RF-SCORE:    0.00 PKD
ROOT
HETATM    1  N   UNL     1     -10.533  15.702  64.637  1.00  0.00    -0.639 NA 
HETATM    2  C   UNL     1     -10.617  14.653  65.490  1.00  0.00    -0.355 C  
HETATM    3  H2  UNL     1     -10.376  15.634  63.631  1.00  0.00     0.000 HD 
HETATM    4  H1  UNL     1     -10.651  16.570  65.157  1.00  0.00     0.000 HD 
HETATM    5  N   UNL     1     -10.836  14.845  66.745  1.00  0.00    -0.314 NA 
HETATM    6  N   UNL     1     -10.460  13.497  64.797  1.00  0.00    -0.405 NA 
HETATM    7  H2  UNL     1     -10.303  13.428  63.792  1.00  0.00     0.000 HD 
HETATM    8  H1  UNL     1     -10.524  12.706  65.439  1.00  0.00     0.000 HD 
HETATM    9  H   UNL     1     -10.959  15.787  67.114  1.00  0.00     0.000 HD 
ENDROOT
BRANCH   5  10
HETATM   10  C   UNL     1     -10.899  13.765  67.566  1.00  0.00    -0.265 A  
HETATM   11  N   UNL     1     -10.109  12.703  67.597  1.00  0.00    -0.215 NA 
HETATM   12  C   UNL     1     -10.497  11.822  68.603  1.00  0.00    -0.222 A  
HETATM   13  S   UNL     1     -12.150  13.744  68.764  1.00  0.00    -0.208 SA 
HETATM   14  C   UNL     1     -11.608  12.223  69.317  1.00  0.00    -0.324 A  
BRANCH  12  15
HETATM   15  C   UNL     1      -9.714  10.562  68.806  1.00  0.00    -0.184 C  
BRANCH  15  16
HETATM   16  S   UNL     1      -7.921  10.912  68.802  1.00  0.00    -0.143 SA 
BRANCH  16  17
HETATM   17  C   UNL     1      -7.395   9.991  70.290  1.00  0.00    -0.141 C  
BRANCH  17  18
HETATM   18  C   UNL     1      -7.069   8.521  70.056  1.00  0.00    -0.046 C  
BRANCH  18  19
HETATM   19  C   UNL     1      -8.083   7.576  70.701  1.00  0.00    -0.109 C  
HETATM   20  H2  UNL     1      -9.277   7.561  68.974  1.00  0.00     0.000 HD 
HETATM   21  N   UNL     1      -9.160   7.217  69.927  1.00  0.00    -0.142 NA 
HETATM   22  H1  UNL     1      -9.837   6.587  70.358  1.00  0.00     0.000 HD 
BRANCH  19  23
HETATM   23  N   UNL     1      -7.814   7.206  71.910  1.00  0.00    -0.092 N  
HETATM   24  H   UNL     1      -7.075   6.522  72.073  1.00  0.00     0.000 HD 
BRANCH  23  25
HETATM   25  S   UNL     1      -8.628   7.811  73.162  1.00  0.00    -0.200 S  
HETATM   26  O   UNL     1      -7.851   8.857  73.782  1.00  0.00    -0.380 OA 
HETATM   27  O   UNL     1      -9.178   6.722  73.933  1.00  0.00    -0.152 OA 
HETATM   28  N   UNL     1      -9.945   8.585  72.475  1.00  0.00    -0.284 N  
HETATM   29  H1  UNL     1     -10.460   8.967  73.267  1.00  0.00     0.000 HD 
HETATM   30  H2  UNL     1     -10.179   8.658  71.485  1.00  0.00     0.000 HD 
ENDBRANCH  23  25
ENDBRANCH  19  23
ENDBRANCH  18  19
ENDBRANCH  17  18
ENDBRANCH  16  17
ENDBRANCH  15  16
ENDBRANCH  12  15
ENDBRANCH   5  10
TORSDOF 8
ENDMDL
MODEL      316
REMARK 921   NORMALIZED FREE ENERGY PREDICTED BY IDOCK:   -3.16 KCAL/MOL
REMARK 922        TOTAL FREE ENERGY PREDICTED BY IDOCK:   -5.81 KCAL/MOL
REMARK 923 INTER-LIGAND FREE ENERGY PREDICTED BY IDOCK:   -6.38 KCAL/MOL
REMARK 924 INTRA-LIGAND FREE ENERGY PREDICTED BY IDOCK:    0.57 KCAL/MOL
REMARK 927      BINDING AFFINITY PREDICTED BY RF-SCORE:    0.00 PKD
ROOT
HETATM    1  N   UNL     1     -10.505   7.341  68.911  1.00  0.00    -0.205 NA 
HETATM    2  C   UNL     1     -10.341   8.653  68.613  1.00  0.00    -0.193 C  
HETATM    3  H2  UNL     1      -9.753   6.687  69.126  1.00  0.00     0.000 HD 
HETATM    4  H1  UNL     1     -11.498   7.111  68.886  1.00  0.00     0.000 HD 
HETATM    5  N   UNL     1     -11.361   9.402  68.372  1.00  0.00    -0.385 NA 
HETATM    6  N   UNL     1      -9.020   8.960  68.646  1.00  0.00    -0.137 NA 
HETATM    7  H2  UNL     1      -8.268   8.305  68.861  1.00  0.00     0.000 HD 
HETATM    8  H1  UNL     1      -8.896   9.947  68.422  1.00  0.00     0.000 HD 
HETATM    9  H   UNL     1     -12.307   9.023  68.411  1.00  0.00     0.000 HD 
ENDROOT
BRANCH   5  10
HETATM   10  C   UNL     1     -11.150  10.708  68.064  1.00  0.00    -0.301 A  
HETATM   11  N   UNL     1     -11.948  11.545  67.418  1.00  0.00    -0.597 NA 
HETATM   12  C   UNL     1     -11.371  12.808  67.321  1.00  0.00    -0.314 A  
HETATM   13  S   UNL     1      -9.661  11.422  68.588  1.00  0.00    -0.142 SA 
HETATM   14  C   UNL     1     -10.114  12.908  67.882  1.00  0.00    -0.232 A  
BRANCH  12  15
HETATM   15  C   UNL     1     -12.129  13.900  66.633  1.00  0.00    -0.448 C  
BRANCH  15  16
HETATM   16  S   UNL     1     -11.205  14.509  65.179  1.00  0.00    -0.388 SA 
BRANCH  16  17
HETATM   17  C   UNL     1     -10.452  16.024  65.869  1.00  0.00    -0.359 C  
BRANCH  17  18
HETATM   18  C   UNL     1      -8.947  15.951  66.095  1.00  0.00    -0.376 C  
BRANCH  18  19
HETATM   19  C   UNL     1      -8.331  17.305  66.448  1.00  0.00    -0.280 C  
HETATM   20  H2  UNL     1      -6.419  16.462  66.659  1.00  0.00     0.000 HD 
HETATM   21  N   UNL     1      -6.981  17.313  66.702  1.00  0.00    -0.210 NA 
HETATM   22  H1  UNL     1      -6.570  18.216  66.938  1.00  0.00     0.000 HD 
BRANCH  19  23
HETATM   23  N   UNL     1      -9.148  18.305  66.459  1.00  0.00    -0.288 N  
HETATM   24  H   UNL     1      -9.703  18.511  65.628  1.00  0.00     0.000 HD 
BRANCH  23  25
HETATM   25  S   UNL     1      -9.304  19.233  67.767  1.00  0.00    -0.322 S  
HETATM   26  O   UNL     1     -10.007  20.445  67.419  1.00  0.00    -0.430 OA 
HETATM   27  O   UNL     1      -8.043  19.268  68.470  1.00  0.00    -0.341 OA 
HETATM   28  N   UNL     1     -10.350  18.386  68.764  1.00  0.00    -0.434 N  
HETATM   29  H1  UNL     1     -10.448  18.973  69.592  1.00  0.00     0.000 HD 
HETATM   30  H2  UNL     1     -10.791  17.484  68.583  1.00  0.00     0.000 HD 
ENDBRANCH  23  25
ENDBRANCH  19  23
ENDBRANCH  18  19
ENDBRANCH  17  18
ENDBRANCH  16  17
ENDBRANCH  15  16
ENDBRANCH  12  15
ENDBRANCH   5  10
TORSDOF 8
ENDMDL
MODEL      317
REMARK 921   NORMALIZED FREE ENERGY PREDICTED BY IDOCK:   -3.13 KCAL/MOL
REMARK 922        TOTAL FREE ENERGY PREDICTED BY IDOCK:   -5.77 KCAL/MOL
REMARK 923 INTER-LIGAND FREE ENERGY PREDICTED BY IDOCK:   -4.81 KCAL/MOL
REMARK 924 INTRA-LIGAND FREE ENERGY PREDICTED BY IDOCK:   -0.97 KCAL/MOL
REMARK 927      BINDING AFFINITY PREDICTED BY RF-SCORE:    0.00 PKD
ROOT
HETATM    1  N   UNL     1      -9.304   5.096  67.776  1.00  0.00    -0.119 NA 
HETATM    2  C   UNL     1      -8.953   6.020  66.850  1.00  0.00    -0.117 C  
HETATM    3  H2  UNL     1     -10.086   4.447  67.695  1.00  0.00     0.000 HD 
HETATM    4  H1  UNL     1      -8.662   5.150  68.567  1.00  0.00     0.000 HD 
HETATM    5  N   UNL     1      -7.933   6.784  67.040  1.00  0.00    -0.108 NA 
HETATM    6  N   UNL     1      -9.807   5.948  65.798  1.00  0.00    -0.369 NA 
HETATM    7  H2  UNL     1     -10.589   5.299  65.717  1.00  0.00     0.000 HD 
HETATM    8  H1  UNL     1      -9.543   6.644  65.100  1.00  0.00     0.000 HD 
HETATM    9  H   UNL     1      -7.368   6.698  67.884  1.00  0.00     0.000 HD 
ENDROOT
BRANCH   5  10
HETATM   10  C   UNL     1      -7.626   7.706  66.092  1.00  0.00    -0.088 A  
HETATM   11  N   UNL     1      -8.436   8.539  65.456  1.00  0.00    -0.158 NA 
HETATM   12  C   UNL     1      -7.727   9.342  64.566  1.00  0.00    -0.118 A  
HETATM   13  S   UNL     1      -5.962   7.866  65.640  1.00  0.00    -0.038 SA 
HETATM   14  C   UNL     1      -6.371   9.088  64.522  1.00  0.00    -0.071 A  
BRANCH  12  15
HETATM   15  C   UNL     1      -8.469  10.362  63.761  1.00  0.00    -0.162 C  
BRANCH  15  16
HETATM   16  S   UNL     1     -10.137  10.641  64.454  1.00  0.00    -0.321 SA 
BRANCH  16  17
HETATM   17  C   UNL     1      -9.777  11.945  65.682  1.00  0.00    -0.227 C  
BRANCH  17  18
HETATM   18  C   UNL     1     -10.676  13.173  65.600  1.00  0.00    -0.294 C  
BRANCH  18  19
HETATM   19  C   UNL     1     -11.550  13.354  66.841  1.00  0.00    -0.365 C  
HETATM   20  H2  UNL     1     -11.774  11.279  67.075  1.00  0.00     0.000 HD 
HETATM   21  N   UNL     1     -12.006  12.204  67.439  1.00  0.00    -0.570 NA 
HETATM   22  H1  UNL     1     -12.590  12.324  68.267  1.00  0.00     0.000 HD 
BRANCH  19  23
HETATM   23  N   UNL     1     -11.761  14.576  67.204  1.00  0.00    -0.392 N  
HETATM   24  H   UNL     1     -12.294  15.197  66.594  1.00  0.00     0.000 HD 
BRANCH  23  25
HETATM   25  S   UNL     1     -11.196  15.133  68.606  1.00  0.00    -0.304 S  
HETATM   26  O   UNL     1     -12.242  15.089  69.600  1.00  0.00    -0.300 OA 
HETATM   27  O   UNL     1     -10.439  16.338  68.361  1.00  0.00    -0.256 OA 
HETATM   28  N   UNL     1     -10.074  13.989  69.094  1.00  0.00    -0.432 N  
HETATM   29  H1  UNL     1      -9.717  14.341  69.981  1.00  0.00     0.000 HD 
HETATM   30  H2  UNL     1      -9.808  13.130  68.611  1.00  0.00     0.000 HD 
ENDBRANCH  23  25
ENDBRANCH  19  23
ENDBRANCH  18  19
ENDBRANCH  17  18
ENDBRANCH  16  17
ENDBRANCH  15  16
ENDBRANCH  12  15
ENDBRANCH   5  10
TORSDOF 8
ENDMDL
MODEL      318
REMARK 921   NORMALIZED FREE ENERGY PREDICTED BY IDOCK:   -3.12 KCAL/MOL
REMARK 922        TOTAL FREE ENERGY PREDICTED BY IDOCK:   -5.76 KCAL/MOL
REMARK 923 INTER-LIGAND FREE ENERGY PREDICTED BY IDOCK:   -4.91 KCAL/MOL
REMARK 924 INTRA-LIGAND FREE ENERGY PREDICTED BY IDOCK:   -0.85 KCAL/MOL
REMARK 927      BINDING AFFINITY PREDICTED BY RF-SCORE:    0.00 PKD
ROOT
HETATM    1  N   UNL     1      -6.251  17.647  68.998  1.00  0.00    -0.203 NA 
HETATM    2  C   UNL     1      -7.435  17.281  68.449  1.00  0.00    -0.234 C  
HETATM    3  H2  UNL     1      -5.708  18.469  68.735  1.00  0.00     0.000 HD 
HETATM    4  H1  UNL     1      -5.989  16.972  69.715  1.00  0.00     0.000 HD 
HETATM    5  N   UNL     1      -8.053  16.231  68.865  1.00  0.00    -0.220 NA 
HETATM    6  N   UNL     1      -7.784  18.180  67.494  1.00  0.00    -0.216 NA 
HETATM    7  H2  UNL     1      -7.241  19.002  67.231  1.00  0.00     0.000 HD 
HETATM    8  H1  UNL     1      -8.675  17.905  67.081  1.00  0.00     0.000 HD 
HETATM    9  H   UNL     1      -7.667  15.664  69.620  1.00  0.00     0.000 HD 
ENDROOT
BRANCH   5  10
HETATM   10  C   UNL     1      -9.229  15.893  68.277  1.00  0.00    -0.189 A  
HETATM   11  N   UNL     1      -9.430  15.264  67.129  1.00  0.00    -0.210 NA 
HETATM   12  C   UNL     1     -10.789  15.091  66.886  1.00  0.00    -0.315 A  
HETATM   13  S   UNL     1     -10.688  16.299  69.117  1.00  0.00    -0.327 SA 
HETATM   14  C   UNL     1     -11.616  15.620  67.857  1.00  0.00    -0.190 A  
BRANCH  12  15
HETATM   15  C   UNL     1     -11.219  14.384  65.638  1.00  0.00    -0.323 C  
BRANCH  15  16
HETATM   16  S   UNL     1     -10.916  12.588  65.780  1.00  0.00    -0.303 SA 
BRANCH  16  17
HETATM   17  C   UNL     1     -11.170  12.344  67.572  1.00  0.00    -0.294 C  
BRANCH  17  18
HETATM   18  C   UNL     1     -11.846  11.032  67.956  1.00  0.00    -0.152 C  
BRANCH  18  19
HETATM   19  C   UNL     1     -11.678  10.687  69.435  1.00  0.00    -0.273 C  
HETATM   20  H2  UNL     1     -10.596  12.449  69.798  1.00  0.00     0.000 HD 
HETATM   21  N   UNL     1     -10.981  11.593  70.198  1.00  0.00    -0.304 NA 
HETATM   22  H1  UNL     1     -10.868  11.363  71.185  1.00  0.00     0.000 HD 
BRANCH  19  23
HETATM   23  N   UNL     1     -12.222   9.579  69.817  1.00  0.00    -0.130 N  
HETATM   24  H   UNL     1     -13.163   9.345  69.500  1.00  0.00     0.000 HD 
BRANCH  23  25
HETATM   25  S   UNL     1     -11.434   8.561  70.785  1.00  0.00    -0.220 S  
HETATM   26  O   UNL     1     -11.874   7.210  70.526  1.00  0.00    -0.299 OA 
HETATM   27  O   UNL     1     -11.415   9.104  72.123  1.00  0.00    -0.334 OA 
HETATM   28  N   UNL     1      -9.846   8.617  70.256  1.00  0.00    -0.174 N  
HETATM   29  H1  UNL     1      -9.347   7.973  70.869  1.00  0.00     0.000 HD 
HETATM   30  H2  UNL     1      -9.462   9.172  69.490  1.00  0.00     0.000 HD 
ENDBRANCH  23  25
ENDBRANCH  19  23
ENDBRANCH  18  19
ENDBRANCH  17  18
ENDBRANCH  16  17
ENDBRANCH  15  16
ENDBRANCH  12  15
ENDBRANCH   5  10
TORSDOF 8
ENDMDL
MODEL      319
REMARK 921   NORMALIZED FREE ENERGY PREDICTED BY IDOCK:   -3.12 KCAL/MOL
REMARK 922        TOTAL FREE ENERGY PREDICTED BY IDOCK:   -5.75 KCAL/MOL
REMARK 923 INTER-LIGAND FREE ENERGY PREDICTED BY IDOCK:   -3.63 KCAL/MOL
REMARK 924 INTRA-LIGAND FREE ENERGY PREDICTED BY IDOCK:   -2.12 KCAL/MOL
REMARK 927      BINDING AFFINITY PREDICTED BY RF-SCORE:    0.00 PKD
ROOT
HETATM    1  N   UNL     1      -6.304   9.866  71.703  1.00  0.00    -0.297 NA 
HETATM    2  C   UNL     1      -7.166   8.924  71.251  1.00  0.00    -0.097 C  
HETATM    3  H2  UNL     1      -5.334   9.971  71.404  1.00  0.00     0.000 HD 
HETATM    4  H1  UNL     1      -6.776  10.454  72.389  1.00  0.00     0.000 HD 
HETATM    5  N   UNL     1      -8.380   8.887  71.680  1.00  0.00    -0.336 NA 
HETATM    6  N   UNL     1      -6.538   8.141  70.338  1.00  0.00    -0.036 NA 
HETATM    7  H2  UNL     1      -5.569   8.245  70.039  1.00  0.00     0.000 HD 
HETATM    8  H1  UNL     1      -7.187   7.432  69.996  1.00  0.00     0.000 HD 
HETATM    9  H   UNL     1      -8.714   9.572  72.358  1.00  0.00     0.000 HD 
ENDROOT
BRANCH   5  10
HETATM   10  C   UNL     1      -9.207   7.918  71.210  1.00  0.00    -0.146 A  
HETATM   11  N   UNL     1      -9.552   7.662  69.957  1.00  0.00    -0.165 NA 
HETATM   12  C   UNL     1     -10.409   6.566  69.890  1.00  0.00    -0.191 A  
HETATM   13  S   UNL     1      -9.904   6.832  72.365  1.00  0.00    -0.157 SA 
HETATM   14  C   UNL     1     -10.725   6.011  71.114  1.00  0.00    -0.264 A  
BRANCH  12  15
HETATM   15  C   UNL     1     -10.902   6.112  68.552  1.00  0.00    -0.314 C  
BRANCH  15  16
HETATM   16  S   UNL     1      -9.729   4.927  67.803  1.00  0.00    -0.150 SA 
BRANCH  16  17
HETATM   17  C   UNL     1      -8.412   6.064  67.247  1.00  0.00    -0.104 C  
BRANCH  17  18
HETATM   18  C   UNL     1      -8.780   6.945  66.058  1.00  0.00    -0.151 C  
BRANCH  18  19
HETATM   19  C   UNL     1      -8.927   8.419  66.433  1.00  0.00    -0.171 C  
HETATM   20  H2  UNL     1     -10.353   8.735  64.924  1.00  0.00     0.000 HD 
HETATM   21  N   UNL     1      -9.818   9.152  65.686  1.00  0.00    -0.459 NA 
HETATM   22  H1  UNL     1      -9.916  10.136  65.936  1.00  0.00     0.000 HD 
BRANCH  19  23
HETATM   23  N   UNL     1      -8.200   8.821  67.423  1.00  0.00    -0.109 N  
HETATM   24  H   UNL     1      -7.615   8.150  67.921  1.00  0.00     0.000 HD 
BRANCH  23  25
HETATM   25  S   UNL     1      -8.206  10.365  67.881  1.00  0.00    -0.107 S  
HETATM   26  O   UNL     1      -8.225  11.215  66.714  1.00  0.00    -0.142 OA 
HETATM   27  O   UNL     1      -7.230  10.547  68.930  1.00  0.00    -0.073 OA 
HETATM   28  N   UNL     1      -9.697  10.584  68.612  1.00  0.00    -0.166 N  
HETATM   29  H1  UNL     1      -9.700  11.561  68.902  1.00  0.00     0.000 HD 
HETATM   30  H2  UNL     1     -10.437   9.893  68.739  1.00  0.00     0.000 HD 
ENDBRANCH  23  25
ENDBRANCH  19  23
ENDBRANCH  18  19
ENDBRANCH  17  18
ENDBRANCH  16  17
ENDBRANCH  15  16
ENDBRANCH  12  15
ENDBRANCH   5  10
TORSDOF 8
ENDMDL
MODEL      320
REMARK 921   NORMALIZED FREE ENERGY PREDICTED BY IDOCK:   -3.11 KCAL/MOL
REMARK 922        TOTAL FREE ENERGY PREDICTED BY IDOCK:   -5.75 KCAL/MOL
REMARK 923 INTER-LIGAND FREE ENERGY PREDICTED BY IDOCK:   -4.60 KCAL/MOL
REMARK 924 INTRA-LIGAND FREE ENERGY PREDICTED BY IDOCK:   -1.14 KCAL/MOL
REMARK 927      BINDING AFFINITY PREDICTED BY RF-SCORE:    0.00 PKD
ROOT
HETATM    1  N   UNL     1     -12.231  16.197  69.934  1.00  0.00    -0.306 NA 
HETATM    2  C   UNL     1     -11.856  14.896  69.991  1.00  0.00    -0.307 C  
HETATM    3  H2  UNL     1     -11.851  16.946  70.511  1.00  0.00     0.000 HD 
HETATM    4  H1  UNL     1     -12.953  16.308  69.223  1.00  0.00     0.000 HD 
HETATM    5  N   UNL     1     -12.386  14.026  69.203  1.00  0.00    -0.486 NA 
HETATM    6  N   UNL     1     -10.895  14.747  70.937  1.00  0.00    -0.510 NA 
HETATM    7  H2  UNL     1     -10.515  15.497  71.515  1.00  0.00     0.000 HD 
HETATM    8  H1  UNL     1     -10.611  13.768  70.980  1.00  0.00     0.000 HD 
HETATM    9  H   UNL     1     -13.089  14.303  68.518  1.00  0.00     0.000 HD 
ENDROOT
BRANCH   5  10
HETATM   10  C   UNL     1     -11.990  12.731  69.305  1.00  0.00    -0.246 A  
HETATM   11  N   UNL     1     -12.283  11.848  70.247  1.00  0.00    -0.299 NA 
HETATM   12  C   UNL     1     -11.693  10.616  69.977  1.00  0.00    -0.324 A  
HETATM   13  S   UNL     1     -10.986  12.101  68.041  1.00  0.00    -0.246 SA 
HETATM   14  C   UNL     1     -10.930  10.587  68.827  1.00  0.00    -0.251 A  
BRANCH  12  15
HETATM   15  C   UNL     1     -11.920   9.480  70.925  1.00  0.00    -0.295 C  
BRANCH  15  16
HETATM   16  S   UNL     1     -10.326   8.791  71.497  1.00  0.00    -0.331 SA 
BRANCH  16  17
HETATM   17  C   UNL     1     -10.316   7.191  70.615  1.00  0.00    -0.204 C  
BRANCH  17  18
HETATM   18  C   UNL     1      -9.044   6.369  70.786  1.00  0.00    -0.151 C  
BRANCH  18  19
HETATM   19  C   UNL     1      -8.321   6.110  69.464  1.00  0.00    -0.120 C  
HETATM   20  H2  UNL     1      -9.719   4.648  68.902  1.00  0.00     0.000 HD 
HETATM   21  N   UNL     1      -8.873   5.156  68.644  1.00  0.00    -0.096 NA 
HETATM   22  H1  UNL     1      -8.391   4.983  67.762  1.00  0.00     0.000 HD 
BRANCH  19  23
HETATM   23  N   UNL     1      -7.266   6.827  69.253  1.00  0.00    -0.087 N  
HETATM   24  H   UNL     1      -6.388   6.574  69.705  1.00  0.00     0.000 HD 
BRANCH  23  25
HETATM   25  S   UNL     1      -7.320   8.114  68.286  1.00  0.00    -0.097 S  
HETATM   26  O   UNL     1      -8.585   8.143  67.590  1.00  0.00    -0.129 OA 
HETATM   27  O   UNL     1      -6.068   8.221  67.576  1.00  0.00    -0.049 OA 
HETATM   28  N   UNL     1      -7.359   9.425  69.328  1.00  0.00    -0.069 N  
HETATM   29  H1  UNL     1      -7.393  10.239  68.716  1.00  0.00     0.000 HD 
HETATM   30  H2  UNL     1      -7.351   9.411  70.348  1.00  0.00     0.000 HD 
ENDBRANCH  23  25
ENDBRANCH  19  23
ENDBRANCH  18  19
ENDBRANCH  17  18
ENDBRANCH  16  17
ENDBRANCH  15  16
ENDBRANCH  12  15
ENDBRANCH   5  10
TORSDOF 8
ENDMDL
MODEL      321
REMARK 921   NORMALIZED FREE ENERGY PREDICTED BY IDOCK:   -3.09 KCAL/MOL
REMARK 922        TOTAL FREE ENERGY PREDICTED BY IDOCK:   -5.72 KCAL/MOL
REMARK 923 INTER-LIGAND FREE ENERGY PREDICTED BY IDOCK:   -4.72 KCAL/MOL
REMARK 924 INTRA-LIGAND FREE ENERGY PREDICTED BY IDOCK:   -1.00 KCAL/MOL
REMARK 927      BINDING AFFINITY PREDICTED BY RF-SCORE:    0.00 PKD
ROOT
HETATM    1  N   UNL     1     -12.439  15.208  69.826  1.00  0.00    -0.570 NA 
HETATM    2  C   UNL     1     -11.840  14.310  69.007  1.00  0.00    -0.335 C  
HETATM    3  H2  UNL     1     -12.017  15.623  70.656  1.00  0.00     0.000 HD 
HETATM    4  H1  UNL     1     -13.378  15.404  69.481  1.00  0.00     0.000 HD 
HETATM    5  N   UNL     1     -12.454  13.857  67.969  1.00  0.00    -0.357 NA 
HETATM    6  N   UNL     1     -10.590  14.048  69.465  1.00  0.00    -0.444 NA 
HETATM    7  H2  UNL     1     -10.168  14.463  70.296  1.00  0.00     0.000 HD 
HETATM    8  H1  UNL     1     -10.138  13.372  68.849  1.00  0.00     0.000 HD 
HETATM    9  H   UNL     1     -13.397  14.175  67.742  1.00  0.00     0.000 HD 
ENDROOT
BRANCH   5  10
HETATM   10  C   UNL     1     -11.821  12.948  67.184  1.00  0.00    -0.362 A  
HETATM   11  N   UNL     1     -11.262  11.800  67.534  1.00  0.00    -0.270 NA 
HETATM   12  C   UNL     1     -10.731  11.145  66.427  1.00  0.00    -0.247 A  
HETATM   13  S   UNL     1     -11.730  13.283  65.487  1.00  0.00    -0.366 SA 
HETATM   14  C   UNL     1     -10.875  11.827  65.235  1.00  0.00    -0.290 A  
BRANCH  12  15
HETATM   15  C   UNL     1     -10.066   9.818  66.618  1.00  0.00    -0.237 C  
BRANCH  15  16
HETATM   16  S   UNL     1      -9.477   9.636  68.339  1.00  0.00    -0.138 SA 
BRANCH  16  17
HETATM   17  C   UNL     1      -9.528   7.819  68.521  1.00  0.00    -0.148 C  
BRANCH  17  18
HETATM   18  C   UNL     1      -8.268   7.194  69.108  1.00  0.00    -0.122 C  
BRANCH  18  19
HETATM   19  C   UNL     1      -8.446   6.742  70.557  1.00  0.00    -0.138 C  
HETATM   20  H2  UNL     1      -6.919   8.022  71.219  1.00  0.00     0.000 HD 
HETATM   21  N   UNL     1      -7.616   7.325  71.484  1.00  0.00    -0.085 NA 
HETATM   22  H1  UNL     1      -7.735   7.024  72.451  1.00  0.00     0.000 HD 
BRANCH  19  23
HETATM   23  N   UNL     1      -9.371   5.862  70.759  1.00  0.00    -0.159 N  
HETATM   24  H   UNL     1     -10.269   5.959  70.286  1.00  0.00     0.000 HD 
BRANCH  23  25
HETATM   25  S   UNL     1      -9.124   4.615  71.748  1.00  0.00    -0.138 S  
HETATM   26  O   UNL     1      -7.746   4.193  71.659  1.00  0.00    -0.066 OA 
HETATM   27  O   UNL     1     -10.210   3.676  71.600  1.00  0.00    -0.112 OA 
HETATM   28  N   UNL     1      -9.291   5.255  73.287  1.00  0.00    -0.138 N  
HETATM   29  H1  UNL     1      -9.135   4.466  73.913  1.00  0.00     0.000 HD 
HETATM   30  H2  UNL     1      -9.502   6.221  73.541  1.00  0.00     0.000 HD 
ENDBRANCH  23  25
ENDBRANCH  19  23
ENDBRANCH  18  19
ENDBRANCH  17  18
ENDBRANCH  16  17
ENDBRANCH  15  16
ENDBRANCH  12  15
ENDBRANCH   5  10
TORSDOF 8
ENDMDL
MODEL      322
REMARK 921   NORMALIZED FREE ENERGY PREDICTED BY IDOCK:   -3.09 KCAL/MOL
REMARK 922        TOTAL FREE ENERGY PREDICTED BY IDOCK:   -5.72 KCAL/MOL
REMARK 923 INTER-LIGAND FREE ENERGY PREDICTED BY IDOCK:   -4.42 KCAL/MOL
REMARK 924 INTRA-LIGAND FREE ENERGY PREDICTED BY IDOCK:   -1.30 KCAL/MOL
REMARK 927      BINDING AFFINITY PREDICTED BY RF-SCORE:    0.00 PKD
ROOT
HETATM    1  N   UNL     1      -9.391   1.858  66.207  1.00  0.00    -0.340 NA 
HETATM    2  C   UNL     1      -9.031   3.149  66.409  1.00  0.00    -0.152 C  
HETATM    3  H2  UNL     1      -9.229   1.328  65.351  1.00  0.00     0.000 HD 
HETATM    4  H1  UNL     1      -9.849   1.501  67.045  1.00  0.00     0.000 HD 
HETATM    5  N   UNL     1      -9.266   3.725  67.537  1.00  0.00    -0.167 NA 
HETATM    6  N   UNL     1      -8.421   3.625  65.295  1.00  0.00    -0.105 NA 
HETATM    7  H2  UNL     1      -8.259   3.095  64.439  1.00  0.00     0.000 HD 
HETATM    8  H1  UNL     1      -8.150   4.597  65.447  1.00  0.00     0.000 HD 
HETATM    9  H   UNL     1      -9.716   3.217  68.298  1.00  0.00     0.000 HD 
ENDROOT
BRANCH   5  10
HETATM   10  C   UNL     1      -8.900   5.024  67.692  1.00  0.00    -0.103 A  
HETATM   11  N   UNL     1      -9.258   6.075  66.970  1.00  0.00    -0.119 NA 
HETATM   12  C   UNL     1      -8.679   7.240  67.465  1.00  0.00    -0.121 A  
HETATM   13  S   UNL     1      -7.845   5.406  69.011  1.00  0.00    -0.091 SA 
HETATM   14  C   UNL     1      -7.858   7.051  68.559  1.00  0.00    -0.122 A  
BRANCH  12  15
HETATM   15  C   UNL     1      -8.976   8.542  66.788  1.00  0.00    -0.146 C  
BRANCH  15  16
HETATM   16  S   UNL     1     -10.646   9.132  67.235  1.00  0.00    -0.167 SA 
BRANCH  16  17
HETATM   17  C   UNL     1     -10.298   9.952  68.830  1.00  0.00    -0.205 C  
BRANCH  17  18
HETATM   18  C   UNL     1     -11.530  10.307  69.655  1.00  0.00    -0.297 C  
BRANCH  18  19
HETATM   19  C   UNL     1     -11.722   9.390  70.863  1.00  0.00    -0.308 C  
HETATM   20  H2  UNL     1     -13.065  10.733  71.759  1.00  0.00     0.000 HD 
HETATM   21  N   UNL     1     -12.582   9.838  71.837  1.00  0.00    -0.395 NA 
HETATM   22  H1  UNL     1     -12.710   9.227  72.644  1.00  0.00     0.000 HD 
BRANCH  19  23
HETATM   23  N   UNL     1     -11.060   8.281  70.835  1.00  0.00    -0.256 N  
HETATM   24  H   UNL     1     -10.041   8.303  70.877  1.00  0.00     0.000 HD 
BRANCH  23  25
HETATM   25  S   UNL     1     -11.821   6.865  70.735  1.00  0.00    -0.363 S  
HETATM   26  O   UNL     1     -11.703   6.348  69.392  1.00  0.00    -0.327 OA 
HETATM   27  O   UNL     1     -13.103   6.973  71.391  1.00  0.00    -0.376 OA 
HETATM   28  N   UNL     1     -10.914   5.829  71.688  1.00  0.00    -0.260 N  
HETATM   29  H1  UNL     1     -11.396   4.933  71.625  1.00  0.00     0.000 HD 
HETATM   30  H2  UNL     1     -10.068   6.046  72.215  1.00  0.00     0.000 HD 
ENDBRANCH  23  25
ENDBRANCH  19  23
ENDBRANCH  18  19
ENDBRANCH  17  18
ENDBRANCH  16  17
ENDBRANCH  15  16
ENDBRANCH  12  15
ENDBRANCH   5  10
TORSDOF 8
ENDMDL
MODEL      323
REMARK 921   NORMALIZED FREE ENERGY PREDICTED BY IDOCK:   -3.09 KCAL/MOL
REMARK 922        TOTAL FREE ENERGY PREDICTED BY IDOCK:   -5.71 KCAL/MOL
REMARK 923 INTER-LIGAND FREE ENERGY PREDICTED BY IDOCK:   -3.88 KCAL/MOL
REMARK 924 INTRA-LIGAND FREE ENERGY PREDICTED BY IDOCK:   -1.83 KCAL/MOL
REMARK 927      BINDING AFFINITY PREDICTED BY RF-SCORE:    0.00 PKD
ROOT
HETATM    1  N   UNL     1      -9.162   2.246  72.786  1.00  0.00    -0.074 NA 
HETATM    2  C   UNL     1      -9.004   3.537  72.407  1.00  0.00    -0.096 C  
HETATM    3  H2  UNL     1      -9.873   1.608  72.428  1.00  0.00     0.000 HD 
HETATM    4  H1  UNL     1      -8.459   2.011  73.486  1.00  0.00     0.000 HD 
HETATM    5  N   UNL     1      -8.060   4.256  72.910  1.00  0.00    -0.089 NA 
HETATM    6  N   UNL     1      -9.939   3.850  71.476  1.00  0.00    -0.171 NA 
HETATM    7  H2  UNL     1     -10.650   3.213  71.117  1.00  0.00     0.000 HD 
HETATM    8  H1  UNL     1      -9.820   4.822  71.190  1.00  0.00     0.000 HD 
HETATM    9  H   UNL     1      -7.412   3.862  73.592  1.00  0.00     0.000 HD 
ENDROOT
BRANCH   5  10
HETATM   10  C   UNL     1      -7.947   5.549  72.511  1.00  0.00    -0.103 A  
HETATM   11  N   UNL     1      -7.572   6.021  71.332  1.00  0.00    -0.097 NA 
HETATM   12  C   UNL     1      -7.603   7.413  71.319  1.00  0.00    -0.082 A  
HETATM   13  S   UNL     1      -8.360   6.778  73.659  1.00  0.00    -0.119 SA 
HETATM   14  C   UNL     1      -7.986   7.987  72.515  1.00  0.00    -0.131 A  
BRANCH  12  15
HETATM   15  C   UNL     1      -7.225   8.135  70.064  1.00  0.00    -0.056 C  
BRANCH  15  16
HETATM   16  S   UNL     1      -7.443   7.053  68.608  1.00  0.00    -0.105 SA 
BRANCH  16  17
HETATM   17  C   UNL     1      -9.266   6.947  68.538  1.00  0.00    -0.129 C  
BRANCH  17  18
HETATM   18  C   UNL     1      -9.997   8.271  68.733  1.00  0.00    -0.193 C  
BRANCH  18  19
HETATM   19  C   UNL     1     -11.003   8.231  69.882  1.00  0.00    -0.166 C  
HETATM   20  H2  UNL     1     -11.502  10.253  69.610  1.00  0.00     0.000 HD 
HETATM   21  N   UNL     1     -11.670   9.403  70.149  1.00  0.00    -0.462 NA 
HETATM   22  H1  UNL     1     -12.342   9.377  70.917  1.00  0.00     0.000 HD 
BRANCH  19  23
HETATM   23  N   UNL     1     -11.128   7.092  70.478  1.00  0.00    -0.267 N  
HETATM   24  H   UNL     1     -10.551   6.304  70.183  1.00  0.00     0.000 HD 
BRANCH  23  25
HETATM   25  S   UNL     1     -12.184   6.897  71.679  1.00  0.00    -0.372 S  
HETATM   26  O   UNL     1     -11.928   5.644  72.349  1.00  0.00    -0.235 OA 
HETATM   27  O   UNL     1     -13.504   7.243  71.206  1.00  0.00    -0.369 OA 
HETATM   28  N   UNL     1     -11.782   8.083  72.792  1.00  0.00    -0.569 N  
HETATM   29  H1  UNL     1     -12.450   7.959  73.552  1.00  0.00     0.000 HD 
HETATM   30  H2  UNL     1     -11.035   8.774  72.724  1.00  0.00     0.000 HD 
ENDBRANCH  23  25
ENDBRANCH  19  23
ENDBRANCH  18  19
ENDBRANCH  17  18
ENDBRANCH  16  17
ENDBRANCH  15  16
ENDBRANCH  12  15
ENDBRANCH   5  10
TORSDOF 8
ENDMDL
MODEL      324
REMARK 921   NORMALIZED FREE ENERGY PREDICTED BY IDOCK:   -3.08 KCAL/MOL
REMARK 922        TOTAL FREE ENERGY PREDICTED BY IDOCK:   -5.70 KCAL/MOL
REMARK 923 INTER-LIGAND FREE ENERGY PREDICTED BY IDOCK:   -4.54 KCAL/MOL
REMARK 924 INTRA-LIGAND FREE ENERGY PREDICTED BY IDOCK:   -1.17 KCAL/MOL
REMARK 927      BINDING AFFINITY PREDICTED BY RF-SCORE:    0.00 PKD
ROOT
HETATM    1  N   UNL     1      -8.435  14.193  66.570  1.00  0.00    -0.384 NA 
HETATM    2  C   UNL     1      -9.037  13.130  67.155  1.00  0.00    -0.230 C  
HETATM    3  H2  UNL     1      -8.075  14.217  65.616  1.00  0.00     0.000 HD 
HETATM    4  H1  UNL     1      -8.398  14.967  67.233  1.00  0.00     0.000 HD 
HETATM    5  N   UNL     1      -9.475  13.208  68.364  1.00  0.00    -0.314 NA 
HETATM    6  N   UNL     1      -9.085  12.100  66.272  1.00  0.00    -0.339 NA 
HETATM    7  H2  UNL     1      -8.725  12.123  65.319  1.00  0.00     0.000 HD 
HETATM    8  H1  UNL     1      -9.539  11.299  66.712  1.00  0.00     0.000 HD 
HETATM    9  H   UNL     1      -9.384  14.073  68.896  1.00  0.00     0.000 HD 
ENDROOT
BRANCH   5  10
HETATM   10  C   UNL     1     -10.059  12.113  68.915  1.00  0.00     0.006 A  
HETATM   11  N   UNL     1      -9.499  10.965  69.266  1.00  0.00    -0.096 NA 
HETATM   12  C   UNL     1     -10.440  10.098  69.815  1.00  0.00    -0.263 A  
HETATM   13  S   UNL     1     -11.758  12.193  69.243  1.00  0.00    -0.326 SA 
HETATM   14  C   UNL     1     -11.726  10.600  69.853  1.00  0.00    -0.317 A  
BRANCH  12  15
HETATM   15  C   UNL     1      -9.996   8.749  70.287  1.00  0.00    -0.186 C  
BRANCH  15  16
HETATM   16  S   UNL     1     -11.377   7.861  71.089  1.00  0.00    -0.269 SA 
BRANCH  16  17
HETATM   17  C   UNL     1     -11.471   6.368  70.040  1.00  0.00    -0.428 C  
BRANCH  17  18
HETATM   18  C   UNL     1     -10.210   5.512  70.024  1.00  0.00    -0.337 C  
BRANCH  18  19
HETATM   19  C   UNL     1      -9.900   4.936  68.642  1.00  0.00    -0.152 C  
HETATM   20  H2  UNL     1      -8.802   3.349  69.470  1.00  0.00     0.000 HD 
HETATM   21  N   UNL     1      -9.140   3.791  68.615  1.00  0.00    -0.129 NA 
HETATM   22  H1  UNL     1      -8.933   3.407  67.693  1.00  0.00     0.000 HD 
BRANCH  19  23
HETATM   23  N   UNL     1     -10.395   5.586  67.641  1.00  0.00    -0.203 N  
HETATM   24  H   UNL     1     -11.386   5.489  67.420  1.00  0.00     0.000 HD 
BRANCH  23  25
HETATM   25  S   UNL     1      -9.470   6.546  66.737  1.00  0.00    -0.161 S  
HETATM   26  O   UNL     1      -9.975   7.897  66.795  1.00  0.00    -0.227 OA 
HETATM   27  O   UNL     1      -9.206   5.893  65.477  1.00  0.00    -0.069 OA 
HETATM   28  N   UNL     1      -7.998   6.590  67.536  1.00  0.00    -0.112 N  
HETATM   29  H1  UNL     1      -7.413   7.197  66.964  1.00  0.00     0.000 HD 
HETATM   30  H2  UNL     1      -7.745   6.114  68.403  1.00  0.00     0.000 HD 
ENDBRANCH  23  25
ENDBRANCH  19  23
ENDBRANCH  18  19
ENDBRANCH  17  18
ENDBRANCH  16  17
ENDBRANCH  15  16
ENDBRANCH  12  15
ENDBRANCH   5  10
TORSDOF 8
ENDMDL
MODEL      325
REMARK 921   NORMALIZED FREE ENERGY PREDICTED BY IDOCK:   -3.07 KCAL/MOL
REMARK 922        TOTAL FREE ENERGY PREDICTED BY IDOCK:   -5.68 KCAL/MOL
REMARK 923 INTER-LIGAND FREE ENERGY PREDICTED BY IDOCK:   -4.07 KCAL/MOL
REMARK 924 INTRA-LIGAND FREE ENERGY PREDICTED BY IDOCK:   -1.62 KCAL/MOL
REMARK 927      BINDING AFFINITY PREDICTED BY RF-SCORE:    0.00 PKD
ROOT
HETATM    1  N   UNL     1      -5.884   9.438  70.356  1.00  0.00    -0.040 NA 
HETATM    2  C   UNL     1      -6.572   8.401  70.891  1.00  0.00    -0.041 C  
HETATM    3  H2  UNL     1      -6.282  10.171  69.769  1.00  0.00     0.000 HD 
HETATM    4  H1  UNL     1      -4.905   9.372  70.634  1.00  0.00     0.000 HD 
HETATM    5  N   UNL     1      -5.977   7.535  71.637  1.00  0.00    -0.036 NA 
HETATM    6  N   UNL     1      -7.875   8.488  70.522  1.00  0.00    -0.079 NA 
HETATM    7  H2  UNL     1      -8.273   9.220  69.935  1.00  0.00     0.000 HD 
HETATM    8  H1  UNL     1      -8.393   7.708  70.925  1.00  0.00     0.000 HD 
HETATM    9  H   UNL     1      -4.983   7.622  71.845  1.00  0.00     0.000 HD 
ENDROOT
BRANCH   5  10
HETATM   10  C   UNL     1      -6.703   6.504  72.141  1.00  0.00    -0.063 A  
HETATM   11  N   UNL     1      -7.256   5.488  71.494  1.00  0.00    -0.078 NA 
HETATM   12  C   UNL     1      -7.904   4.629  72.377  1.00  0.00    -0.091 A  
HETATM   13  S   UNL     1      -6.942   6.457  73.855  1.00  0.00    -0.082 SA 
HETATM   14  C   UNL     1      -7.852   5.022  73.700  1.00  0.00    -0.099 A  
BRANCH  12  15
HETATM   15  C   UNL     1      -8.581   3.409  71.836  1.00  0.00    -0.081 C  
BRANCH  15  16
HETATM   16  S   UNL     1      -9.295   3.747  70.188  1.00  0.00    -0.188 SA 
BRANCH  16  17
HETATM   17  C   UNL     1     -10.408   5.141  70.583  1.00  0.00    -0.235 C  
BRANCH  17  18
HETATM   18  C   UNL     1     -10.940   5.904  69.376  1.00  0.00    -0.421 C  
BRANCH  18  19
HETATM   19  C   UNL     1     -11.224   7.375  69.680  1.00  0.00    -0.044 C  
HETATM   20  H2  UNL     1     -10.037   8.012  68.069  1.00  0.00     0.000 HD 
HETATM   21  N   UNL     1     -10.633   8.295  68.847  1.00  0.00    -0.358 NA 
HETATM   22  H1  UNL     1     -10.823   9.277  69.050  1.00  0.00     0.000 HD 
BRANCH  19  23
HETATM   23  N   UNL     1     -12.002   7.599  70.687  1.00  0.00    -0.488 N  
HETATM   24  H   UNL     1     -12.602   6.850  71.034  1.00  0.00     0.000 HD 
BRANCH  23  25
HETATM   25  S   UNL     1     -12.037   9.042  71.402  1.00  0.00    -0.344 S  
HETATM   26  O   UNL     1     -10.692   9.548  71.534  1.00  0.00    -0.340 OA 
HETATM   27  O   UNL     1     -12.936   8.985  72.530  1.00  0.00    -0.418 OA 
HETATM   28  N   UNL     1     -12.780  10.048  70.287  1.00  0.00    -0.541 N  
HETATM   29  H1  UNL     1     -12.802  10.961  70.739  1.00  0.00     0.000 HD 
HETATM   30  H2  UNL     1     -13.131   9.802  69.361  1.00  0.00     0.000 HD 
ENDBRANCH  23  25
ENDBRANCH  19  23
ENDBRANCH  18  19
ENDBRANCH  17  18
ENDBRANCH  16  17
ENDBRANCH  15  16
ENDBRANCH  12  15
ENDBRANCH   5  10
TORSDOF 8
ENDMDL
MODEL      326
REMARK 921   NORMALIZED FREE ENERGY PREDICTED BY IDOCK:   -3.06 KCAL/MOL
REMARK 922        TOTAL FREE ENERGY PREDICTED BY IDOCK:   -5.67 KCAL/MOL
REMARK 923 INTER-LIGAND FREE ENERGY PREDICTED BY IDOCK:   -4.50 KCAL/MOL
REMARK 924 INTRA-LIGAND FREE ENERGY PREDICTED BY IDOCK:   -1.17 KCAL/MOL
REMARK 927      BINDING AFFINITY PREDICTED BY RF-SCORE:    0.00 PKD
ROOT
HETATM    1  N   UNL     1      -7.920   8.532  74.564  1.00  0.00    -0.431 NA 
HETATM    2  C   UNL     1      -8.401   8.210  73.339  1.00  0.00    -0.219 C  
HETATM    3  H2  UNL     1      -8.401   8.366  75.448  1.00  0.00     0.000 HD 
HETATM    4  H1  UNL     1      -7.003   8.964  74.463  1.00  0.00     0.000 HD 
HETATM    5  N   UNL     1      -7.706   8.446  72.280  1.00  0.00    -0.200 NA 
HETATM    6  N   UNL     1      -9.622   7.634  73.472  1.00  0.00    -0.279 NA 
HETATM    7  H2  UNL     1     -10.103   7.469  74.356  1.00  0.00     0.000 HD 
HETATM    8  H1  UNL     1      -9.984   7.392  72.550  1.00  0.00     0.000 HD 
HETATM    9  H   UNL     1      -6.780   8.868  72.347  1.00  0.00     0.000 HD 
ENDROOT
BRANCH   5  10
HETATM   10  C   UNL     1      -8.233   8.120  71.071  1.00  0.00    -0.108 A  
HETATM   11  N   UNL     1      -9.288   8.639  70.462  1.00  0.00    -0.166 NA 
HETATM   12  C   UNL     1      -9.491   8.041  69.221  1.00  0.00    -0.155 A  
HETATM   13  S   UNL     1      -7.435   6.882  70.159  1.00  0.00    -0.091 SA 
HETATM   14  C   UNL     1      -8.587   7.045  68.911  1.00  0.00    -0.128 A  
BRANCH  12  15
HETATM   15  C   UNL     1     -10.633   8.504  68.372  1.00  0.00    -0.111 C  
BRANCH  15  16
HETATM   16  S   UNL     1     -10.153   8.530  66.608  1.00  0.00    -0.261 SA 
BRANCH  16  17
HETATM   17  C   UNL     1      -9.474  10.221  66.470  1.00  0.00    -0.171 C  
BRANCH  17  18
HETATM   18  C   UNL     1     -10.335  11.199  65.678  1.00  0.00    -0.311 C  
BRANCH  18  19
HETATM   19  C   UNL     1      -9.947  12.658  65.914  1.00  0.00    -0.264 C  
HETATM   20  H2  UNL     1     -11.792  13.342  65.180  1.00  0.00     0.000 HD 
HETATM   21  N   UNL     1     -10.886  13.601  65.571  1.00  0.00    -0.288 NA 
HETATM   22  H1  UNL     1     -10.627  14.576  65.728  1.00  0.00     0.000 HD 
BRANCH  19  23
HETATM   23  N   UNL     1      -8.775  12.851  66.423  1.00  0.00    -0.424 N  
HETATM   24  H   UNL     1      -7.965  12.391  66.008  1.00  0.00     0.000 HD 
BRANCH  23  25
HETATM   25  S   UNL     1      -8.576  13.808  67.704  1.00  0.00    -0.202 S  
HETATM   26  O   UNL     1      -8.824  15.179  67.325  1.00  0.00    -0.179 OA 
HETATM   27  O   UNL     1      -7.368  13.423  68.394  1.00  0.00    -0.096 OA 
HETATM   28  N   UNL     1      -9.831  13.400  68.735  1.00  0.00    -0.418 N  
HETATM   29  H1  UNL     1      -9.705  14.006  69.546  1.00  0.00     0.000 HD 
HETATM   30  H2  UNL     1     -10.560  12.702  68.586  1.00  0.00     0.000 HD 
ENDBRANCH  23  25
ENDBRANCH  19  23
ENDBRANCH  18  19
ENDBRANCH  17  18
ENDBRANCH  16  17
ENDBRANCH  15  16
ENDBRANCH  12  15
ENDBRANCH   5  10
TORSDOF 8
ENDMDL
MODEL      327
REMARK 921   NORMALIZED FREE ENERGY PREDICTED BY IDOCK:   -3.06 KCAL/MOL
REMARK 922        TOTAL FREE ENERGY PREDICTED BY IDOCK:   -5.66 KCAL/MOL
REMARK 923 INTER-LIGAND FREE ENERGY PREDICTED BY IDOCK:   -3.92 KCAL/MOL
REMARK 924 INTRA-LIGAND FREE ENERGY PREDICTED BY IDOCK:   -1.74 KCAL/MOL
REMARK 927      BINDING AFFINITY PREDICTED BY RF-SCORE:    0.00 PKD
ROOT
HETATM    1  N   UNL     1     -11.593  12.688  69.681  1.00  0.00    -0.432 NA 
HETATM    2  C   UNL     1     -11.087  11.720  68.879  1.00  0.00    -0.243 C  
HETATM    3  H2  UNL     1     -12.549  13.041  69.648  1.00  0.00     0.000 HD 
HETATM    4  H1  UNL     1     -10.868  13.007  70.323  1.00  0.00     0.000 HD 
HETATM    5  N   UNL     1      -9.866  11.330  69.013  1.00  0.00    -0.389 NA 
HETATM    6  N   UNL     1     -12.051  11.295  68.024  1.00  0.00    -0.657 NA 
HETATM    7  H2  UNL     1     -13.007  11.648  67.991  1.00  0.00     0.000 HD 
HETATM    8  H1  UNL     1     -11.671  10.566  67.421  1.00  0.00     0.000 HD 
HETATM    9  H   UNL     1      -9.266  11.735  69.730  1.00  0.00     0.000 HD 
ENDROOT
BRANCH   5  10
HETATM   10  C   UNL     1      -9.397  10.367  68.179  1.00  0.00    -0.145 A  
HETATM   11  N   UNL     1      -9.810   9.116  68.044  1.00  0.00    -0.162 NA 
HETATM   12  C   UNL     1      -9.078   8.451  67.064  1.00  0.00    -0.144 A  
HETATM   13  S   UNL     1      -8.100  10.795  67.113  1.00  0.00    -0.127 SA 
HETATM   14  C   UNL     1      -8.089   9.212  66.474  1.00  0.00    -0.107 A  
BRANCH  12  15
HETATM   15  C   UNL     1      -9.408   7.024  66.754  1.00  0.00    -0.156 C  
BRANCH  15  16
HETATM   16  S   UNL     1     -11.170   6.682  67.101  1.00  0.00    -0.004 SA 
BRANCH  16  17
HETATM   17  C   UNL     1     -11.054   6.001  68.792  1.00  0.00    -0.254 C  
BRANCH  17  18
HETATM   18  C   UNL     1      -9.771   5.234  69.092  1.00  0.00    -0.231 C  
BRANCH  18  19
HETATM   19  C   UNL     1      -9.032   5.768  70.319  1.00  0.00    -0.141 C  
HETATM   20  H2  UNL     1      -9.928   4.339  71.570  1.00  0.00     0.000 HD 
HETATM   21  N   UNL     1      -9.284   5.127  71.508  1.00  0.00    -0.144 NA 
HETATM   22  H1  UNL     1      -8.791   5.483  72.328  1.00  0.00     0.000 HD 
BRANCH  19  23
HETATM   23  N   UNL     1      -8.237   6.763  70.104  1.00  0.00    -0.131 N  
HETATM   24  H   UNL     1      -7.695   6.797  69.241  1.00  0.00     0.000 HD 
BRANCH  23  25
HETATM   25  S   UNL     1      -8.090   7.952  71.182  1.00  0.00    -0.096 S  
HETATM   26  O   UNL     1      -7.478   9.099  70.554  1.00  0.00    -0.086 OA 
HETATM   27  O   UNL     1      -7.579   7.406  72.417  1.00  0.00    -0.081 OA 
HETATM   28  N   UNL     1      -9.664   8.418  71.515  1.00  0.00    -0.190 N  
HETATM   29  H1  UNL     1      -9.571   9.171  72.196  1.00  0.00     0.000 HD 
HETATM   30  H2  UNL     1     -10.524   8.035  71.122  1.00  0.00     0.000 HD 
ENDBRANCH  23  25
ENDBRANCH  19  23
ENDBRANCH  18  19
ENDBRANCH  17  18
ENDBRANCH  16  17
ENDBRANCH  15  16
ENDBRANCH  12  15
ENDBRANCH   5  10
TORSDOF 8
ENDMDL
MODEL      328
REMARK 921   NORMALIZED FREE ENERGY PREDICTED BY IDOCK:   -3.06 KCAL/MOL
REMARK 922        TOTAL FREE ENERGY PREDICTED BY IDOCK:   -5.66 KCAL/MOL
REMARK 923 INTER-LIGAND FREE ENERGY PREDICTED BY IDOCK:   -6.55 KCAL/MOL
REMARK 924 INTRA-LIGAND FREE ENERGY PREDICTED BY IDOCK:    0.89 KCAL/MOL
REMARK 927      BINDING AFFINITY PREDICTED BY RF-SCORE:    0.00 PKD
ROOT
HETATM    1  N   UNL     1     -11.884  11.482  63.298  1.00  0.00    -0.877 NA 
HETATM    2  C   UNL     1     -11.219  12.562  63.777  1.00  0.00    -0.462 C  
HETATM    3  H2  UNL     1     -11.614  10.940  62.478  1.00  0.00     0.000 HD 
HETATM    4  H1  UNL     1     -12.695  11.297  63.887  1.00  0.00     0.000 HD 
HETATM    5  N   UNL     1     -11.634  13.170  64.835  1.00  0.00    -0.312 NA 
HETATM    6  N   UNL     1     -10.139  12.808  62.995  1.00  0.00    -0.133 NA 
HETATM    7  H2  UNL     1      -9.869  12.266  62.174  1.00  0.00     0.000 HD 
HETATM    8  H1  UNL     1      -9.638  13.621  63.355  1.00  0.00     0.000 HD 
HETATM    9  H   UNL     1     -12.461  12.843  65.333  1.00  0.00     0.000 HD 
ENDROOT
BRANCH   5  10
HETATM   10  C   UNL     1     -10.945  14.255  65.272  1.00  0.00    -0.343 A  
HETATM   11  N   UNL     1     -11.286  15.533  65.203  1.00  0.00    -0.285 NA 
HETATM   12  C   UNL     1     -10.312  16.341  65.784  1.00  0.00    -0.374 A  
HETATM   13  S   UNL     1      -9.424  13.977  66.052  1.00  0.00    -0.058 SA 
HETATM   14  C   UNL     1      -9.218  15.657  66.272  1.00  0.00    -0.330 A  
BRANCH  12  15
HETATM   15  C   UNL     1     -10.524  17.823  65.816  1.00  0.00    -0.198 C  
BRANCH  15  16
HETATM   16  S   UNL     1      -9.575  18.578  67.184  1.00  0.00    -0.305 SA 
BRANCH  16  17
HETATM   17  C   UNL     1      -9.242  17.107  68.214  1.00  0.00    -0.262 C  
BRANCH  17  18
HETATM   18  C   UNL     1     -10.254  16.855  69.326  1.00  0.00    -0.262 C  
BRANCH  18  19
HETATM   19  C   UNL     1     -10.064  15.501  70.009  1.00  0.00    -0.228 C  
HETATM   20  H2  UNL     1      -8.125  15.299  69.228  1.00  0.00     0.000 HD 
HETATM   21  N   UNL     1      -8.855  14.880  69.804  1.00  0.00    -0.430 NA 
HETATM   22  H1  UNL     1      -8.727  13.976  70.260  1.00  0.00     0.000 HD 
BRANCH  19  23
HETATM   23  N   UNL     1     -11.061  15.086  70.718  1.00  0.00    -0.491 N  
HETATM   24  H   UNL     1     -11.204  15.465  71.654  1.00  0.00     0.000 HD 
BRANCH  23  25
HETATM   25  S   UNL     1     -12.081  13.979  70.144  1.00  0.00    -0.368 S  
HETATM   26  O   UNL     1     -12.617  14.426  68.881  1.00  0.00    -0.037 OA 
HETATM   27  O   UNL     1     -12.943  13.536  71.214  1.00  0.00    -0.338 OA 
HETATM   28  N   UNL     1     -11.113  12.664  69.773  1.00  0.00    -0.462 N  
HETATM   29  H1  UNL     1     -11.759  11.964  69.410  1.00  0.00     0.000 HD 
HETATM   30  H2  UNL     1     -10.102  12.582  69.885  1.00  0.00     0.000 HD 
ENDBRANCH  23  25
ENDBRANCH  19  23
ENDBRANCH  18  19
ENDBRANCH  17  18
ENDBRANCH  16  17
ENDBRANCH  15  16
ENDBRANCH  12  15
ENDBRANCH   5  10
TORSDOF 8
ENDMDL
MODEL      329
REMARK 921   NORMALIZED FREE ENERGY PREDICTED BY IDOCK:   -3.05 KCAL/MOL
REMARK 922        TOTAL FREE ENERGY PREDICTED BY IDOCK:   -5.66 KCAL/MOL
REMARK 923 INTER-LIGAND FREE ENERGY PREDICTED BY IDOCK:   -5.95 KCAL/MOL
REMARK 924 INTRA-LIGAND FREE ENERGY PREDICTED BY IDOCK:    0.29 KCAL/MOL
REMARK 927      BINDING AFFINITY PREDICTED BY RF-SCORE:    0.00 PKD
ROOT
HETATM    1  N   UNL     1     -11.148   5.375  65.857  1.00  0.00    -0.769 NA 
HETATM    2  C   UNL     1     -10.899   6.215  66.891  1.00  0.00    -0.335 C  
HETATM    3  H2  UNL     1     -11.109   5.627  64.870  1.00  0.00     0.000 HD 
HETATM    4  H1  UNL     1     -11.380   4.452  66.221  1.00  0.00     0.000 HD 
HETATM    5  N   UNL     1     -10.958   5.793  68.107  1.00  0.00    -0.171 NA 
HETATM    6  N   UNL     1     -10.590   7.444  66.407  1.00  0.00    -0.357 NA 
HETATM    7  H2  UNL     1     -10.551   7.697  65.420  1.00  0.00     0.000 HD 
HETATM    8  H1  UNL     1     -10.402   8.077  67.185  1.00  0.00     0.000 HD 
HETATM    9  H   UNL     1     -11.182   4.819  68.310  1.00  0.00     0.000 HD 
ENDROOT
BRANCH   5  10
HETATM   10  C   UNL     1     -10.714   6.672  69.112  1.00  0.00    -0.264 A  
HETATM   11  N   UNL     1      -9.918   7.731  69.111  1.00  0.00    -0.178 NA 
HETATM   12  C   UNL     1      -9.959   8.387  70.338  1.00  0.00    -0.185 A  
HETATM   13  S   UNL     1     -11.555   6.429  70.607  1.00  0.00    -0.289 SA 
HETATM   14  C   UNL     1     -10.781   7.796  71.276  1.00  0.00    -0.228 A  
BRANCH  12  15
HETATM   15  C   UNL     1      -9.133   9.621  70.528  1.00  0.00    -0.139 C  
BRANCH  15  16
HETATM   16  S   UNL     1      -9.260  10.711  69.067  1.00  0.00    -0.136 SA 
BRANCH  16  17
HETATM   17  C   UNL     1     -10.947  11.378  69.291  1.00  0.00    -0.229 C  
BRANCH  17  18
HETATM   18  C   UNL     1     -11.621  11.867  68.014  1.00  0.00    -0.401 C  
BRANCH  18  19
HETATM   19  C   UNL     1     -11.493  13.377  67.814  1.00  0.00    -0.316 C  
HETATM   20  H2  UNL     1     -12.443  13.282  65.944  1.00  0.00     0.000 HD 
HETATM   21  N   UNL     1     -12.003  13.882  66.642  1.00  0.00    -0.421 NA 
HETATM   22  H1  UNL     1     -11.918  14.890  66.508  1.00  0.00     0.000 HD 
BRANCH  19  23
HETATM   23  N   UNL     1     -10.925  14.023  68.778  1.00  0.00    -0.255 N  
HETATM   24  H   UNL     1      -9.933  14.250  68.715  1.00  0.00     0.000 HD 
BRANCH  23  25
HETATM   25  S   UNL     1     -11.762  14.475  70.078  1.00  0.00    -0.314 S  
HETATM   26  O   UNL     1     -10.969  15.383  70.871  1.00  0.00    -0.331 OA 
HETATM   27  O   UNL     1     -12.386  13.312  70.663  1.00  0.00    -0.356 OA 
HETATM   28  N   UNL     1     -13.019  15.401  69.471  1.00  0.00    -0.278 N  
HETATM   29  H1  UNL     1     -13.549  15.687  70.294  1.00  0.00     0.000 HD 
HETATM   30  H2  UNL     1     -13.212  15.628  68.495  1.00  0.00     0.000 HD 
ENDBRANCH  23  25
ENDBRANCH  19  23
ENDBRANCH  18  19
ENDBRANCH  17  18
ENDBRANCH  16  17
ENDBRANCH  15  16
ENDBRANCH  12  15
ENDBRANCH   5  10
TORSDOF 8
ENDMDL
MODEL      330
REMARK 921   NORMALIZED FREE ENERGY PREDICTED BY IDOCK:   -3.03 KCAL/MOL
REMARK 922        TOTAL FREE ENERGY PREDICTED BY IDOCK:   -5.62 KCAL/MOL
REMARK 923 INTER-LIGAND FREE ENERGY PREDICTED BY IDOCK:   -4.69 KCAL/MOL
REMARK 924 INTRA-LIGAND FREE ENERGY PREDICTED BY IDOCK:   -0.93 KCAL/MOL
REMARK 927      BINDING AFFINITY PREDICTED BY RF-SCORE:    0.00 PKD
ROOT
HETATM    1  N   UNL     1     -11.133   7.377  71.948  1.00  0.00    -0.237 NA 
HETATM    2  C   UNL     1     -10.633   8.047  70.882  1.00  0.00    -0.213 C  
HETATM    3  H2  UNL     1     -11.478   7.806  72.806  1.00  0.00     0.000 HD 
HETATM    4  H1  UNL     1     -11.111   6.376  71.758  1.00  0.00     0.000 HD 
HETATM    5  N   UNL     1     -10.238   7.410  69.834  1.00  0.00    -0.206 NA 
HETATM    6  N   UNL     1     -10.662   9.380  71.136  1.00  0.00    -0.324 NA 
HETATM    7  H2  UNL     1     -11.007   9.810  71.994  1.00  0.00     0.000 HD 
HETATM    8  H1  UNL     1     -10.286   9.885  70.333  1.00  0.00     0.000 HD 
HETATM    9  H   UNL     1     -10.305   6.394  69.786  1.00  0.00     0.000 HD 
ENDROOT
BRANCH   5  10
HETATM   10  C   UNL     1      -9.730   8.122  68.795  1.00  0.00    -0.153 A  
HETATM   11  N   UNL     1      -8.704   8.959  68.788  1.00  0.00    -0.136 NA 
HETATM   12  C   UNL     1      -8.490   9.474  67.513  1.00  0.00    -0.126 A  
HETATM   13  S   UNL     1     -10.479   7.919  67.246  1.00  0.00    -0.308 SA 
HETATM   14  C   UNL     1      -9.384   9.032  66.559  1.00  0.00    -0.191 A  
BRANCH  12  15
HETATM   15  C   UNL     1      -7.360  10.433  67.299  1.00  0.00    -0.090 C  
BRANCH  15  16
HETATM   16  S   UNL     1      -7.690  12.016  68.150  1.00  0.00    -0.144 SA 
BRANCH  16  17
HETATM   17  C   UNL     1      -9.501  12.141  67.938  1.00  0.00    -0.195 C  
BRANCH  17  18
HETATM   18  C   UNL     1      -9.975  13.348  67.137  1.00  0.00    -0.242 C  
BRANCH  18  19
HETATM   19  C   UNL     1      -9.875  14.657  67.920  1.00  0.00    -0.217 C  
HETATM   20  H2  UNL     1      -9.603  15.772  66.162  1.00  0.00     0.000 HD 
HETATM   21  N   UNL     1      -9.678  15.798  67.179  1.00  0.00    -0.222 NA 
HETATM   22  H1  UNL     1      -9.611  16.672  67.701  1.00  0.00     0.000 HD 
BRANCH  19  23
HETATM   23  N   UNL     1      -9.996  14.554  69.202  1.00  0.00    -0.381 N  
HETATM   24  H   UNL     1      -9.218  14.191  69.753  1.00  0.00     0.000 HD 
BRANCH  23  25
HETATM   25  S   UNL     1     -11.359  14.990  69.943  1.00  0.00    -0.295 S  
HETATM   26  O   UNL     1     -12.105  15.886  69.092  1.00  0.00    -0.339 OA 
HETATM   27  O   UNL     1     -11.060  15.327  71.315  1.00  0.00    -0.344 OA 
HETATM   28  N   UNL     1     -12.269  13.586  70.014  1.00  0.00    -0.329 N  
HETATM   29  H1  UNL     1     -13.132  13.862  70.482  1.00  0.00     0.000 HD 
HETATM   30  H2  UNL     1     -12.018  12.661  69.665  1.00  0.00     0.000 HD 
ENDBRANCH  23  25
ENDBRANCH  19  23
ENDBRANCH  18  19
ENDBRANCH  17  18
ENDBRANCH  16  17
ENDBRANCH  15  16
ENDBRANCH  12  15
ENDBRANCH   5  10
TORSDOF 8
ENDMDL
MODEL      331
REMARK 921   NORMALIZED FREE ENERGY PREDICTED BY IDOCK:   -3.02 KCAL/MOL
REMARK 922        TOTAL FREE ENERGY PREDICTED BY IDOCK:   -5.61 KCAL/MOL
REMARK 923 INTER-LIGAND FREE ENERGY PREDICTED BY IDOCK:   -4.79 KCAL/MOL
REMARK 924 INTRA-LIGAND FREE ENERGY PREDICTED BY IDOCK:   -0.81 KCAL/MOL
REMARK 927      BINDING AFFINITY PREDICTED BY RF-SCORE:    0.00 PKD
ROOT
HETATM    1  N   UNL     1      -7.804   9.059  64.091  1.00  0.00    -0.124 NA 
HETATM    2  C   UNL     1      -8.283   8.087  64.904  1.00  0.00    -0.134 C  
HETATM    3  H2  UNL     1      -7.553   8.936  63.110  1.00  0.00     0.000 HD 
HETATM    4  H1  UNL     1      -7.734   9.932  64.613  1.00  0.00     0.000 HD 
HETATM    5  N   UNL     1      -8.588   8.349  66.128  1.00  0.00    -0.132 NA 
HETATM    6  N   UNL     1      -8.376   6.925  64.210  1.00  0.00    -0.340 NA 
HETATM    7  H2  UNL     1      -8.125   6.802  63.229  1.00  0.00     0.000 HD 
HETATM    8  H1  UNL     1      -8.737   6.193  64.822  1.00  0.00     0.000 HD 
HETATM    9  H   UNL     1      -8.484   9.293  66.501  1.00  0.00     0.000 HD 
ENDROOT
BRANCH   5  10
HETATM   10  C   UNL     1      -9.052   7.342  66.912  1.00  0.00    -0.141 A  
HETATM   11  N   UNL     1      -8.365   6.400  67.541  1.00  0.00    -0.117 NA 
HETATM   12  C   UNL     1      -9.212   5.561  68.260  1.00  0.00    -0.109 A  
HETATM   13  S   UNL     1     -10.762   7.254  67.172  1.00  0.00    -0.296 SA 
HETATM   14  C   UNL     1     -10.553   5.869  68.147  1.00  0.00    -0.244 A  
BRANCH  12  15
HETATM   15  C   UNL     1      -8.619   4.437  69.051  1.00  0.00    -0.083 C  
BRANCH  15  16
HETATM   16  S   UNL     1      -9.658   4.057  70.506  1.00  0.00    -0.192 SA 
BRANCH  16  17
HETATM   17  C   UNL     1      -9.100   5.354  71.666  1.00  0.00    -0.139 C  
BRANCH  17  18
HETATM   18  C   UNL     1      -9.770   5.326  73.035  1.00  0.00    -0.164 C  
BRANCH  18  19
HETATM   19  C   UNL     1     -10.558   6.600  73.337  1.00  0.00    -0.309 C  
HETATM   20  H2  UNL     1      -8.927   7.456  74.346  1.00  0.00     0.000 HD 
HETATM   21  N   UNL     1      -9.893   7.575  74.042  1.00  0.00    -0.399 NA 
HETATM   22  H1  UNL     1     -10.419   8.426  74.244  1.00  0.00     0.000 HD 
BRANCH  19  23
HETATM   23  N   UNL     1     -11.769   6.630  72.888  1.00  0.00    -0.481 N  
HETATM   24  H   UNL     1     -12.387   5.836  73.057  1.00  0.00     0.000 HD 
BRANCH  23  25
HETATM   25  S   UNL     1     -12.316   7.902  72.065  1.00  0.00    -0.296 S  
HETATM   26  O   UNL     1     -11.343   8.966  72.119  1.00  0.00    -0.356 OA 
HETATM   27  O   UNL     1     -13.699   8.127  72.413  1.00  0.00    -0.183 OA 
HETATM   28  N   UNL     1     -12.332   7.398  70.468  1.00  0.00    -0.554 N  
HETATM   29  H1  UNL     1     -12.678   8.203  69.947  1.00  0.00     0.000 HD 
HETATM   30  H2  UNL     1     -12.056   6.488  70.098  1.00  0.00     0.000 HD 
ENDBRANCH  23  25
ENDBRANCH  19  23
ENDBRANCH  18  19
ENDBRANCH  17  18
ENDBRANCH  16  17
ENDBRANCH  15  16
ENDBRANCH  12  15
ENDBRANCH   5  10
TORSDOF 8
ENDMDL
MODEL      332
REMARK 921   NORMALIZED FREE ENERGY PREDICTED BY IDOCK:   -3.02 KCAL/MOL
REMARK 922        TOTAL FREE ENERGY PREDICTED BY IDOCK:   -5.61 KCAL/MOL
REMARK 923 INTER-LIGAND FREE ENERGY PREDICTED BY IDOCK:   -4.72 KCAL/MOL
REMARK 924 INTRA-LIGAND FREE ENERGY PREDICTED BY IDOCK:   -0.89 KCAL/MOL
REMARK 927      BINDING AFFINITY PREDICTED BY RF-SCORE:    0.00 PKD
ROOT
HETATM    1  N   UNL     1     -10.659  17.246  67.940  1.00  0.00    -0.379 NA 
HETATM    2  C   UNL     1     -10.663  16.183  67.099  1.00  0.00    -0.262 C  
HETATM    3  H2  UNL     1     -10.039  18.052  67.868  1.00  0.00     0.000 HD 
HETATM    4  H1  UNL     1     -11.373  17.113  68.655  1.00  0.00     0.000 HD 
HETATM    5  N   UNL     1     -11.501  15.219  67.266  1.00  0.00    -0.281 NA 
HETATM    6  N   UNL     1      -9.712  16.359  66.147  1.00  0.00    -0.309 NA 
HETATM    7  H2  UNL     1      -9.092  17.165  66.076  1.00  0.00     0.000 HD 
HETATM    8  H1  UNL     1      -9.715  15.559  65.514  1.00  0.00     0.000 HD 
HETATM    9  H   UNL     1     -12.181  15.245  68.026  1.00  0.00     0.000 HD 
ENDROOT
BRANCH   5  10
HETATM   10  C   UNL     1     -11.461  14.167  66.409  1.00  0.00    -0.354 A  
HETATM   11  N   UNL     1     -10.529  13.233  66.289  1.00  0.00    -0.282 NA 
HETATM   12  C   UNL     1     -10.868  12.314  65.300  1.00  0.00    -0.293 A  
HETATM   13  S   UNL     1     -12.797  13.966  65.326  1.00  0.00    -0.282 SA 
HETATM   14  C   UNL     1     -12.061  12.580  64.657  1.00  0.00    -0.428 A  
BRANCH  12  15
HETATM   15  C   UNL     1      -9.943  11.171  65.024  1.00  0.00    -0.273 C  
BRANCH  15  16
HETATM   16  S   UNL     1      -9.260  10.505  66.583  1.00  0.00    -0.158 SA 
BRANCH  16  17
HETATM   17  C   UNL     1      -8.393   9.021  65.964  1.00  0.00    -0.123 C  
BRANCH  17  18
HETATM   18  C   UNL     1      -7.366   8.427  66.922  1.00  0.00    -0.083 C  
BRANCH  18  19
HETATM   19  C   UNL     1      -7.794   7.073  67.488  1.00  0.00    -0.112 C  
HETATM   20  H2  UNL     1      -7.001   7.532  69.377  1.00  0.00     0.000 HD 
HETATM   21  N   UNL     1      -7.487   6.840  68.807  1.00  0.00    -0.094 NA 
HETATM   22  H1  UNL     1      -7.772   5.936  69.185  1.00  0.00     0.000 HD 
BRANCH  19  23
HETATM   23  N   UNL     1      -8.410   6.292  66.665  1.00  0.00    -0.110 N  
HETATM   24  H   UNL     1      -8.046   6.169  65.719  1.00  0.00     0.000 HD 
BRANCH  23  25
HETATM   25  S   UNL     1      -9.745   5.507  67.110  1.00  0.00    -0.156 S  
HETATM   26  O   UNL     1     -10.859   6.426  67.136  1.00  0.00    -0.311 OA 
HETATM   27  O   UNL     1      -9.439   4.662  68.239  1.00  0.00    -0.132 OA 
HETATM   28  N   UNL     1     -10.065   4.462  65.840  1.00  0.00    -0.293 N  
HETATM   29  H1  UNL     1     -10.909   3.966  66.122  1.00  0.00     0.000 HD 
HETATM   30  H2  UNL     1      -9.533   4.348  64.977  1.00  0.00     0.000 HD 
ENDBRANCH  23  25
ENDBRANCH  19  23
ENDBRANCH  18  19
ENDBRANCH  17  18
ENDBRANCH  16  17
ENDBRANCH  15  16
ENDBRANCH  12  15
ENDBRANCH   5  10
TORSDOF 8
ENDMDL
MODEL      333
REMARK 921   NORMALIZED FREE ENERGY PREDICTED BY IDOCK:   -3.01 KCAL/MOL
REMARK 922        TOTAL FREE ENERGY PREDICTED BY IDOCK:   -5.60 KCAL/MOL
REMARK 923 INTER-LIGAND FREE ENERGY PREDICTED BY IDOCK:   -4.71 KCAL/MOL
REMARK 924 INTRA-LIGAND FREE ENERGY PREDICTED BY IDOCK:   -0.90 KCAL/MOL
REMARK 927      BINDING AFFINITY PREDICTED BY RF-SCORE:    0.00 PKD
ROOT
HETATM    1  N   UNL     1      -6.850  17.510  68.785  1.00  0.00    -0.223 NA 
HETATM    2  C   UNL     1      -8.100  17.048  68.539  1.00  0.00    -0.251 C  
HETATM    3  H2  UNL     1      -6.405  18.292  68.306  1.00  0.00     0.000 HD 
HETATM    4  H1  UNL     1      -6.425  16.952  69.525  1.00  0.00     0.000 HD 
HETATM    5  N   UNL     1      -8.579  16.061  69.214  1.00  0.00    -0.251 NA 
HETATM    6  N   UNL     1      -8.666  17.789  67.554  1.00  0.00    -0.237 NA 
HETATM    7  H2  UNL     1      -8.221  18.572  67.074  1.00  0.00     0.000 HD 
HETATM    8  H1  UNL     1      -9.607  17.442  67.368  1.00  0.00     0.000 HD 
HETATM    9  H   UNL     1      -8.030  15.618  69.951  1.00  0.00     0.000 HD 
ENDROOT
BRANCH   5  10
HETATM   10  C   UNL     1      -9.831  15.622  68.924  1.00  0.00    -0.219 A  
HETATM   11  N   UNL     1     -10.255  14.990  67.840  1.00  0.00    -0.227 NA 
HETATM   12  C   UNL     1     -11.612  14.693  67.935  1.00  0.00    -0.348 A  
HETATM   13  S   UNL     1     -11.064  15.881  70.112  1.00  0.00    -0.388 SA 
HETATM   14  C   UNL     1     -12.213  15.131  69.098  1.00  0.00    -0.150 A  
BRANCH  12  15
HETATM   15  C   UNL     1     -12.275  13.964  66.809  1.00  0.00    -0.399 C  
BRANCH  15  16
HETATM   16  S   UNL     1     -11.356  12.439  66.400  1.00  0.00    -0.361 SA 
BRANCH  16  17
HETATM   17  C   UNL     1     -11.307  11.627  68.036  1.00  0.00    -0.296 C  
BRANCH  17  18
HETATM   18  C   UNL     1     -11.489  10.114  68.011  1.00  0.00     0.007 C  
BRANCH  18  19
HETATM   19  C   UNL     1     -10.279   9.360  68.563  1.00  0.00    -0.199 C  
HETATM   20  H2  UNL     1      -9.188  11.138  68.798  1.00  0.00     0.000 HD 
HETATM   21  N   UNL     1      -9.189  10.124  68.906  1.00  0.00    -0.163 NA 
HETATM   22  H1  UNL     1      -8.382   9.621  69.274  1.00  0.00     0.000 HD 
BRANCH  19  23
HETATM   23  N   UNL     1     -10.414   8.078  68.659  1.00  0.00    -0.295 N  
HETATM   24  H   UNL     1     -11.198   7.693  69.185  1.00  0.00     0.000 HD 
BRANCH  23  25
HETATM   25  S   UNL     1      -9.360   7.081  67.958  1.00  0.00    -0.126 S  
HETATM   26  O   UNL     1      -9.123   5.947  68.820  1.00  0.00    -0.116 OA 
HETATM   27  O   UNL     1      -8.270   7.855  67.414  1.00  0.00    -0.120 OA 
HETATM   28  N   UNL     1     -10.179   6.465  66.633  1.00  0.00    -0.344 N  
HETATM   29  H1  UNL     1      -9.512   5.833  66.190  1.00  0.00     0.000 HD 
HETATM   30  H2  UNL     1     -11.132   6.674  66.335  1.00  0.00     0.000 HD 
ENDBRANCH  23  25
ENDBRANCH  19  23
ENDBRANCH  18  19
ENDBRANCH  17  18
ENDBRANCH  16  17
ENDBRANCH  15  16
ENDBRANCH  12  15
ENDBRANCH   5  10
TORSDOF 8
ENDMDL
MODEL      334
REMARK 921   NORMALIZED FREE ENERGY PREDICTED BY IDOCK:   -3.00 KCAL/MOL
REMARK 922        TOTAL FREE ENERGY PREDICTED BY IDOCK:   -5.58 KCAL/MOL
REMARK 923 INTER-LIGAND FREE ENERGY PREDICTED BY IDOCK:   -5.43 KCAL/MOL
REMARK 924 INTRA-LIGAND FREE ENERGY PREDICTED BY IDOCK:   -0.15 KCAL/MOL
REMARK 927      BINDING AFFINITY PREDICTED BY RF-SCORE:    0.00 PKD
ROOT
HETATM    1  N   UNL     1     -12.766  16.182  72.711  1.00  0.00    -0.434 NA 
HETATM    2  C   UNL     1     -12.482  14.952  72.219  1.00  0.00    -0.341 C  
HETATM    3  H2  UNL     1     -12.086  16.924  72.874  1.00  0.00     0.000 HD 
HETATM    4  H1  UNL     1     -13.767  16.250  72.893  1.00  0.00     0.000 HD 
HETATM    5  N   UNL     1     -13.420  14.088  72.033  1.00  0.00    -0.399 NA 
HETATM    6  N   UNL     1     -11.150  14.861  71.978  1.00  0.00    -0.339 NA 
HETATM    7  H2  UNL     1     -10.470  15.602  72.140  1.00  0.00     0.000 HD 
HETATM    8  H1  UNL     1     -10.937  13.935  71.607  1.00  0.00     0.000 HD 
HETATM    9  H   UNL     1     -14.391  14.320  72.243  1.00  0.00     0.000 HD 
ENDROOT
BRANCH   5  10
HETATM   10  C   UNL     1     -13.089  12.863  71.551  1.00  0.00    -0.298 A  
HETATM   11  N   UNL     1     -13.359  11.672  72.064  1.00  0.00    -0.429 NA 
HETATM   12  C   UNL     1     -12.859  10.655  71.255  1.00  0.00    -0.434 A  
HETATM   13  S   UNL     1     -12.218  12.800  70.056  1.00  0.00    -0.144 SA 
HETATM   14  C   UNL     1     -12.186  11.096  70.133  1.00  0.00    -0.337 A  
BRANCH  12  15
HETATM   15  C   UNL     1     -13.076   9.231  71.662  1.00  0.00    -0.382 C  
BRANCH  15  16
HETATM   16  S   UNL     1     -11.500   8.461  72.176  1.00  0.00    -0.388 SA 
BRANCH  16  17
HETATM   17  C   UNL     1     -11.839   6.709  71.784  1.00  0.00    -0.335 C  
BRANCH  17  18
HETATM   18  C   UNL     1     -11.223   5.702  72.748  1.00  0.00    -0.347 C  
BRANCH  18  19
HETATM   19  C   UNL     1     -10.022   4.966  72.153  1.00  0.00    -0.179 C  
HETATM   20  H2  UNL     1     -10.806   3.097  72.702  1.00  0.00     0.000 HD 
HETATM   21  N   UNL     1     -10.037   3.596  72.254  1.00  0.00    -0.167 NA 
HETATM   22  H1  UNL     1      -9.236   3.104  71.857  1.00  0.00     0.000 HD 
BRANCH  19  23
HETATM   23  N   UNL     1      -9.122   5.714  71.606  1.00  0.00    -0.139 N  
HETATM   24  H   UNL     1      -9.220   5.985  70.628  1.00  0.00     0.000 HD 
BRANCH  23  25
HETATM   25  S   UNL     1      -7.846   6.224  72.448  1.00  0.00    -0.103 S  
HETATM   26  O   UNL     1      -7.403   5.175  73.335  1.00  0.00    -0.088 OA 
HETATM   27  O   UNL     1      -8.106   7.559  72.931  1.00  0.00    -0.096 OA 
HETATM   28  N   UNL     1      -6.627   6.386  71.311  1.00  0.00    -0.050 N  
HETATM   29  H1  UNL     1      -5.820   6.709  71.844  1.00  0.00     0.000 HD 
HETATM   30  H2  UNL     1      -6.680   6.203  70.309  1.00  0.00     0.000 HD 
ENDBRANCH  23  25
ENDBRANCH  19  23
ENDBRANCH  18  19
ENDBRANCH  17  18
ENDBRANCH  16  17
ENDBRANCH  15  16
ENDBRANCH  12  15
ENDBRANCH   5  10
TORSDOF 8
ENDMDL
MODEL      335
REMARK 921   NORMALIZED FREE ENERGY PREDICTED BY IDOCK:   -2.99 KCAL/MOL
REMARK 922        TOTAL FREE ENERGY PREDICTED BY IDOCK:   -5.57 KCAL/MOL
REMARK 923 INTER-LIGAND FREE ENERGY PREDICTED BY IDOCK:   -3.93 KCAL/MOL
REMARK 924 INTRA-LIGAND FREE ENERGY PREDICTED BY IDOCK:   -1.64 KCAL/MOL
REMARK 927      BINDING AFFINITY PREDICTED BY RF-SCORE:    0.00 PKD
ROOT
HETATM    1  N   UNL     1     -11.281  12.451  66.132  1.00  0.00    -0.306 NA 
HETATM    2  C   UNL     1     -10.454  11.378  66.085  1.00  0.00    -0.255 C  
HETATM    3  H2  UNL     1     -12.106  12.534  66.726  1.00  0.00     0.000 HD 
HETATM    4  H1  UNL     1     -10.948  13.161  65.482  1.00  0.00     0.000 HD 
HETATM    5  N   UNL     1      -9.424  11.379  65.312  1.00  0.00    -0.257 NA 
HETATM    6  N   UNL     1     -10.896  10.432  66.952  1.00  0.00    -0.206 NA 
HETATM    7  H2  UNL     1     -11.721  10.515  67.545  1.00  0.00     0.000 HD 
HETATM    8  H1  UNL     1     -10.273   9.625  66.917  1.00  0.00     0.000 HD 
HETATM    9  H   UNL     1      -9.209  12.189  64.731  1.00  0.00     0.000 HD 
ENDROOT
BRANCH   5  10
HETATM   10  C   UNL     1      -8.630  10.277  65.286  1.00  0.00    -0.165 A  
HETATM   11  N   UNL     1      -8.865   9.102  64.723  1.00  0.00    -0.185 NA 
HETATM   12  C   UNL     1      -7.788   8.238  64.905  1.00  0.00    -0.126 A  
HETATM   13  S   UNL     1      -7.084  10.388  66.059  1.00  0.00    -0.138 SA 
HETATM   14  C   UNL     1      -6.745   8.770  65.635  1.00  0.00    -0.068 A  
BRANCH  12  15
HETATM   15  C   UNL     1      -7.859   6.859  64.327  1.00  0.00    -0.104 C  
BRANCH  15  16
HETATM   16  S   UNL     1      -7.710   5.601  65.644  1.00  0.00    -0.092 SA 
BRANCH  16  17
HETATM   17  C   UNL     1      -9.467   5.167  65.895  1.00  0.00    -0.156 C  
BRANCH  17  18
HETATM   18  C   UNL     1      -9.939   5.202  67.344  1.00  0.00    -0.215 C  
BRANCH  18  19
HETATM   19  C   UNL     1     -10.710   6.476  67.688  1.00  0.00    -0.307 C  
HETATM   20  H2  UNL     1     -10.914   6.985  65.661  1.00  0.00     0.000 HD 
HETATM   21  N   UNL     1     -11.116   7.248  66.625  1.00  0.00    -0.357 NA 
HETATM   22  H1  UNL     1     -11.631   8.098  66.854  1.00  0.00     0.000 HD 
BRANCH  19  23
HETATM   23  N   UNL     1     -10.908   6.688  68.946  1.00  0.00    -0.304 N  
HETATM   24  H   UNL     1     -11.703   6.250  69.411  1.00  0.00     0.000 HD 
BRANCH  23  25
HETATM   25  S   UNL     1      -9.917   7.636  69.792  1.00  0.00    -0.187 S  
HETATM   26  O   UNL     1      -9.237   6.851  70.795  1.00  0.00    -0.157 OA 
HETATM   27  O   UNL     1     -10.611   8.856  70.133  1.00  0.00    -0.210 OA 
HETATM   28  N   UNL     1      -8.728   8.085  68.701  1.00  0.00    -0.131 N  
HETATM   29  H1  UNL     1      -8.101   8.685  69.236  1.00  0.00     0.000 HD 
HETATM   30  H2  UNL     1      -8.649   7.818  67.720  1.00  0.00     0.000 HD 
ENDBRANCH  23  25
ENDBRANCH  19  23
ENDBRANCH  18  19
ENDBRANCH  17  18
ENDBRANCH  16  17
ENDBRANCH  15  16
ENDBRANCH  12  15
ENDBRANCH   5  10
TORSDOF 8
ENDMDL
MODEL      336
REMARK 921   NORMALIZED FREE ENERGY PREDICTED BY IDOCK:   -2.95 KCAL/MOL
REMARK 922        TOTAL FREE ENERGY PREDICTED BY IDOCK:   -5.51 KCAL/MOL
REMARK 923 INTER-LIGAND FREE ENERGY PREDICTED BY IDOCK:   -4.77 KCAL/MOL
REMARK 924 INTRA-LIGAND FREE ENERGY PREDICTED BY IDOCK:   -0.74 KCAL/MOL
REMARK 927      BINDING AFFINITY PREDICTED BY RF-SCORE:    0.00 PKD
ROOT
HETATM    1  N   UNL     1      -8.755   4.745  65.412  1.00  0.00    -0.133 NA 
HETATM    2  C   UNL     1      -8.994   6.003  65.854  1.00  0.00    -0.133 C  
HETATM    3  H2  UNL     1      -9.268   3.911  65.698  1.00  0.00     0.000 HD 
HETATM    4  H1  UNL     1      -7.981   4.763  64.748  1.00  0.00     0.000 HD 
HETATM    5  N   UNL     1      -8.299   6.995  65.416  1.00  0.00    -0.184 NA 
HETATM    6  N   UNL     1     -10.024   5.980  66.738  1.00  0.00    -0.162 NA 
HETATM    7  H2  UNL     1     -10.536   5.147  67.024  1.00  0.00     0.000 HD 
HETATM    8  H1  UNL     1     -10.204   6.927  67.071  1.00  0.00     0.000 HD 
HETATM    9  H   UNL     1      -7.565   6.851  64.723  1.00  0.00     0.000 HD 
ENDROOT
BRANCH   5  10
HETATM   10  C   UNL     1      -8.564   8.237  65.897  1.00  0.00    -0.150 A  
HETATM   11  N   UNL     1      -9.723   8.877  65.940  1.00  0.00    -0.236 NA 
HETATM   12  C   UNL     1      -9.578  10.131  66.529  1.00  0.00    -0.187 A  
HETATM   13  S   UNL     1      -7.245   9.130  66.578  1.00  0.00    -0.085 SA 
HETATM   14  C   UNL     1      -8.288  10.438  66.911  1.00  0.00    -0.124 A  
BRANCH  12  15
HETATM   15  C   UNL     1     -10.785  11.004  66.681  1.00  0.00    -0.249 C  
BRANCH  15  16
HETATM   16  S   UNL     1     -10.514  12.252  67.988  1.00  0.00    -0.225 SA 
BRANCH  16  17
HETATM   17  C   UNL     1     -11.630  13.582  67.418  1.00  0.00    -0.356 C  
BRANCH  17  18
HETATM   18  C   UNL     1     -11.142  14.355  66.199  1.00  0.00    -0.330 C  
BRANCH  18  19
HETATM   19  C   UNL     1     -10.183  15.490  66.558  1.00  0.00    -0.283 C  
HETATM   20  H2  UNL     1      -8.538  14.446  65.775  1.00  0.00     0.000 HD 
HETATM   21  N   UNL     1      -8.862  15.298  66.232  1.00  0.00    -0.442 NA 
HETATM   22  H1  UNL     1      -8.221  16.056  66.472  1.00  0.00     0.000 HD 
BRANCH  19  23
HETATM   23  N   UNL     1     -10.721  16.519  67.125  1.00  0.00    -0.270 N  
HETATM   24  H   UNL     1     -11.646  16.829  66.830  1.00  0.00     0.000 HD 
BRANCH  23  25
HETATM   25  S   UNL     1      -9.950  17.319  68.292  1.00  0.00    -0.334 S  
HETATM   26  O   UNL     1      -8.541  17.385  67.983  1.00  0.00    -0.227 OA 
HETATM   27  O   UNL     1     -10.418  16.846  69.574  1.00  0.00    -0.303 OA 
HETATM   28  N   UNL     1     -10.505  18.894  68.164  1.00  0.00    -0.357 N  
HETATM   29  H1  UNL     1     -10.017  19.399  68.902  1.00  0.00     0.000 HD 
HETATM   30  H2  UNL     1     -11.181  19.264  67.495  1.00  0.00     0.000 HD 
ENDBRANCH  23  25
ENDBRANCH  19  23
ENDBRANCH  18  19
ENDBRANCH  17  18
ENDBRANCH  16  17
ENDBRANCH  15  16
ENDBRANCH  12  15
ENDBRANCH   5  10
TORSDOF 8
ENDMDL
MODEL      337
REMARK 921   NORMALIZED FREE ENERGY PREDICTED BY IDOCK:   -2.95 KCAL/MOL
REMARK 922        TOTAL FREE ENERGY PREDICTED BY IDOCK:   -5.50 KCAL/MOL
REMARK 923 INTER-LIGAND FREE ENERGY PREDICTED BY IDOCK:   -5.02 KCAL/MOL
REMARK 924 INTRA-LIGAND FREE ENERGY PREDICTED BY IDOCK:   -0.49 KCAL/MOL
REMARK 927      BINDING AFFINITY PREDICTED BY RF-SCORE:    0.00 PKD
ROOT
HETATM    1  N   UNL     1      -9.439   9.376  62.974  1.00  0.00    -0.466 NA 
HETATM    2  C   UNL     1      -9.111  10.197  64.001  1.00  0.00    -0.254 C  
HETATM    3  H2  UNL     1      -9.370   9.613  61.984  1.00  0.00     0.000 HD 
HETATM    4  H1  UNL     1      -9.763   8.484  63.345  1.00  0.00     0.000 HD 
HETATM    5  N   UNL     1      -9.217   9.794  65.220  1.00  0.00    -0.219 NA 
HETATM    6  N   UNL     1      -8.679  11.384  63.507  1.00  0.00    -0.400 NA 
HETATM    7  H2  UNL     1      -8.610  11.622  62.518  1.00  0.00     0.000 HD 
HETATM    8  H1  UNL     1      -8.432  12.002  64.280  1.00  0.00     0.000 HD 
HETATM    9  H   UNL     1      -9.539   8.850  65.431  1.00  0.00     0.000 HD 
ENDROOT
BRANCH   5  10
HETATM   10  C   UNL     1      -8.891  10.655  66.219  1.00  0.00    -0.161 A  
HETATM   11  N   UNL     1      -8.673  11.959  66.148  1.00  0.00    -0.079 NA 
HETATM   12  C   UNL     1      -8.381  12.484  67.404  1.00  0.00    -0.182 A  
HETATM   13  S   UNL     1      -8.757  10.007  67.820  1.00  0.00    -0.124 SA 
HETATM   14  C   UNL     1      -8.360  11.553  68.423  1.00  0.00    -0.154 A  
BRANCH  12  15
HETATM   15  C   UNL     1      -8.116  13.952  67.533  1.00  0.00    -0.182 C  
BRANCH  15  16
HETATM   16  S   UNL     1      -6.341  14.261  67.835  1.00  0.00    -0.156 SA 
BRANCH  16  17
HETATM   17  C   UNL     1      -6.389  16.007  68.370  1.00  0.00    -0.109 C  
BRANCH  17  18
HETATM   18  C   UNL     1      -6.525  17.024  67.242  1.00  0.00    -0.194 C  
BRANCH  18  19
HETATM   19  C   UNL     1      -6.503  18.469  67.738  1.00  0.00    -0.209 C  
HETATM   20  H2  UNL     1      -4.404  18.493  67.798  1.00  0.00     0.000 HD 
HETATM   21  N   UNL     1      -5.263  19.020  67.957  1.00  0.00    -0.172 NA 
HETATM   22  H1  UNL     1      -5.248  19.985  68.289  1.00  0.00     0.000 HD 
BRANCH  19  23
HETATM   23  N   UNL     1      -7.659  19.027  67.890  1.00  0.00    -0.258 N  
HETATM   24  H   UNL     1      -8.362  18.573  68.473  1.00  0.00     0.000 HD 
BRANCH  23  25
HETATM   25  S   UNL     1      -8.004  20.427  67.172  1.00  0.00    -0.311 S  
HETATM   26  O   UNL     1      -6.955  21.380  67.445  1.00  0.00    -0.572 OA 
HETATM   27  O   UNL     1      -9.392  20.746  67.407  1.00  0.00    -0.392 OA 
HETATM   28  N   UNL     1      -7.889  20.101  65.533  1.00  0.00    -0.419 N  
HETATM   29  H1  UNL     1      -8.107  20.988  65.079  1.00  0.00     0.000 HD 
HETATM   30  H2  UNL     1      -7.653  19.214  65.088  1.00  0.00     0.000 HD 
ENDBRANCH  23  25
ENDBRANCH  19  23
ENDBRANCH  18  19
ENDBRANCH  17  18
ENDBRANCH  16  17
ENDBRANCH  15  16
ENDBRANCH  12  15
ENDBRANCH   5  10
TORSDOF 8
ENDMDL
MODEL      338
REMARK 921   NORMALIZED FREE ENERGY PREDICTED BY IDOCK:   -2.93 KCAL/MOL
REMARK 922        TOTAL FREE ENERGY PREDICTED BY IDOCK:   -5.47 KCAL/MOL
REMARK 923 INTER-LIGAND FREE ENERGY PREDICTED BY IDOCK:   -4.07 KCAL/MOL
REMARK 924 INTRA-LIGAND FREE ENERGY PREDICTED BY IDOCK:   -1.40 KCAL/MOL
REMARK 927      BINDING AFFINITY PREDICTED BY RF-SCORE:    0.00 PKD
ROOT
HETATM    1  N   UNL     1      -9.172  14.080  68.126  1.00  0.00    -0.191 NA 
HETATM    2  C   UNL     1      -8.733  12.805  67.991  1.00  0.00    -0.194 C  
HETATM    3  H2  UNL     1      -9.230  14.767  67.374  1.00  0.00     0.000 HD 
HETATM    4  H1  UNL     1      -9.434  14.245  69.097  1.00  0.00     0.000 HD 
HETATM    5  N   UNL     1      -8.714  12.008  69.003  1.00  0.00    -0.340 NA 
HETATM    6  N   UNL     1      -8.383  12.585  66.698  1.00  0.00    -0.408 NA 
HETATM    7  H2  UNL     1      -8.442  13.271  65.946  1.00  0.00     0.000 HD 
HETATM    8  H1  UNL     1      -8.054  11.625  66.596  1.00  0.00     0.000 HD 
HETATM    9  H   UNL     1      -9.038  12.321  69.918  1.00  0.00     0.000 HD 
ENDROOT
BRANCH   5  10
HETATM   10  C   UNL     1      -8.254  10.743  68.825  1.00  0.00    -0.145 A  
HETATM   11  N   UNL     1      -8.537   9.889  67.853  1.00  0.00    -0.125 NA 
HETATM   12  C   UNL     1      -7.843   8.694  68.022  1.00  0.00    -0.103 A  
HETATM   13  S   UNL     1      -7.123  10.133  69.987  1.00  0.00    -0.159 SA 
HETATM   14  C   UNL     1      -7.047   8.649  69.149  1.00  0.00    -0.063 A  
BRANCH  12  15
HETATM   15  C   UNL     1      -8.021   7.603  67.012  1.00  0.00    -0.116 C  
BRANCH  15  16
HETATM   16  S   UNL     1      -9.730   7.600  66.364  1.00  0.00    -0.067 SA 
BRANCH  16  17
HETATM   17  C   UNL     1     -10.415   6.145  67.231  1.00  0.00    -0.255 C  
BRANCH  17  18
HETATM   18  C   UNL     1     -11.476   6.459  68.279  1.00  0.00     0.113 C  
BRANCH  18  19
HETATM   19  C   UNL     1     -10.880   6.828  69.637  1.00  0.00    -0.271 C  
HETATM   20  H2  UNL     1     -10.138   4.884  69.920  1.00  0.00     0.000 HD 
HETATM   21  N   UNL     1     -10.223   5.824  70.307  1.00  0.00    -0.212 NA 
HETATM   22  H1  UNL     1      -9.825   6.070  71.214  1.00  0.00     0.000 HD 
BRANCH  19  23
HETATM   23  N   UNL     1     -11.050   8.054  70.009  1.00  0.00    -0.393 N  
HETATM   24  H   UNL     1     -11.005   8.800  69.315  1.00  0.00     0.000 HD 
BRANCH  23  25
HETATM   25  S   UNL     1     -11.331   8.420  71.553  1.00  0.00    -0.295 S  
HETATM   26  O   UNL     1     -12.283   7.486  72.104  1.00  0.00    -0.293 OA 
HETATM   27  O   UNL     1     -11.519   9.846  71.670  1.00  0.00    -0.329 OA 
HETATM   28  N   UNL     1      -9.886   8.091  72.334  1.00  0.00    -0.221 N  
HETATM   29  H1  UNL     1     -10.064   8.323  73.311  1.00  0.00     0.000 HD 
HETATM   30  H2  UNL     1      -9.021   7.738  71.925  1.00  0.00     0.000 HD 
ENDBRANCH  23  25
ENDBRANCH  19  23
ENDBRANCH  18  19
ENDBRANCH  17  18
ENDBRANCH  16  17
ENDBRANCH  15  16
ENDBRANCH  12  15
ENDBRANCH   5  10
TORSDOF 8
ENDMDL
MODEL      339
REMARK 921   NORMALIZED FREE ENERGY PREDICTED BY IDOCK:   -2.91 KCAL/MOL
REMARK 922        TOTAL FREE ENERGY PREDICTED BY IDOCK:   -5.45 KCAL/MOL
REMARK 923 INTER-LIGAND FREE ENERGY PREDICTED BY IDOCK:   -4.38 KCAL/MOL
REMARK 924 INTRA-LIGAND FREE ENERGY PREDICTED BY IDOCK:   -1.07 KCAL/MOL
REMARK 927      BINDING AFFINITY PREDICTED BY RF-SCORE:    0.00 PKD
ROOT
HETATM    1  N   UNL     1      -9.654  12.018  63.208  1.00  0.00    -0.648 NA 
HETATM    2  C   UNL     1      -9.854  11.451  64.422  1.00  0.00    -0.261 C  
HETATM    3  H2  UNL     1      -9.783  11.551  62.310  1.00  0.00     0.000 HD 
HETATM    4  H1  UNL     1      -9.354  12.984  63.332  1.00  0.00     0.000 HD 
HETATM    5  N   UNL     1      -9.679  12.134  65.500  1.00  0.00    -0.343 NA 
HETATM    6  N   UNL     1     -10.253  10.164  64.257  1.00  0.00    -0.425 NA 
HETATM    7  H2  UNL     1     -10.383   9.698  63.360  1.00  0.00     0.000 HD 
HETATM    8  H1  UNL     1     -10.404   9.738  65.172  1.00  0.00     0.000 HD 
HETATM    9  H   UNL     1      -9.398  13.113  65.457  1.00  0.00     0.000 HD 
ENDROOT
BRANCH   5  10
HETATM   10  C   UNL     1      -9.878  11.522  66.696  1.00  0.00    -0.202 A  
HETATM   11  N   UNL     1      -9.298  10.431  67.173  1.00  0.00    -0.156 NA 
HETATM   12  C   UNL     1      -9.764  10.137  68.452  1.00  0.00    -0.147 A  
HETATM   13  S   UNL     1     -11.014  12.245  67.785  1.00  0.00    -0.247 SA 
HETATM   14  C   UNL     1     -10.723  11.009  68.926  1.00  0.00    -0.211 A  
BRANCH  12  15
HETATM   15  C   UNL     1      -9.215   8.942  69.167  1.00  0.00    -0.144 C  
BRANCH  15  16
HETATM   16  S   UNL     1      -7.648   8.397  68.399  1.00  0.00    -0.098 SA 
BRANCH  16  17
HETATM   17  C   UNL     1      -7.948   6.600  68.262  1.00  0.00    -0.111 C  
BRANCH  17  18
HETATM   18  C   UNL     1      -9.393   6.208  67.976  1.00  0.00    -0.114 C  
BRANCH  18  19
HETATM   19  C   UNL     1      -9.513   5.097  66.933  1.00  0.00    -0.139 C  
HETATM   20  H2  UNL     1      -8.863   6.372  65.396  1.00  0.00     0.000 HD 
HETATM   21  N   UNL     1      -9.176   5.433  65.644  1.00  0.00    -0.243 NA 
HETATM   22  H1  UNL     1      -9.257   4.692  64.947  1.00  0.00     0.000 HD 
BRANCH  19  23
HETATM   23  N   UNL     1      -9.911   3.951  67.378  1.00  0.00    -0.193 N  
HETATM   24  H   UNL     1     -10.812   3.881  67.851  1.00  0.00     0.000 HD 
BRANCH  23  25
HETATM   25  S   UNL     1      -9.004   2.632  67.197  1.00  0.00    -0.152 S  
HETATM   26  O   UNL     1      -9.334   1.674  68.225  1.00  0.00    -0.160 OA 
HETATM   27  O   UNL     1      -7.639   3.031  66.948  1.00  0.00    -0.073 OA 
HETATM   28  N   UNL     1      -9.538   1.945  65.765  1.00  0.00    -0.316 N  
HETATM   29  H1  UNL     1      -8.964   1.111  65.650  1.00  0.00     0.000 HD 
HETATM   30  H2  UNL     1     -10.274   2.286  65.146  1.00  0.00     0.000 HD 
ENDBRANCH  23  25
ENDBRANCH  19  23
ENDBRANCH  18  19
ENDBRANCH  17  18
ENDBRANCH  16  17
ENDBRANCH  15  16
ENDBRANCH  12  15
ENDBRANCH   5  10
TORSDOF 8
ENDMDL
MODEL      340
REMARK 921   NORMALIZED FREE ENERGY PREDICTED BY IDOCK:   -2.90 KCAL/MOL
REMARK 922        TOTAL FREE ENERGY PREDICTED BY IDOCK:   -5.43 KCAL/MOL
REMARK 923 INTER-LIGAND FREE ENERGY PREDICTED BY IDOCK:   -4.50 KCAL/MOL
REMARK 924 INTRA-LIGAND FREE ENERGY PREDICTED BY IDOCK:   -0.94 KCAL/MOL
REMARK 927      BINDING AFFINITY PREDICTED BY RF-SCORE:    0.00 PKD
ROOT
HETATM    1  N   UNL     1     -11.495   6.303  66.683  1.00  0.00    -0.647 NA 
HETATM    2  C   UNL     1     -11.112   6.648  67.937  1.00  0.00    -0.217 C  
HETATM    3  H2  UNL     1     -11.457   6.911  65.866  1.00  0.00     0.000 HD 
HETATM    4  H1  UNL     1     -11.827   5.339  66.686  1.00  0.00     0.000 HD 
HETATM    5  N   UNL     1     -11.183   5.797  68.901  1.00  0.00    -0.078 NA 
HETATM    6  N   UNL     1     -10.670   7.931  67.934  1.00  0.00    -0.442 NA 
HETATM    7  H2  UNL     1     -10.631   8.539  67.116  1.00  0.00     0.000 HD 
HETATM    8  H1  UNL     1     -10.381   8.191  68.877  1.00  0.00     0.000 HD 
HETATM    9  H   UNL     1     -11.519   4.849  68.736  1.00  0.00     0.000 HD 
ENDROOT
BRANCH   5  10
HETATM   10  C   UNL     1     -10.801   6.190  70.144  1.00  0.00    -0.329 A  
HETATM   11  N   UNL     1      -9.600   6.130  70.697  1.00  0.00    -0.171 NA 
HETATM   12  C   UNL     1      -9.618   6.653  71.987  1.00  0.00    -0.148 A  
HETATM   13  S   UNL     1     -12.010   6.893  71.166  1.00  0.00    -0.378 SA 
HETATM   14  C   UNL     1     -10.858   7.090  72.410  1.00  0.00    -0.240 A  
BRANCH  12  15
HETATM   15  C   UNL     1      -8.346   6.685  72.775  1.00  0.00    -0.118 C  
BRANCH  15  16
HETATM   16  S   UNL     1      -7.354   8.155  72.335  1.00  0.00    -0.109 SA 
BRANCH  16  17
HETATM   17  C   UNL     1      -8.396   8.883  71.022  1.00  0.00    -0.191 C  
BRANCH  17  18
HETATM   18  C   UNL     1      -7.765   8.902  69.635  1.00  0.00    -0.078 C  
BRANCH  18  19
HETATM   19  C   UNL     1      -7.917  10.250  68.930  1.00  0.00    -0.113 C  
HETATM   20  H2  UNL     1      -6.952  11.259  70.498  1.00  0.00     0.000 HD 
HETATM   21  N   UNL     1      -7.407  11.343  69.589  1.00  0.00    -0.359 NA 
HETATM   22  H1  UNL     1      -7.508  12.243  69.119  1.00  0.00     0.000 HD 
BRANCH  19  23
HETATM   23  N   UNL     1      -8.502  10.217  67.779  1.00  0.00    -0.114 N  
HETATM   24  H   UNL     1      -8.289   9.461  67.128  1.00  0.00     0.000 HD 
BRANCH  23  25
HETATM   25  S   UNL     1      -9.564  11.353  67.358  1.00  0.00    -0.175 S  
HETATM   26  O   UNL     1      -8.996  12.658  67.601  1.00  0.00    -0.169 OA 
HETATM   27  O   UNL     1     -10.866  10.991  67.866  1.00  0.00    -0.201 OA 
HETATM   28  N   UNL     1      -9.682  11.225  65.692  1.00  0.00    -0.220 N  
HETATM   29  H1  UNL     1     -10.354  11.944  65.425  1.00  0.00     0.000 HD 
HETATM   30  H2  UNL     1      -9.190  10.573  65.080  1.00  0.00     0.000 HD 
ENDBRANCH  23  25
ENDBRANCH  19  23
ENDBRANCH  18  19
ENDBRANCH  17  18
ENDBRANCH  16  17
ENDBRANCH  15  16
ENDBRANCH  12  15
ENDBRANCH   5  10
TORSDOF 8
ENDMDL
MODEL      341
REMARK 921   NORMALIZED FREE ENERGY PREDICTED BY IDOCK:   -2.89 KCAL/MOL
REMARK 922        TOTAL FREE ENERGY PREDICTED BY IDOCK:   -5.41 KCAL/MOL
REMARK 923 INTER-LIGAND FREE ENERGY PREDICTED BY IDOCK:   -4.61 KCAL/MOL
REMARK 924 INTRA-LIGAND FREE ENERGY PREDICTED BY IDOCK:   -0.80 KCAL/MOL
REMARK 927      BINDING AFFINITY PREDICTED BY RF-SCORE:    0.00 PKD
ROOT
HETATM    1  N   UNL     1     -10.460  17.512  67.675  1.00  0.00    -0.362 NA 
HETATM    2  C   UNL     1     -10.529  16.247  68.156  1.00  0.00    -0.289 C  
HETATM    3  H2  UNL     1      -9.718  18.181  67.878  1.00  0.00     0.000 HD 
HETATM    4  H1  UNL     1     -11.267  17.690  67.078  1.00  0.00     0.000 HD 
HETATM    5  N   UNL     1     -11.503  15.472  67.824  1.00  0.00    -0.292 NA 
HETATM    6  N   UNL     1      -9.455  16.010  68.951  1.00  0.00    -0.222 NA 
HETATM    7  H2  UNL     1      -8.713  16.679  69.154  1.00  0.00     0.000 HD 
HETATM    8  H1  UNL     1      -9.506  15.058  69.313  1.00  0.00     0.000 HD 
HETATM    9  H   UNL     1     -12.232  15.794  67.187  1.00  0.00     0.000 HD 
ENDROOT
BRANCH   5  10
HETATM   10  C   UNL     1     -11.539  14.217  68.341  1.00  0.00    -0.320 A  
HETATM   11  N   UNL     1     -11.214  13.073  67.758  1.00  0.00    -0.265 NA 
HETATM   12  C   UNL     1     -11.373  12.004  68.635  1.00  0.00    -0.277 A  
HETATM   13  S   UNL     1     -12.050  14.044  69.987  1.00  0.00    -0.361 SA 
HETATM   14  C   UNL     1     -11.847  12.353  69.883  1.00  0.00    -0.305 A  
BRANCH  12  15
HETATM   15  C   UNL     1     -11.041  10.623  68.162  1.00  0.00    -0.285 C  
BRANCH  15  16
HETATM   16  S   UNL     1      -9.234  10.350  68.192  1.00  0.00    -0.149 SA 
BRANCH  16  17
HETATM   17  C   UNL     1      -9.057   9.443  69.768  1.00  0.00    -0.193 C  
BRANCH  17  18
HETATM   18  C   UNL     1     -10.208   8.503  70.104  1.00  0.00    -0.202 C  
BRANCH  18  19
HETATM   19  C   UNL     1     -10.000   7.090  69.560  1.00  0.00    -0.162 C  
HETATM   20  H2  UNL     1     -12.061   6.688  69.614  1.00  0.00     0.000 HD 
HETATM   21  N   UNL     1     -11.133   6.329  69.390  1.00  0.00    -0.379 NA 
HETATM   22  H1  UNL     1     -10.994   5.386  69.027  1.00  0.00     0.000 HD 
BRANCH  19  23
HETATM   23  N   UNL     1      -8.777   6.761  69.307  1.00  0.00    -0.134 N  
HETATM   24  H   UNL     1      -8.096   6.735  70.067  1.00  0.00     0.000 HD 
BRANCH  23  25
HETATM   25  S   UNL     1      -8.311   6.392  67.810  1.00  0.00    -0.118 S  
HETATM   26  O   UNL     1      -9.251   6.942  66.863  1.00  0.00    -0.134 OA 
HETATM   27  O   UNL     1      -7.925   5.001  67.768  1.00  0.00    -0.094 OA 
HETATM   28  N   UNL     1      -6.895   7.258  67.582  1.00  0.00    -0.071 N  
HETATM   29  H1  UNL     1      -6.601   7.024  66.634  1.00  0.00     0.000 HD 
HETATM   30  H2  UNL     1      -6.431   7.880  68.243  1.00  0.00     0.000 HD 
ENDBRANCH  23  25
ENDBRANCH  19  23
ENDBRANCH  18  19
ENDBRANCH  17  18
ENDBRANCH  16  17
ENDBRANCH  15  16
ENDBRANCH  12  15
ENDBRANCH   5  10
TORSDOF 8
ENDMDL
MODEL      342
REMARK 921   NORMALIZED FREE ENERGY PREDICTED BY IDOCK:   -2.87 KCAL/MOL
REMARK 922        TOTAL FREE ENERGY PREDICTED BY IDOCK:   -5.39 KCAL/MOL
REMARK 923 INTER-LIGAND FREE ENERGY PREDICTED BY IDOCK:   -4.23 KCAL/MOL
REMARK 924 INTRA-LIGAND FREE ENERGY PREDICTED BY IDOCK:   -1.16 KCAL/MOL
REMARK 927      BINDING AFFINITY PREDICTED BY RF-SCORE:    0.00 PKD
ROOT
HETATM    1  N   UNL     1     -10.180  12.510  64.509  1.00  0.00    -0.425 NA 
HETATM    2  C   UNL     1      -9.428  11.435  64.851  1.00  0.00    -0.171 C  
HETATM    3  H2  UNL     1     -10.230  13.384  65.032  1.00  0.00     0.000 HD 
HETATM    4  H1  UNL     1     -10.686  12.307  63.648  1.00  0.00     0.000 HD 
HETATM    5  N   UNL     1      -9.420  10.380  64.111  1.00  0.00    -0.276 NA 
HETATM    6  N   UNL     1      -8.754  11.704  65.997  1.00  0.00    -0.371 NA 
HETATM    7  H2  UNL     1      -8.805  12.578  66.520  1.00  0.00     0.000 HD 
HETATM    8  H1  UNL     1      -8.188  10.895  66.254  1.00  0.00     0.000 HD 
HETATM    9  H   UNL     1      -9.970  10.341  63.253  1.00  0.00     0.000 HD 
ENDROOT
BRANCH   5  10
HETATM   10  C   UNL     1      -8.664   9.321  64.499  1.00  0.00    -0.187 A  
HETATM   11  N   UNL     1      -8.891   8.456  65.476  1.00  0.00    -0.160 NA 
HETATM   12  C   UNL     1      -7.881   7.500  65.540  1.00  0.00    -0.114 A  
HETATM   13  S   UNL     1      -7.212   9.007  63.608  1.00  0.00    -0.094 SA 
HETATM   14  C   UNL     1      -6.874   7.668  64.611  1.00  0.00    -0.051 A  
BRANCH  12  15
HETATM   15  C   UNL     1      -7.966   6.423  66.576  1.00  0.00    -0.109 C  
BRANCH  15  16
HETATM   16  S   UNL     1      -6.718   6.689  67.885  1.00  0.00    -0.074 SA 
BRANCH  16  17
HETATM   17  C   UNL     1      -7.382   8.193  68.682  1.00  0.00    -0.089 C  
BRANCH  17  18
HETATM   18  C   UNL     1      -7.556   8.098  70.193  1.00  0.00    -0.077 C  
BRANCH  18  19
HETATM   19  C   UNL     1      -8.970   7.686  70.604  1.00  0.00    -0.153 C  
HETATM   20  H2  UNL     1      -8.416   7.533  72.624  1.00  0.00     0.000 HD 
HETATM   21  N   UNL     1      -9.170   7.443  71.942  1.00  0.00    -0.133 NA 
HETATM   22  H1  UNL     1     -10.113   7.168  72.217  1.00  0.00     0.000 HD 
BRANCH  19  23
HETATM   23  N   UNL     1      -9.835   7.619  69.646  1.00  0.00    -0.179 N  
HETATM   24  H   UNL     1      -9.894   8.380  68.969  1.00  0.00     0.000 HD 
BRANCH  23  25
HETATM   25  S   UNL     1     -10.820   6.352  69.507  1.00  0.00    -0.357 S  
HETATM   26  O   UNL     1     -10.377   5.297  70.387  1.00  0.00    -0.258 OA 
HETATM   27  O   UNL     1     -11.075   6.108  68.107  1.00  0.00    -0.332 OA 
HETATM   28  N   UNL     1     -12.277   6.877  70.144  1.00  0.00    -0.623 N  
HETATM   29  H1  UNL     1     -12.900   6.075  70.056  1.00  0.00     0.000 HD 
HETATM   30  H2  UNL     1     -12.493   7.795  70.534  1.00  0.00     0.000 HD 
ENDBRANCH  23  25
ENDBRANCH  19  23
ENDBRANCH  18  19
ENDBRANCH  17  18
ENDBRANCH  16  17
ENDBRANCH  15  16
ENDBRANCH  12  15
ENDBRANCH   5  10
TORSDOF 8
ENDMDL
MODEL      343
REMARK 921   NORMALIZED FREE ENERGY PREDICTED BY IDOCK:   -2.86 KCAL/MOL
REMARK 922        TOTAL FREE ENERGY PREDICTED BY IDOCK:   -5.38 KCAL/MOL
REMARK 923 INTER-LIGAND FREE ENERGY PREDICTED BY IDOCK:   -4.58 KCAL/MOL
REMARK 924 INTRA-LIGAND FREE ENERGY PREDICTED BY IDOCK:   -0.79 KCAL/MOL
REMARK 927      BINDING AFFINITY PREDICTED BY RF-SCORE:    0.00 PKD
ROOT
HETATM    1  N   UNL     1     -10.601  15.653  64.563  1.00  0.00    -0.682 NA 
HETATM    2  C   UNL     1     -10.633  14.363  64.977  1.00  0.00    -0.432 C  
HETATM    3  H2  UNL     1     -10.620  15.961  63.592  1.00  0.00     0.000 HD 
HETATM    4  H1  UNL     1     -10.555  16.266  65.376  1.00  0.00     0.000 HD 
HETATM    5  N   UNL     1     -10.622  14.077  66.233  1.00  0.00    -0.279 NA 
HETATM    6  N   UNL     1     -10.693  13.545  63.895  1.00  0.00    -0.497 NA 
HETATM    7  H2  UNL     1     -10.713  13.854  62.924  1.00  0.00     0.000 HD 
HETATM    8  H1  UNL     1     -10.718  12.574  64.207  1.00  0.00     0.000 HD 
HETATM    9  H   UNL     1     -10.600  14.816  66.935  1.00  0.00     0.000 HD 
ENDROOT
BRANCH   5  10
HETATM   10  C   UNL     1     -10.641  12.771  66.602  1.00  0.00    -0.256 A  
HETATM   11  N   UNL     1     -10.181  11.718  65.943  1.00  0.00    -0.228 NA 
HETATM   12  C   UNL     1     -10.375  10.548  66.673  1.00  0.00    -0.237 A  
HETATM   13  S   UNL     1     -11.328  12.386  68.145  1.00  0.00    -0.315 SA 
HETATM   14  C   UNL     1     -11.010  10.729  67.885  1.00  0.00    -0.289 A  
BRANCH  12  15
HETATM   15  C   UNL     1      -9.907   9.248  66.098  1.00  0.00    -0.293 C  
BRANCH  15  16
HETATM   16  S   UNL     1      -8.322   9.470  65.214  1.00  0.00    -0.148 SA 
BRANCH  16  17
HETATM   17  C   UNL     1      -7.349   8.093  65.919  1.00  0.00    -0.076 C  
BRANCH  17  18
HETATM   18  C   UNL     1      -6.802   7.102  64.899  1.00  0.00    -0.047 C  
BRANCH  18  19
HETATM   19  C   UNL     1      -7.491   5.739  64.966  1.00  0.00    -0.079 C  
HETATM   20  H2  UNL     1      -8.871   6.282  63.479  1.00  0.00     0.000 HD 
HETATM   21  N   UNL     1      -8.557   5.552  64.118  1.00  0.00    -0.318 NA 
HETATM   22  H1  UNL     1      -9.017   4.642  64.163  1.00  0.00     0.000 HD 
BRANCH  19  23
HETATM   23  N   UNL     1      -6.990   4.899  65.811  1.00  0.00    -0.062 N  
HETATM   24  H   UNL     1      -6.108   4.435  65.594  1.00  0.00     0.000 HD 
BRANCH  23  25
HETATM   25  S   UNL     1      -7.739   4.575  67.200  1.00  0.00    -0.090 S  
HETATM   26  O   UNL     1      -7.140   5.349  68.262  1.00  0.00    -0.063 OA 
HETATM   27  O   UNL     1      -7.916   3.147  67.316  1.00  0.00    -0.077 OA 
HETATM   28  N   UNL     1      -9.278   5.206  67.007  1.00  0.00    -0.115 N  
HETATM   29  H1  UNL     1      -9.752   5.001  67.887  1.00  0.00     0.000 HD 
HETATM   30  H2  UNL     1      -9.658   5.687  66.192  1.00  0.00     0.000 HD 
ENDBRANCH  23  25
ENDBRANCH  19  23
ENDBRANCH  18  19
ENDBRANCH  17  18
ENDBRANCH  16  17
ENDBRANCH  15  16
ENDBRANCH  12  15
ENDBRANCH   5  10
TORSDOF 8
ENDMDL
MODEL      344
REMARK 921   NORMALIZED FREE ENERGY PREDICTED BY IDOCK:   -2.86 KCAL/MOL
REMARK 922        TOTAL FREE ENERGY PREDICTED BY IDOCK:   -5.38 KCAL/MOL
REMARK 923 INTER-LIGAND FREE ENERGY PREDICTED BY IDOCK:   -4.13 KCAL/MOL
REMARK 924 INTRA-LIGAND FREE ENERGY PREDICTED BY IDOCK:   -1.24 KCAL/MOL
REMARK 927      BINDING AFFINITY PREDICTED BY RF-SCORE:    0.00 PKD
ROOT
HETATM    1  N   UNL     1     -12.542   7.726  72.282  1.00  0.00    -0.509 NA 
HETATM    2  C   UNL     1     -11.677   6.980  71.552  1.00  0.00    -0.300 C  
HETATM    3  H2  UNL     1     -13.267   8.332  71.899  1.00  0.00     0.000 HD 
HETATM    4  H1  UNL     1     -12.354   7.586  73.274  1.00  0.00     0.000 HD 
HETATM    5  N   UNL     1     -10.806   6.231  72.134  1.00  0.00    -0.231 NA 
HETATM    6  N   UNL     1     -11.927   7.167  70.232  1.00  0.00    -0.576 NA 
HETATM    7  H2  UNL     1     -12.652   7.773  69.849  1.00  0.00     0.000 HD 
HETATM    8  H1  UNL     1     -11.277   6.605  69.682  1.00  0.00     0.000 HD 
HETATM    9  H   UNL     1     -10.760   6.179  73.152  1.00  0.00     0.000 HD 
ENDROOT
BRANCH   5  10
HETATM   10  C   UNL     1      -9.950   5.511  71.364  1.00  0.00    -0.186 A  
HETATM   11  N   UNL     1     -10.214   4.796  70.281  1.00  0.00    -0.232 NA 
HETATM   12  C   UNL     1      -9.055   4.221  69.768  1.00  0.00    -0.117 A  
HETATM   13  S   UNL     1      -8.276   5.521  71.806  1.00  0.00    -0.120 SA 
HETATM   14  C   UNL     1      -7.912   4.493  70.493  1.00  0.00    -0.057 A  
BRANCH  12  15
HETATM   15  C   UNL     1      -9.147   3.383  68.531  1.00  0.00    -0.151 C  
BRANCH  15  16
HETATM   16  S   UNL     1      -7.482   3.044  67.859  1.00  0.00    -0.053 SA 
BRANCH  16  17
HETATM   17  C   UNL     1      -7.857   2.927  66.074  1.00  0.00    -0.081 C  
BRANCH  17  18
HETATM   18  C   UNL     1      -9.260   3.375  65.680  1.00  0.00    -0.154 C  
BRANCH  18  19
HETATM   19  C   UNL     1      -9.261   4.640  64.822  1.00  0.00    -0.131 C  
HETATM   20  H2  UNL     1      -8.594   3.584  63.135  1.00  0.00     0.000 HD 
HETATM   21  N   UNL     1      -8.870   4.490  63.513  1.00  0.00    -0.138 NA 
HETATM   22  H1  UNL     1      -8.871   5.335  62.941  1.00  0.00     0.000 HD 
BRANCH  19  23
HETATM   23  N   UNL     1      -9.642   5.721  65.420  1.00  0.00    -0.343 N  
HETATM   24  H   UNL     1     -10.636   5.886  65.575  1.00  0.00     0.000 HD 
BRANCH  23  25
HETATM   25  S   UNL     1      -8.567   6.811  65.922  1.00  0.00    -0.129 S  
HETATM   26  O   UNL     1      -7.450   6.844  65.009  1.00  0.00    -0.083 OA 
HETATM   27  O   UNL     1      -8.374   6.659  67.345  1.00  0.00    -0.120 OA 
HETATM   28  N   UNL     1      -9.339   8.285  65.728  1.00  0.00    -0.419 N  
HETATM   29  H1  UNL     1      -8.659   8.975  66.046  1.00  0.00     0.000 HD 
HETATM   30  H2  UNL     1     -10.280   8.455  65.372  1.00  0.00     0.000 HD 
ENDBRANCH  23  25
ENDBRANCH  19  23
ENDBRANCH  18  19
ENDBRANCH  17  18
ENDBRANCH  16  17
ENDBRANCH  15  16
ENDBRANCH  12  15
ENDBRANCH   5  10
TORSDOF 8
ENDMDL
MODEL      345
REMARK 921   NORMALIZED FREE ENERGY PREDICTED BY IDOCK:   -2.85 KCAL/MOL
REMARK 922        TOTAL FREE ENERGY PREDICTED BY IDOCK:   -5.36 KCAL/MOL
REMARK 923 INTER-LIGAND FREE ENERGY PREDICTED BY IDOCK:   -5.86 KCAL/MOL
REMARK 924 INTRA-LIGAND FREE ENERGY PREDICTED BY IDOCK:    0.50 KCAL/MOL
REMARK 927      BINDING AFFINITY PREDICTED BY RF-SCORE:    0.00 PKD
ROOT
HETATM    1  N   UNL     1     -10.931  17.604  68.584  1.00  0.00    -0.207 NA 
HETATM    2  C   UNL     1     -11.229  16.403  69.136  1.00  0.00    -0.275 C  
HETATM    3  H2  UNL     1     -10.648  18.436  69.101  1.00  0.00     0.000 HD 
HETATM    4  H1  UNL     1     -11.034  17.546  67.572  1.00  0.00     0.000 HD 
HETATM    5  N   UNL     1     -11.561  15.405  68.391  1.00  0.00    -0.354 NA 
HETATM    6  N   UNL     1     -11.092  16.481  70.483  1.00  0.00    -0.399 NA 
HETATM    7  H2  UNL     1     -10.809  17.313  71.000  1.00  0.00     0.000 HD 
HETATM    8  H1  UNL     1     -11.316  15.576  70.898  1.00  0.00     0.000 HD 
HETATM    9  H   UNL     1     -11.595  15.500  67.377  1.00  0.00     0.000 HD 
ENDROOT
BRANCH   5  10
HETATM   10  C   UNL     1     -11.865  14.223  68.987  1.00  0.00    -0.335 A  
HETATM   11  N   UNL     1     -11.617  12.994  68.561  1.00  0.00    -0.305 NA 
HETATM   12  C   UNL     1     -12.074  12.048  69.474  1.00  0.00    -0.212 A  
HETATM   13  S   UNL     1     -12.663  14.284  70.523  1.00  0.00    -0.278 SA 
HETATM   14  C   UNL     1     -12.694  12.579  70.587  1.00  0.00    -0.052 A  
BRANCH  12  15
HETATM   15  C   UNL     1     -11.873  10.595  69.175  1.00  0.00    -0.215 C  
BRANCH  15  16
HETATM   16  S   UNL     1     -10.506   9.916  70.180  1.00  0.00    -0.290 SA 
BRANCH  16  17
HETATM   17  C   UNL     1     -11.406   9.451  71.701  1.00  0.00    -0.382 C  
BRANCH  17  18
HETATM   18  C   UNL     1     -12.549   8.464  71.497  1.00  0.00    -0.334 C  
BRANCH  18  19
HETATM   19  C   UNL     1     -12.066   7.025  71.311  1.00  0.00    -0.361 C  
HETATM   20  H2  UNL     1     -11.918   7.269  69.230  1.00  0.00     0.000 HD 
HETATM   21  N   UNL     1     -11.800   6.634  70.020  1.00  0.00    -0.638 NA 
HETATM   22  H1  UNL     1     -11.478   5.674  69.895  1.00  0.00     0.000 HD 
BRANCH  19  23
HETATM   23  N   UNL     1     -11.950   6.329  72.393  1.00  0.00    -0.506 N  
HETATM   24  H   UNL     1     -12.644   6.431  73.133  1.00  0.00     0.000 HD 
BRANCH  23  25
HETATM   25  S   UNL     1     -10.724   5.302  72.588  1.00  0.00    -0.252 S  
HETATM   26  O   UNL     1      -9.802   5.435  71.485  1.00  0.00    -0.158 OA 
HETATM   27  O   UNL     1     -11.248   4.015  72.982  1.00  0.00    -0.135 OA 
HETATM   28  N   UNL     1      -9.898   5.879  73.926  1.00  0.00    -0.173 N  
HETATM   29  H1  UNL     1      -9.123   5.229  74.050  1.00  0.00     0.000 HD 
HETATM   30  H2  UNL     1     -10.121   6.698  74.492  1.00  0.00     0.000 HD 
ENDBRANCH  23  25
ENDBRANCH  19  23
ENDBRANCH  18  19
ENDBRANCH  17  18
ENDBRANCH  16  17
ENDBRANCH  15  16
ENDBRANCH  12  15
ENDBRANCH   5  10
TORSDOF 8
ENDMDL
MODEL      346
REMARK 921   NORMALIZED FREE ENERGY PREDICTED BY IDOCK:   -2.84 KCAL/MOL
REMARK 922        TOTAL FREE ENERGY PREDICTED BY IDOCK:   -5.35 KCAL/MOL
REMARK 923 INTER-LIGAND FREE ENERGY PREDICTED BY IDOCK:   -3.64 KCAL/MOL
REMARK 924 INTRA-LIGAND FREE ENERGY PREDICTED BY IDOCK:   -1.71 KCAL/MOL
REMARK 927      BINDING AFFINITY PREDICTED BY RF-SCORE:    0.00 PKD
ROOT
HETATM    1  N   UNL     1      -5.494   9.854  70.952  1.00  0.00    -0.066 NA 
HETATM    2  C   UNL     1      -6.574   9.118  71.309  1.00  0.00    -0.080 C  
HETATM    3  H2  UNL     1      -5.453  10.493  70.158  1.00  0.00     0.000 HD 
HETATM    4  H1  UNL     1      -4.730   9.669  71.600  1.00  0.00     0.000 HD 
HETATM    5  N   UNL     1      -6.530   8.350  72.343  1.00  0.00    -0.079 NA 
HETATM    6  N   UNL     1      -7.592   9.364  70.446  1.00  0.00    -0.129 NA 
HETATM    7  H2  UNL     1      -7.550  10.003  69.653  1.00  0.00     0.000 HD 
HETATM    8  H1  UNL     1      -8.405   8.810  70.716  1.00  0.00     0.000 HD 
HETATM    9  H   UNL     1      -5.686   8.292  72.914  1.00  0.00     0.000 HD 
ENDROOT
BRANCH   5  10
HETATM   10  C   UNL     1      -7.631   7.619  72.657  1.00  0.00    -0.092 A  
HETATM   11  N   UNL     1      -8.290   6.753  71.903  1.00  0.00    -0.109 NA 
HETATM   12  C   UNL     1      -9.359   6.197  72.602  1.00  0.00    -0.146 A  
HETATM   13  S   UNL     1      -8.277   7.794  74.254  1.00  0.00    -0.244 SA 
HETATM   14  C   UNL     1      -9.511   6.674  73.888  1.00  0.00    -0.189 A  
BRANCH  12  15
HETATM   15  C   UNL     1     -10.221   5.181  71.920  1.00  0.00    -0.209 C  
BRANCH  15  16
HETATM   16  S   UNL     1     -10.020   5.279  70.106  1.00  0.00    -0.265 SA 
BRANCH  16  17
HETATM   17  C   UNL     1     -11.256   6.562  69.700  1.00  0.00    -0.384 C  
BRANCH  17  18
HETATM   18  C   UNL     1     -10.678   7.936  69.380  1.00  0.00    -0.174 C  
BRANCH  18  19
HETATM   19  C   UNL     1     -10.177   8.050  67.940  1.00  0.00    -0.212 C  
HETATM   20  H2  UNL     1     -11.921   7.154  67.187  1.00  0.00     0.000 HD 
HETATM   21  N   UNL     1     -11.015   7.567  66.964  1.00  0.00    -0.532 NA 
HETATM   22  H1  UNL     1     -10.681   7.643  66.003  1.00  0.00     0.000 HD 
BRANCH  19  23
HETATM   23  N   UNL     1      -9.018   8.601  67.793  1.00  0.00    -0.136 N  
HETATM   24  H   UNL     1      -8.204   8.188  68.247  1.00  0.00     0.000 HD 
BRANCH  23  25
HETATM   25  S   UNL     1      -8.841   9.932  66.902  1.00  0.00    -0.135 S  
HETATM   26  O   UNL     1      -8.991   9.600  65.505  1.00  0.00    -0.158 OA 
HETATM   27  O   UNL     1      -7.697  10.670  67.382  1.00  0.00    -0.103 OA 
HETATM   28  N   UNL     1     -10.174  10.873  67.278  1.00  0.00    -0.197 N  
HETATM   29  H1  UNL     1     -10.062  11.715  66.714  1.00  0.00     0.000 HD 
HETATM   30  H2  UNL     1     -10.930  10.653  67.927  1.00  0.00     0.000 HD 
ENDBRANCH  23  25
ENDBRANCH  19  23
ENDBRANCH  18  19
ENDBRANCH  17  18
ENDBRANCH  16  17
ENDBRANCH  15  16
ENDBRANCH  12  15
ENDBRANCH   5  10
TORSDOF 8
ENDMDL
MODEL      347
REMARK 921   NORMALIZED FREE ENERGY PREDICTED BY IDOCK:   -2.84 KCAL/MOL
REMARK 922        TOTAL FREE ENERGY PREDICTED BY IDOCK:   -5.34 KCAL/MOL
REMARK 923 INTER-LIGAND FREE ENERGY PREDICTED BY IDOCK:   -5.27 KCAL/MOL
REMARK 924 INTRA-LIGAND FREE ENERGY PREDICTED BY IDOCK:   -0.07 KCAL/MOL
REMARK 927      BINDING AFFINITY PREDICTED BY RF-SCORE:    0.00 PKD
ROOT
HETATM    1  N   UNL     1     -12.484  14.690  67.893  1.00  0.00    -0.457 NA 
HETATM    2  C   UNL     1     -11.460  13.811  67.770  1.00  0.00    -0.322 C  
HETATM    3  H2  UNL     1     -13.393  14.482  68.306  1.00  0.00     0.000 HD 
HETATM    4  H1  UNL     1     -12.203  15.591  67.510  1.00  0.00     0.000 HD 
HETATM    5  N   UNL     1     -10.341  14.179  67.248  1.00  0.00    -0.266 NA 
HETATM    6  N   UNL     1     -11.834  12.611  68.280  1.00  0.00    -0.328 NA 
HETATM    7  H2  UNL     1     -12.743  12.403  68.693  1.00  0.00     0.000 HD 
HETATM    8  H1  UNL     1     -11.063  11.949  68.188  1.00  0.00     0.000 HD 
HETATM    9  H   UNL     1     -10.205  15.138  66.929  1.00  0.00     0.000 HD 
ENDROOT
BRANCH   5  10
HETATM   10  C   UNL     1      -9.346  13.262  67.131  1.00  0.00    -0.240 A  
HETATM   11  N   UNL     1      -9.379  12.078  66.538  1.00  0.00    -0.219 NA 
HETATM   12  C   UNL     1      -8.141  11.445  66.620  1.00  0.00    -0.155 A  
HETATM   13  S   UNL     1      -7.805  13.662  67.812  1.00  0.00    -0.189 SA 
HETATM   14  C   UNL     1      -7.178  12.158  67.305  1.00  0.00    -0.144 A  
BRANCH  12  15
HETATM   15  C   UNL     1      -7.974  10.096  65.994  1.00  0.00    -0.124 C  
BRANCH  15  16
HETATM   16  S   UNL     1      -9.586   9.248  65.851  1.00  0.00    -0.268 SA 
BRANCH  16  17
HETATM   17  C   UNL     1      -9.489   8.099  67.268  1.00  0.00    -0.155 C  
BRANCH  17  18
HETATM   18  C   UNL     1     -10.120   8.611  68.558  1.00  0.00    -0.211 C  
BRANCH  18  19
HETATM   19  C   UNL     1     -11.045   7.587  69.215  1.00  0.00     0.050 C  
HETATM   20  H2  UNL     1     -10.983   6.340  67.526  1.00  0.00     0.000 HD 
HETATM   21  N   UNL     1     -11.352   6.475  68.467  1.00  0.00    -0.578 NA 
HETATM   22  H1  UNL     1     -11.970   5.791  68.905  1.00  0.00     0.000 HD 
BRANCH  19  23
HETATM   23  N   UNL     1     -11.435   7.872  70.413  1.00  0.00    -0.433 N  
HETATM   24  H   UNL     1     -11.649   7.117  71.065  1.00  0.00     0.000 HD 
BRANCH  23  25
HETATM   25  S   UNL     1     -11.588   9.402  70.892  1.00  0.00    -0.332 S  
HETATM   26  O   UNL     1     -10.368  10.120  70.610  1.00  0.00    -0.185 OA 
HETATM   27  O   UNL     1     -12.190   9.426  72.204  1.00  0.00    -0.343 OA 
HETATM   28  N   UNL     1     -12.734  10.056  69.860  1.00  0.00    -0.370 N  
HETATM   29  H1  UNL     1     -12.830  11.024  70.163  1.00  0.00     0.000 HD 
HETATM   30  H2  UNL     1     -13.226   9.589  69.098  1.00  0.00     0.000 HD 
ENDBRANCH  23  25
ENDBRANCH  19  23
ENDBRANCH  18  19
ENDBRANCH  17  18
ENDBRANCH  16  17
ENDBRANCH  15  16
ENDBRANCH  12  15
ENDBRANCH   5  10
TORSDOF 8
ENDMDL
MODEL      348
REMARK 921   NORMALIZED FREE ENERGY PREDICTED BY IDOCK:   -2.81 KCAL/MOL
REMARK 922        TOTAL FREE ENERGY PREDICTED BY IDOCK:   -5.30 KCAL/MOL
REMARK 923 INTER-LIGAND FREE ENERGY PREDICTED BY IDOCK:   -4.46 KCAL/MOL
REMARK 924 INTRA-LIGAND FREE ENERGY PREDICTED BY IDOCK:   -0.84 KCAL/MOL
REMARK 927      BINDING AFFINITY PREDICTED BY RF-SCORE:    0.00 PKD
ROOT
HETATM    1  N   UNL     1      -7.669   8.886  74.565  1.00  0.00    -0.365 NA 
HETATM    2  C   UNL     1      -8.100   8.406  73.373  1.00  0.00    -0.103 C  
HETATM    3  H2  UNL     1      -8.084   8.671  75.472  1.00  0.00     0.000 HD 
HETATM    4  H1  UNL     1      -6.866   9.494  74.413  1.00  0.00     0.000 HD 
HETATM    5  N   UNL     1      -7.495   8.724  72.282  1.00  0.00    -0.335 NA 
HETATM    6  N   UNL     1      -9.170   7.596  73.575  1.00  0.00    -0.251 NA 
HETATM    7  H2  UNL     1      -9.585   7.382  74.482  1.00  0.00     0.000 HD 
HETATM    8  H1  UNL     1      -9.494   7.235  72.678  1.00  0.00     0.000 HD 
HETATM    9  H   UNL     1      -6.677   9.333  72.298  1.00  0.00     0.000 HD 
ENDROOT
BRANCH   5  10
HETATM   10  C   UNL     1      -7.969   8.232  71.108  1.00  0.00    -0.102 A  
HETATM   11  N   UNL     1      -9.178   8.365  70.584  1.00  0.00    -0.151 NA 
HETATM   12  C   UNL     1      -9.260   7.723  69.352  1.00  0.00    -0.149 A  
HETATM   13  S   UNL     1      -6.873   7.323  70.122  1.00  0.00    -0.060 SA 
HETATM   14  C   UNL     1      -8.101   7.082  68.962  1.00  0.00    -0.121 A  
BRANCH  12  15
HETATM   15  C   UNL     1     -10.550   7.772  68.593  1.00  0.00    -0.120 C  
BRANCH  15  16
HETATM   16  S   UNL     1     -10.240   7.693  66.793  1.00  0.00    -0.226 SA 
BRANCH  16  17
HETATM   17  C   UNL     1      -9.762   9.424  66.458  1.00  0.00    -0.236 C  
BRANCH  17  18
HETATM   18  C   UNL     1     -10.844  10.278  65.809  1.00  0.00     0.188 C  
BRANCH  18  19
HETATM   19  C   UNL     1     -10.600  11.778  65.977  1.00  0.00    -0.260 C  
HETATM   20  H2  UNL     1      -8.952  11.441  67.235  1.00  0.00     0.000 HD 
HETATM   21  N   UNL     1      -9.542  12.137  66.778  1.00  0.00    -0.206 NA 
HETATM   22  H1  UNL     1      -9.379  13.138  66.892  1.00  0.00     0.000 HD 
BRANCH  19  23
HETATM   23  N   UNL     1     -11.412  12.553  65.338  1.00  0.00    -0.329 N  
HETATM   24  H   UNL     1     -12.418  12.438  65.461  1.00  0.00     0.000 HD 
BRANCH  23  25
HETATM   25  S   UNL     1     -10.859  13.698  64.350  1.00  0.00    -0.288 S  
HETATM   26  O   UNL     1     -10.172  13.085  63.238  1.00  0.00     0.105 OA 
HETATM   27  O   UNL     1     -10.240  14.739  65.137  1.00  0.00    -0.381 OA 
HETATM   28  N   UNL     1     -12.235  14.390  63.692  1.00  0.00    -1.068 N  
HETATM   29  H1  UNL     1     -11.884  15.115  63.066  1.00  0.00     0.000 HD 
HETATM   30  H2  UNL     1     -13.207  14.142  63.876  1.00  0.00     0.000 HD 
ENDBRANCH  23  25
ENDBRANCH  19  23
ENDBRANCH  18  19
ENDBRANCH  17  18
ENDBRANCH  16  17
ENDBRANCH  15  16
ENDBRANCH  12  15
ENDBRANCH   5  10
TORSDOF 8
ENDMDL
MODEL      349
REMARK 921   NORMALIZED FREE ENERGY PREDICTED BY IDOCK:   -2.80 KCAL/MOL
REMARK 922        TOTAL FREE ENERGY PREDICTED BY IDOCK:   -5.28 KCAL/MOL
REMARK 923 INTER-LIGAND FREE ENERGY PREDICTED BY IDOCK:   -5.10 KCAL/MOL
REMARK 924 INTRA-LIGAND FREE ENERGY PREDICTED BY IDOCK:   -0.18 KCAL/MOL
REMARK 927      BINDING AFFINITY PREDICTED BY RF-SCORE:    0.00 PKD
ROOT
HETATM    1  N   UNL     1     -13.853  15.577  72.238  1.00  0.00    -0.522 NA 
HETATM    2  C   UNL     1     -12.730  15.550  71.481  1.00  0.00    -0.434 C  
HETATM    3  H2  UNL     1     -13.889  15.434  73.247  1.00  0.00     0.000 HD 
HETATM    4  H1  UNL     1     -14.658  15.764  71.641  1.00  0.00     0.000 HD 
HETATM    5  N   UNL     1     -12.789  15.761  70.212  1.00  0.00    -0.653 NA 
HETATM    6  N   UNL     1     -11.658  15.301  72.276  1.00  0.00    -0.449 NA 
HETATM    7  H2  UNL     1     -11.694  15.157  73.285  1.00  0.00     0.000 HD 
HETATM    8  H1  UNL     1     -10.812  15.280  71.707  1.00  0.00     0.000 HD 
HETATM    9  H   UNL     1     -13.681  15.963  69.759  1.00  0.00     0.000 HD 
ENDROOT
BRANCH   5  10
HETATM   10  C   UNL     1     -11.640  15.711  69.490  1.00  0.00    -0.357 A  
HETATM   11  N   UNL     1     -10.404  15.505  69.917  1.00  0.00    -0.304 NA 
HETATM   12  C   UNL     1      -9.502  15.508  68.856  1.00  0.00    -0.223 A  
HETATM   13  S   UNL     1     -11.765  15.911  67.774  1.00  0.00     0.232 SA 
HETATM   14  C   UNL     1     -10.074  15.742  67.621  1.00  0.00    -0.247 A  
BRANCH  12  15
HETATM   15  C   UNL     1      -8.051  15.278  69.137  1.00  0.00    -0.228 C  
BRANCH  15  16
HETATM   16  S   UNL     1      -7.652  13.497  69.043  1.00  0.00     0.167 SA 
BRANCH  16  17
HETATM   17  C   UNL     1      -9.139  12.864  68.192  1.00  0.00    -0.207 C  
BRANCH  17  18
HETATM   18  C   UNL     1      -8.870  12.135  66.880  1.00  0.00    -0.202 C  
BRANCH  18  19
HETATM   19  C   UNL     1      -9.759  10.907  66.689  1.00  0.00    -0.189 C  
HETATM   20  H2  UNL     1      -9.817  11.184  64.608  1.00  0.00     0.000 HD 
HETATM   21  N   UNL     1     -10.123  10.613  65.397  1.00  0.00    -0.280 NA 
HETATM   22  H1  UNL     1     -10.717   9.794  65.269  1.00  0.00     0.000 HD 
BRANCH  19  23
HETATM   23  N   UNL     1     -10.068  10.266  67.767  1.00  0.00    -0.172 N  
HETATM   24  H   UNL     1     -10.460  10.774  68.560  1.00  0.00     0.000 HD 
BRANCH  23  25
HETATM   25  S   UNL     1      -9.843   8.674  67.877  1.00  0.00    -0.183 S  
HETATM   26  O   UNL     1      -8.552   8.409  68.467  1.00  0.00    -0.134 OA 
HETATM   27  O   UNL     1     -10.246   8.056  66.637  1.00  0.00    -0.285 OA 
HETATM   28  N   UNL     1     -10.962   8.167  69.016  1.00  0.00    -0.428 N  
HETATM   29  H1  UNL     1     -10.819   7.160  69.086  1.00  0.00     0.000 HD 
HETATM   30  H2  UNL     1     -11.636   8.738  69.527  1.00  0.00     0.000 HD 
ENDBRANCH  23  25
ENDBRANCH  19  23
ENDBRANCH  18  19
ENDBRANCH  17  18
ENDBRANCH  16  17
ENDBRANCH  15  16
ENDBRANCH  12  15
ENDBRANCH   5  10
TORSDOF 8
ENDMDL
MODEL      350
REMARK 921   NORMALIZED FREE ENERGY PREDICTED BY IDOCK:   -2.77 KCAL/MOL
REMARK 922        TOTAL FREE ENERGY PREDICTED BY IDOCK:   -5.24 KCAL/MOL
REMARK 923 INTER-LIGAND FREE ENERGY PREDICTED BY IDOCK:   -4.29 KCAL/MOL
REMARK 924 INTRA-LIGAND FREE ENERGY PREDICTED BY IDOCK:   -0.95 KCAL/MOL
REMARK 927      BINDING AFFINITY PREDICTED BY RF-SCORE:    0.00 PKD
ROOT
HETATM    1  N   UNL     1     -11.172  17.151  64.491  1.00  0.00    -1.012 NA 
HETATM    2  C   UNL     1     -10.801  16.216  65.400  1.00  0.00    -0.307 C  
HETATM    3  H2  UNL     1     -10.578  17.903  64.144  1.00  0.00     0.000 HD 
HETATM    4  H1  UNL     1     -12.137  16.983  64.209  1.00  0.00     0.000 HD 
HETATM    5  N   UNL     1     -11.623  15.292  65.761  1.00  0.00    -0.109 NA 
HETATM    6  N   UNL     1      -9.517  16.439  65.776  1.00  0.00    -0.499 NA 
HETATM    7  H2  UNL     1      -8.923  17.192  65.429  1.00  0.00     0.000 HD 
HETATM    8  H1  UNL     1      -9.238  15.736  66.460  1.00  0.00     0.000 HD 
HETATM    9  H   UNL     1     -12.561  15.244  65.363  1.00  0.00     0.000 HD 
ENDROOT
BRANCH   5  10
HETATM   10  C   UNL     1     -11.215  14.385  66.685  1.00  0.00    -0.339 A  
HETATM   11  N   UNL     1     -10.272  13.461  66.577  1.00  0.00    -0.276 NA 
HETATM   12  C   UNL     1     -10.143  12.738  67.759  1.00  0.00    -0.224 A  
HETATM   13  S   UNL     1     -11.986  14.419  68.236  1.00  0.00    -0.239 SA 
HETATM   14  C   UNL     1     -11.020  13.113  68.757  1.00  0.00    -0.262 A  
BRANCH  12  15
HETATM   15  C   UNL     1      -9.115  11.654  67.838  1.00  0.00    -0.171 C  
BRANCH  15  16
HETATM   16  S   UNL     1      -7.433  12.366  67.904  1.00  0.00    -0.135 SA 
BRANCH  16  17
HETATM   17  C   UNL     1      -6.495  11.098  66.981  1.00  0.00    -0.107 C  
BRANCH  17  18
HETATM   18  C   UNL     1      -7.118   9.707  66.981  1.00  0.00    -0.086 C  
BRANCH  18  19
HETATM   19  C   UNL     1      -7.326   9.148  65.574  1.00  0.00    -0.089 C  
HETATM   20  H2  UNL     1      -6.597  10.908  64.689  1.00  0.00     0.000 HD 
HETATM   21  N   UNL     1      -6.975   9.973  64.532  1.00  0.00    -0.134 NA 
HETATM   22  H1  UNL     1      -7.114   9.601  63.593  1.00  0.00     0.000 HD 
BRANCH  19  23
HETATM   23  N   UNL     1      -7.802   7.949  65.512  1.00  0.00    -0.105 N  
HETATM   24  H   UNL     1      -8.727   7.755  65.895  1.00  0.00     0.000 HD 
BRANCH  23  25
HETATM   25  S   UNL     1      -6.955   6.755  64.839  1.00  0.00    -0.057 S  
HETATM   26  O   UNL     1      -6.538   7.147  63.514  1.00  0.00    -0.043 OA 
HETATM   27  O   UNL     1      -7.637   5.504  65.075  1.00  0.00    -0.075 OA 
HETATM   28  N   UNL     1      -5.546   6.675  65.741  1.00  0.00    -0.021 N  
HETATM   29  H1  UNL     1      -5.010   5.920  65.315  1.00  0.00     0.000 HD 
HETATM   30  H2  UNL     1      -5.282   7.254  66.539  1.00  0.00     0.000 HD 
ENDBRANCH  23  25
ENDBRANCH  19  23
ENDBRANCH  18  19
ENDBRANCH  17  18
ENDBRANCH  16  17
ENDBRANCH  15  16
ENDBRANCH  12  15
ENDBRANCH   5  10
TORSDOF 8
ENDMDL
MODEL      351
REMARK 921   NORMALIZED FREE ENERGY PREDICTED BY IDOCK:   -2.75 KCAL/MOL
REMARK 922        TOTAL FREE ENERGY PREDICTED BY IDOCK:   -5.21 KCAL/MOL
REMARK 923 INTER-LIGAND FREE ENERGY PREDICTED BY IDOCK:   -4.03 KCAL/MOL
REMARK 924 INTRA-LIGAND FREE ENERGY PREDICTED BY IDOCK:   -1.18 KCAL/MOL
REMARK 927      BINDING AFFINITY PREDICTED BY RF-SCORE:    0.00 PKD
ROOT
HETATM    1  N   UNL     1      -5.451  14.257  69.569  1.00  0.00    -0.090 NA 
HETATM    2  C   UNL     1      -6.591  14.530  68.889  1.00  0.00    -0.095 C  
HETATM    3  H2  UNL     1      -5.405  13.848  70.502  1.00  0.00     0.000 HD 
HETATM    4  H1  UNL     1      -4.648  14.525  69.002  1.00  0.00     0.000 HD 
HETATM    5  N   UNL     1      -6.542  15.032  67.704  1.00  0.00    -0.171 NA 
HETATM    6  N   UNL     1      -7.661  14.175  69.644  1.00  0.00    -0.312 NA 
HETATM    7  H2  UNL     1      -7.615  13.766  70.577  1.00  0.00     0.000 HD 
HETATM    8  H1  UNL     1      -8.519  14.379  69.132  1.00  0.00     0.000 HD 
HETATM    9  H   UNL     1      -5.646  15.223  67.255  1.00  0.00     0.000 HD 
ENDROOT
BRANCH   5  10
HETATM   10  C   UNL     1      -7.709  15.302  67.064  1.00  0.00    -0.157 A  
HETATM   11  N   UNL     1      -8.764  14.519  66.903  1.00  0.00    -0.227 NA 
HETATM   12  C   UNL     1      -9.771  15.176  66.200  1.00  0.00    -0.310 A  
HETATM   13  S   UNL     1      -7.895  16.880  66.373  1.00  0.00    -0.317 SA 
HETATM   14  C   UNL     1      -9.452  16.462  65.813  1.00  0.00    -0.156 A  
BRANCH  12  15
HETATM   15  C   UNL     1     -11.055  14.456  65.929  1.00  0.00    -0.319 C  
BRANCH  15  16
HETATM   16  S   UNL     1     -11.672  13.648  67.447  1.00  0.00    -0.396 SA 
BRANCH  16  17
HETATM   17  C   UNL     1     -11.657  11.897  66.926  1.00  0.00    -0.285 C  
BRANCH  17  18
HETATM   18  C   UNL     1     -10.619  11.026  67.625  1.00  0.00    -0.255 C  
BRANCH  18  19
HETATM   19  C   UNL     1      -9.589  10.439  66.660  1.00  0.00    -0.177 C  
HETATM   20  H2  UNL     1     -10.530  11.323  65.004  1.00  0.00     0.000 HD 
HETATM   21  N   UNL     1      -9.759  10.740  65.330  1.00  0.00    -0.235 NA 
HETATM   22  H1  UNL     1      -9.072  10.347  64.685  1.00  0.00     0.000 HD 
BRANCH  19  23
HETATM   23  N   UNL     1      -8.657   9.726  67.201  1.00  0.00    -0.128 N  
HETATM   24  H   UNL     1      -8.492   9.794  68.206  1.00  0.00     0.000 HD 
BRANCH  23  25
HETATM   25  S   UNL     1      -7.752   8.733  66.312  1.00  0.00    -0.099 S  
HETATM   26  O   UNL     1      -6.642   9.465  65.750  1.00  0.00    -0.070 OA 
HETATM   27  O   UNL     1      -8.616   7.923  65.487  1.00  0.00    -0.149 OA 
HETATM   28  N   UNL     1      -7.070   7.677  67.420  1.00  0.00    -0.083 N  
HETATM   29  H1  UNL     1      -6.498   7.049  66.857  1.00  0.00     0.000 HD 
HETATM   30  H2  UNL     1      -7.199   7.666  68.432  1.00  0.00     0.000 HD 
ENDBRANCH  23  25
ENDBRANCH  19  23
ENDBRANCH  18  19
ENDBRANCH  17  18
ENDBRANCH  16  17
ENDBRANCH  15  16
ENDBRANCH  12  15
ENDBRANCH   5  10
TORSDOF 8
ENDMDL
MODEL      352
REMARK 921   NORMALIZED FREE ENERGY PREDICTED BY IDOCK:   -2.75 KCAL/MOL
REMARK 922        TOTAL FREE ENERGY PREDICTED BY IDOCK:   -5.21 KCAL/MOL
REMARK 923 INTER-LIGAND FREE ENERGY PREDICTED BY IDOCK:   -4.16 KCAL/MOL
REMARK 924 INTRA-LIGAND FREE ENERGY PREDICTED BY IDOCK:   -1.05 KCAL/MOL
REMARK 927      BINDING AFFINITY PREDICTED BY RF-SCORE:    0.00 PKD
ROOT
HETATM    1  N   UNL     1      -8.143   3.162  71.742  1.00  0.00    -0.058 NA 
HETATM    2  C   UNL     1      -8.894   4.276  71.567  1.00  0.00    -0.114 C  
HETATM    3  H2  UNL     1      -8.187   2.324  71.162  1.00  0.00     0.000 HD 
HETATM    4  H1  UNL     1      -7.528   3.292  72.545  1.00  0.00     0.000 HD 
HETATM    5  N   UNL     1      -8.750   5.292  72.347  1.00  0.00    -0.124 NA 
HETATM    6  N   UNL     1      -9.713   4.103  70.499  1.00  0.00    -0.195 NA 
HETATM    7  H2  UNL     1      -9.756   3.266  69.919  1.00  0.00     0.000 HD 
HETATM    8  H1  UNL     1     -10.277   4.943  70.367  1.00  0.00     0.000 HD 
HETATM    9  H   UNL     1      -8.064   5.277  73.101  1.00  0.00     0.000 HD 
ENDROOT
BRANCH   5  10
HETATM   10  C   UNL     1      -9.533   6.383  72.144  1.00  0.00    -0.149 A  
HETATM   11  N   UNL     1      -9.598   7.166  71.078  1.00  0.00    -0.159 NA 
HETATM   12  C   UNL     1     -10.544   8.172  71.256  1.00  0.00    -0.214 A  
HETATM   13  S   UNL     1     -10.625   6.831  73.411  1.00  0.00    -0.326 SA 
HETATM   14  C   UNL     1     -11.177   8.152  72.483  1.00  0.00    -0.391 A  
BRANCH  12  15
HETATM   15  C   UNL     1     -10.774   9.155  70.151  1.00  0.00    -0.233 C  
BRANCH  15  16
HETATM   16  S   UNL     1     -10.396   8.401  68.530  1.00  0.00    -0.173 SA 
BRANCH  16  17
HETATM   17  C   UNL     1      -9.805   9.864  67.608  1.00  0.00    -0.163 C  
BRANCH  17  18
HETATM   18  C   UNL     1     -10.850  10.951  67.386  1.00  0.00    -0.333 C  
BRANCH  18  19
HETATM   19  C   UNL     1     -10.258  12.360  67.418  1.00  0.00    -0.208 C  
HETATM   20  H2  UNL     1     -11.932  13.118  68.434  1.00  0.00     0.000 HD 
HETATM   21  N   UNL     1     -11.021  13.328  68.026  1.00  0.00    -0.237 NA 
HETATM   22  H1  UNL     1     -10.626  14.269  68.047  1.00  0.00     0.000 HD 
BRANCH  19  23
HETATM   23  N   UNL     1      -9.093  12.490  66.875  1.00  0.00    -0.209 N  
HETATM   24  H   UNL     1      -8.821  11.868  66.114  1.00  0.00     0.000 HD 
BRANCH  23  25
HETATM   25  S   UNL     1      -8.064  13.621  67.383  1.00  0.00    -0.151 S  
HETATM   26  O   UNL     1      -8.521  14.920  66.947  1.00  0.00    -0.228 OA 
HETATM   27  O   UNL     1      -6.714  13.175  67.134  1.00  0.00    -0.152 OA 
HETATM   28  N   UNL     1      -8.234  13.630  69.049  1.00  0.00    -0.339 N  
HETATM   29  H1  UNL     1      -7.584  14.346  69.370  1.00  0.00     0.000 HD 
HETATM   30  H2  UNL     1      -8.852  13.048  69.616  1.00  0.00     0.000 HD 
ENDBRANCH  23  25
ENDBRANCH  19  23
ENDBRANCH  18  19
ENDBRANCH  17  18
ENDBRANCH  16  17
ENDBRANCH  15  16
ENDBRANCH  12  15
ENDBRANCH   5  10
TORSDOF 8
ENDMDL
MODEL      353
REMARK 921   NORMALIZED FREE ENERGY PREDICTED BY IDOCK:   -2.68 KCAL/MOL
REMARK 922        TOTAL FREE ENERGY PREDICTED BY IDOCK:   -5.12 KCAL/MOL
REMARK 923 INTER-LIGAND FREE ENERGY PREDICTED BY IDOCK:   -4.10 KCAL/MOL
REMARK 924 INTRA-LIGAND FREE ENERGY PREDICTED BY IDOCK:   -1.01 KCAL/MOL
REMARK 927      BINDING AFFINITY PREDICTED BY RF-SCORE:    0.00 PKD
ROOT
HETATM    1  N   UNL     1     -12.333  14.483  67.789  1.00  0.00    -0.595 NA 
HETATM    2  C   UNL     1     -11.331  13.713  68.279  1.00  0.00    -0.289 C  
HETATM    3  H2  UNL     1     -13.100  14.872  68.337  1.00  0.00     0.000 HD 
HETATM    4  H1  UNL     1     -12.199  14.613  66.787  1.00  0.00     0.000 HD 
HETATM    5  N   UNL     1     -10.396  13.284  67.504  1.00  0.00    -0.228 NA 
HETATM    6  N   UNL     1     -11.508  13.541  69.613  1.00  0.00    -0.419 NA 
HETATM    7  H2  UNL     1     -12.275  13.929  70.161  1.00  0.00     0.000 HD 
HETATM    8  H1  UNL     1     -10.754  12.962  69.983  1.00  0.00     0.000 HD 
HETATM    9  H   UNL     1     -10.388  13.525  66.513  1.00  0.00     0.000 HD 
ENDROOT
BRANCH   5  10
HETATM   10  C   UNL     1      -9.419  12.504  68.035  1.00  0.00    -0.209 A  
HETATM   11  N   UNL     1      -9.542  11.450  68.828  1.00  0.00    -0.169 NA 
HETATM   12  C   UNL     1      -8.296  10.913  69.140  1.00  0.00    -0.069 A  
HETATM   13  S   UNL     1      -7.780  12.888  67.628  1.00  0.00    -0.175 SA 
HETATM   14  C   UNL     1      -7.226  11.591  68.590  1.00  0.00    -0.102 A  
BRANCH  12  15
HETATM   15  C   UNL     1      -8.227   9.703  70.018  1.00  0.00    -0.184 C  
BRANCH  15  16
HETATM   16  S   UNL     1      -6.897   8.580  69.462  1.00  0.00    -0.045 SA 
BRANCH  16  17
HETATM   17  C   UNL     1      -7.242   7.113  70.495  1.00  0.00    -0.067 C  
BRANCH  17  18
HETATM   18  C   UNL     1      -8.432   6.273  70.046  1.00  0.00    -0.134 C  
BRANCH  18  19
HETATM   19  C   UNL     1      -9.567   6.255  71.069  1.00  0.00    -0.175 C  
HETATM   20  H2  UNL     1     -10.925   7.061  69.684  1.00  0.00     0.000 HD 
HETATM   21  N   UNL     1     -10.785   6.721  70.636  1.00  0.00    -0.227 NA 
HETATM   22  H1  UNL     1     -11.543   6.709  71.319  1.00  0.00     0.000 HD 
BRANCH  19  23
HETATM   23  N   UNL     1      -9.262   5.791  72.236  1.00  0.00    -0.145 N  
HETATM   24  H   UNL     1      -8.830   4.871  72.313  1.00  0.00     0.000 HD 
BRANCH  23  25
HETATM   25  S   UNL     1      -9.555   6.647  73.569  1.00  0.00    -0.191 S  
HETATM   26  O   UNL     1     -10.397   5.882  74.458  1.00  0.00    -0.276 OA 
HETATM   27  O   UNL     1      -9.887   8.001  73.194  1.00  0.00    -0.285 OA 
HETATM   28  N   UNL     1      -8.072   6.746  74.342  1.00  0.00    -0.120 N  
HETATM   29  H1  UNL     1      -8.258   7.287  75.186  1.00  0.00     0.000 HD 
HETATM   30  H2  UNL     1      -7.182   6.352  74.037  1.00  0.00     0.000 HD 
ENDBRANCH  23  25
ENDBRANCH  19  23
ENDBRANCH  18  19
ENDBRANCH  17  18
ENDBRANCH  16  17
ENDBRANCH  15  16
ENDBRANCH  12  15
ENDBRANCH   5  10
TORSDOF 8
ENDMDL
MODEL      354
REMARK 921   NORMALIZED FREE ENERGY PREDICTED BY IDOCK:   -2.67 KCAL/MOL
REMARK 922        TOTAL FREE ENERGY PREDICTED BY IDOCK:   -5.09 KCAL/MOL
REMARK 923 INTER-LIGAND FREE ENERGY PREDICTED BY IDOCK:   -4.21 KCAL/MOL
REMARK 924 INTRA-LIGAND FREE ENERGY PREDICTED BY IDOCK:   -0.89 KCAL/MOL
REMARK 927      BINDING AFFINITY PREDICTED BY RF-SCORE:    0.00 PKD
ROOT
HETATM    1  N   UNL     1     -10.665  17.632  67.132  1.00  0.00    -0.262 NA 
HETATM    2  C   UNL     1     -10.421  16.299  67.171  1.00  0.00    -0.297 C  
HETATM    3  H2  UNL     1     -10.108  18.347  67.600  1.00  0.00     0.000 HD 
HETATM    4  H1  UNL     1     -11.490  17.807  66.560  1.00  0.00     0.000 HD 
HETATM    5  N   UNL     1     -11.176  15.476  66.528  1.00  0.00    -0.182 NA 
HETATM    6  N   UNL     1      -9.323  16.065  67.932  1.00  0.00    -0.207 NA 
HETATM    7  H2  UNL     1      -8.766  16.780  68.400  1.00  0.00     0.000 HD 
HETATM    8  H1  UNL     1      -9.139  15.062  67.962  1.00  0.00     0.000 HD 
HETATM    9  H   UNL     1     -11.961  15.815  65.972  1.00  0.00     0.000 HD 
ENDROOT
BRANCH   5  10
HETATM   10  C   UNL     1     -10.904  14.148  66.607  1.00  0.00    -0.299 A  
HETATM   11  N   UNL     1      -9.781  13.515  66.303  1.00  0.00    -0.289 NA 
HETATM   12  C   UNL     1      -9.900  12.148  66.541  1.00  0.00    -0.218 A  
HETATM   13  S   UNL     1     -12.155  13.110  67.204  1.00  0.00    -0.203 SA 
HETATM   14  C   UNL     1     -11.137  11.754  67.009  1.00  0.00    -0.304 A  
BRANCH  12  15
HETATM   15  C   UNL     1      -8.726  11.260  66.270  1.00  0.00    -0.184 C  
BRANCH  15  16
HETATM   16  S   UNL     1      -7.885  10.811  67.829  1.00  0.00    -0.110 SA 
BRANCH  16  17
HETATM   17  C   UNL     1      -7.793   8.995  67.650  1.00  0.00    -0.101 C  
BRANCH  17  18
HETATM   18  C   UNL     1      -9.137   8.277  67.653  1.00  0.00    -0.139 C  
BRANCH  18  19
HETATM   19  C   UNL     1      -9.383   7.469  66.379  1.00  0.00    -0.157 C  
HETATM   20  H2  UNL     1      -8.469   8.936  65.186  1.00  0.00     0.000 HD 
HETATM   21  N   UNL     1      -8.937   8.030  65.206  1.00  0.00    -0.391 NA 
HETATM   22  H1  UNL     1      -9.102   7.491  64.355  1.00  0.00     0.000 HD 
BRANCH  19  23
HETATM   23  N   UNL     1      -9.977   6.334  66.541  1.00  0.00    -0.309 N  
HETATM   24  H   UNL     1     -10.985   6.312  66.698  1.00  0.00     0.000 HD 
BRANCH  23  25
HETATM   25  S   UNL     1      -9.149   4.952  66.501  1.00  0.00    -0.130 S  
HETATM   26  O   UNL     1      -7.735   5.238  66.467  1.00  0.00    -0.094 OA 
HETATM   27  O   UNL     1      -9.762   4.065  65.541  1.00  0.00    -0.174 OA 
HETATM   28  N   UNL     1      -9.423   4.252  67.998  1.00  0.00    -0.155 N  
HETATM   29  H1  UNL     1      -8.899   3.378  67.973  1.00  0.00     0.000 HD 
HETATM   30  H2  UNL     1      -9.988   4.618  68.765  1.00  0.00     0.000 HD 
ENDBRANCH  23  25
ENDBRANCH  19  23
ENDBRANCH  18  19
ENDBRANCH  17  18
ENDBRANCH  16  17
ENDBRANCH  15  16
ENDBRANCH  12  15
ENDBRANCH   5  10
TORSDOF 8
ENDMDL
MODEL      355
REMARK 921   NORMALIZED FREE ENERGY PREDICTED BY IDOCK:   -2.64 KCAL/MOL
REMARK 922        TOTAL FREE ENERGY PREDICTED BY IDOCK:   -5.05 KCAL/MOL
REMARK 923 INTER-LIGAND FREE ENERGY PREDICTED BY IDOCK:   -3.99 KCAL/MOL
REMARK 924 INTRA-LIGAND FREE ENERGY PREDICTED BY IDOCK:   -1.07 KCAL/MOL
REMARK 927      BINDING AFFINITY PREDICTED BY RF-SCORE:    0.00 PKD
ROOT
HETATM    1  N   UNL     1     -10.594  17.663  67.618  1.00  0.00    -0.375 NA 
HETATM    2  C   UNL     1     -10.176  16.377  67.701  1.00  0.00    -0.272 C  
HETATM    3  H2  UNL     1     -10.600  18.332  68.388  1.00  0.00     0.000 HD 
HETATM    4  H1  UNL     1     -10.902  17.857  66.666  1.00  0.00     0.000 HD 
HETATM    5  N   UNL     1     -10.193  15.615  66.662  1.00  0.00    -0.271 NA 
HETATM    6  N   UNL     1      -9.767  16.118  68.968  1.00  0.00    -0.236 NA 
HETATM    7  H2  UNL     1      -9.772  16.787  69.738  1.00  0.00     0.000 HD 
HETATM    8  H1  UNL     1      -9.452  15.150  69.031  1.00  0.00     0.000 HD 
HETATM    9  H   UNL     1     -10.510  15.969  65.761  1.00  0.00     0.000 HD 
ENDROOT
BRANCH   5  10
HETATM   10  C   UNL     1      -9.778  14.328  66.794  1.00  0.00    -0.275 A  
HETATM   11  N   UNL     1      -8.542  13.865  66.900  1.00  0.00    -0.168 NA 
HETATM   12  C   UNL     1      -8.539  12.479  67.037  1.00  0.00    -0.188 A  
HETATM   13  S   UNL     1     -10.996  13.098  66.861  1.00  0.00    -0.281 SA 
HETATM   14  C   UNL     1      -9.791  11.899  67.009  1.00  0.00    -0.192 A  
BRANCH  12  15
HETATM   15  C   UNL     1      -7.230  11.768  67.185  1.00  0.00    -0.147 C  
BRANCH  15  16
HETATM   16  S   UNL     1      -6.339  12.362  68.665  1.00  0.00    -0.079 SA 
BRANCH  16  17
HETATM   17  C   UNL     1      -6.912  11.155  69.911  1.00  0.00     0.004 C  
BRANCH  17  18
HETATM   18  C   UNL     1      -7.247   9.773  69.362  1.00  0.00    -0.076 C  
BRANCH  18  19
HETATM   19  C   UNL     1      -8.450   9.133  70.055  1.00  0.00    -0.157 C  
HETATM   20  H2  UNL     1      -8.440  10.586  71.572  1.00  0.00     0.000 HD 
HETATM   21  N   UNL     1      -8.891   9.748  71.203  1.00  0.00    -0.218 NA 
HETATM   22  H1  UNL     1      -9.694   9.322  71.666  1.00  0.00     0.000 HD 
BRANCH  19  23
HETATM   23  N   UNL     1      -8.935   8.083  69.480  1.00  0.00    -0.147 N  
HETATM   24  H   UNL     1      -8.331   7.278  69.314  1.00  0.00     0.000 HD 
BRANCH  23  25
HETATM   25  S   UNL     1     -10.479   8.026  69.023  1.00  0.00    -0.163 S  
HETATM   26  O   UNL     1     -11.197   9.132  69.611  1.00  0.00    -0.151 OA 
HETATM   27  O   UNL     1     -10.955   6.669  69.145  1.00  0.00    -0.263 OA 
HETATM   28  N   UNL     1     -10.445   8.345  67.379  1.00  0.00    -0.328 N  
HETATM   29  H1  UNL     1     -11.421   8.309  67.090  1.00  0.00     0.000 HD 
HETATM   30  H2  UNL     1      -9.628   8.533  66.797  1.00  0.00     0.000 HD 
ENDBRANCH  23  25
ENDBRANCH  19  23
ENDBRANCH  18  19
ENDBRANCH  17  18
ENDBRANCH  16  17
ENDBRANCH  15  16
ENDBRANCH  12  15
ENDBRANCH   5  10
TORSDOF 8
ENDMDL
MODEL      356
REMARK 921   NORMALIZED FREE ENERGY PREDICTED BY IDOCK:   -2.63 KCAL/MOL
REMARK 922        TOTAL FREE ENERGY PREDICTED BY IDOCK:   -5.03 KCAL/MOL
REMARK 923 INTER-LIGAND FREE ENERGY PREDICTED BY IDOCK:   -4.64 KCAL/MOL
REMARK 924 INTRA-LIGAND FREE ENERGY PREDICTED BY IDOCK:   -0.39 KCAL/MOL
REMARK 927      BINDING AFFINITY PREDICTED BY RF-SCORE:    0.00 PKD
ROOT
HETATM    1  N   UNL     1     -10.701  12.934  64.199  1.00  0.00    -0.400 NA 
HETATM    2  C   UNL     1      -9.881  11.931  64.598  1.00  0.00    -0.183 C  
HETATM    3  H2  UNL     1     -10.991  13.724  64.776  1.00  0.00     0.000 HD 
HETATM    4  H1  UNL     1     -10.983  12.774  63.233  1.00  0.00     0.000 HD 
HETATM    5  N   UNL     1      -9.561  10.984  63.785  1.00  0.00    -0.260 NA 
HETATM    6  N   UNL     1      -9.506  12.143  65.884  1.00  0.00    -0.349 NA 
HETATM    7  H2  UNL     1      -9.795  12.933  66.461  1.00  0.00     0.000 HD 
HETATM    8  H1  UNL     1      -8.888  11.388  66.185  1.00  0.00     0.000 HD 
HETATM    9  H   UNL     1      -9.911  10.980  62.827  1.00  0.00     0.000 HD 
ENDROOT
BRANCH   5  10
HETATM   10  C   UNL     1      -8.748   9.993  64.231  1.00  0.00    -0.206 A  
HETATM   11  N   UNL     1      -9.077   8.869  64.850  1.00  0.00    -0.086 NA 
HETATM   12  C   UNL     1      -7.948   8.103  65.127  1.00  0.00    -0.126 A  
HETATM   13  S   UNL     1      -7.047  10.168  63.953  1.00  0.00    -0.063 SA 
HETATM   14  C   UNL     1      -6.756   8.676  64.729  1.00  0.00    -0.069 A  
BRANCH  12  15
HETATM   15  C   UNL     1      -8.116   6.784  65.814  1.00  0.00    -0.123 C  
BRANCH  15  16
HETATM   16  S   UNL     1      -8.029   6.988  67.628  1.00  0.00    -0.114 SA 
BRANCH  16  17
HETATM   17  C   UNL     1      -9.713   7.604  67.980  1.00  0.00    -0.152 C  
BRANCH  17  18
HETATM   18  C   UNL     1      -9.956   8.027  69.423  1.00  0.00    -0.190 C  
BRANCH  18  19
HETATM   19  C   UNL     1     -11.048   7.205  70.108  1.00  0.00    -0.272 C  
HETATM   20  H2  UNL     1      -9.887   5.457  70.020  1.00  0.00     0.000 HD 
HETATM   21  N   UNL     1     -10.772   5.874  70.311  1.00  0.00    -0.289 NA 
HETATM   22  H1  UNL     1     -11.500   5.325  70.767  1.00  0.00     0.000 HD 
BRANCH  19  23
HETATM   23  N   UNL     1     -12.116   7.854  70.435  1.00  0.00    -0.465 N  
HETATM   24  H   UNL     1     -13.030   7.484  70.171  1.00  0.00     0.000 HD 
BRANCH  23  25
HETATM   25  S   UNL     1     -12.026   9.240  71.252  1.00  0.00    -0.362 S  
HETATM   26  O   UNL     1     -12.133  10.349  70.334  1.00  0.00    -0.282 OA 
HETATM   27  O   UNL     1     -10.947   9.153  72.206  1.00  0.00    -0.205 OA 
HETATM   28  N   UNL     1     -13.430   9.285  72.164  1.00  0.00    -0.442 N  
HETATM   29  H1  UNL     1     -13.373  10.161  72.681  1.00  0.00     0.000 HD 
HETATM   30  H2  UNL     1     -14.176   8.589  72.195  1.00  0.00     0.000 HD 
ENDBRANCH  23  25
ENDBRANCH  19  23
ENDBRANCH  18  19
ENDBRANCH  17  18
ENDBRANCH  16  17
ENDBRANCH  15  16
ENDBRANCH  12  15
ENDBRANCH   5  10
TORSDOF 8
ENDMDL
MODEL      357
REMARK 921   NORMALIZED FREE ENERGY PREDICTED BY IDOCK:   -2.62 KCAL/MOL
REMARK 922        TOTAL FREE ENERGY PREDICTED BY IDOCK:   -5.02 KCAL/MOL
REMARK 923 INTER-LIGAND FREE ENERGY PREDICTED BY IDOCK:   -4.20 KCAL/MOL
REMARK 924 INTRA-LIGAND FREE ENERGY PREDICTED BY IDOCK:   -0.83 KCAL/MOL
REMARK 927      BINDING AFFINITY PREDICTED BY RF-SCORE:    0.00 PKD
ROOT
HETATM    1  N   UNL     1      -7.823   5.199  65.025  1.00  0.00    -0.088 NA 
HETATM    2  C   UNL     1      -8.101   6.449  65.467  1.00  0.00    -0.130 C  
HETATM    3  H2  UNL     1      -7.955   4.341  65.559  1.00  0.00     0.000 HD 
HETATM    4  H1  UNL     1      -7.461   5.251  64.073  1.00  0.00     0.000 HD 
HETATM    5  N   UNL     1      -7.914   7.471  64.705  1.00  0.00    -0.132 NA 
HETATM    6  N   UNL     1      -8.583   6.381  66.734  1.00  0.00    -0.111 NA 
HETATM    7  H2  UNL     1      -8.715   5.522  67.269  1.00  0.00     0.000 HD 
HETATM    8  H1  UNL     1      -8.792   7.321  67.068  1.00  0.00     0.000 HD 
HETATM    9  H   UNL     1      -7.565   7.355  63.754  1.00  0.00     0.000 HD 
ENDROOT
BRANCH   5  10
HETATM   10  C   UNL     1      -8.193   8.706  65.195  1.00  0.00    -0.151 A  
HETATM   11  N   UNL     1      -9.356   9.190  65.605  1.00  0.00    -0.238 NA 
HETATM   12  C   UNL     1      -9.220  10.501  66.055  1.00  0.00    -0.176 A  
HETATM   13  S   UNL     1      -6.878   9.823  65.344  1.00  0.00    -0.107 SA 
HETATM   14  C   UNL     1      -7.940  11.009  65.958  1.00  0.00    -0.094 A  
BRANCH  12  15
HETATM   15  C   UNL     1     -10.427  11.218  66.574  1.00  0.00    -0.253 C  
BRANCH  15  16
HETATM   16  S   UNL     1     -10.012  12.170  68.077  1.00  0.00    -0.207 SA 
BRANCH  16  17
HETATM   17  C   UNL     1     -11.511  13.201  68.247  1.00  0.00    -0.314 C  
BRANCH  17  18
HETATM   18  C   UNL     1     -11.366  14.636  67.753  1.00  0.00    -0.338 C  
BRANCH  18  19
HETATM   19  C   UNL     1     -11.559  15.670  68.862  1.00  0.00    -0.383 C  
HETATM   20  H2  UNL     1     -10.084  16.923  68.049  1.00  0.00     0.000 HD 
HETATM   21  N   UNL     1     -10.765  16.789  68.796  1.00  0.00    -0.336 NA 
HETATM   22  H1  UNL     1     -10.893  17.480  69.537  1.00  0.00     0.000 HD 
BRANCH  19  23
HETATM   23  N   UNL     1     -12.460  15.384  69.743  1.00  0.00    -0.591 N  
HETATM   24  H   UNL     1     -13.348  14.982  69.441  1.00  0.00     0.000 HD 
BRANCH  23  25
HETATM   25  S   UNL     1     -12.202  15.656  71.310  1.00  0.00    -0.450 S  
HETATM   26  O   UNL     1     -11.884  17.049  71.512  1.00  0.00     0.432 OA 
HETATM   27  O   UNL     1     -11.360  14.607  71.835  1.00  0.00    -0.060 OA 
HETATM   28  N   UNL     1     -13.698  15.435  72.029  1.00  0.00    -0.470 N  
HETATM   29  H1  UNL     1     -13.534  15.606  73.021  1.00  0.00     0.000 HD 
HETATM   30  H2  UNL     1     -14.577  15.184  71.576  1.00  0.00     0.000 HD 
ENDBRANCH  23  25
ENDBRANCH  19  23
ENDBRANCH  18  19
ENDBRANCH  17  18
ENDBRANCH  16  17
ENDBRANCH  15  16
ENDBRANCH  12  15
ENDBRANCH   5  10
TORSDOF 8
ENDMDL
MODEL      358
REMARK 921   NORMALIZED FREE ENERGY PREDICTED BY IDOCK:   -2.62 KCAL/MOL
REMARK 922        TOTAL FREE ENERGY PREDICTED BY IDOCK:   -5.02 KCAL/MOL
REMARK 923 INTER-LIGAND FREE ENERGY PREDICTED BY IDOCK:   -3.82 KCAL/MOL
REMARK 924 INTRA-LIGAND FREE ENERGY PREDICTED BY IDOCK:   -1.20 KCAL/MOL
REMARK 927      BINDING AFFINITY PREDICTED BY RF-SCORE:    0.00 PKD
ROOT
HETATM    1  N   UNL     1     -12.240   8.177  71.397  1.00  0.00    -0.295 NA 
HETATM    2  C   UNL     1     -11.333   8.131  70.391  1.00  0.00    -0.181 C  
HETATM    3  H2  UNL     1     -12.442   8.994  71.972  1.00  0.00     0.000 HD 
HETATM    4  H1  UNL     1     -12.689   7.266  71.488  1.00  0.00     0.000 HD 
HETATM    5  N   UNL     1     -11.165   7.050  69.710  1.00  0.00    -0.433 NA 
HETATM    6  N   UNL     1     -10.736   9.343  70.268  1.00  0.00    -0.234 NA 
HETATM    7  H2  UNL     1     -10.938  10.160  70.843  1.00  0.00     0.000 HD 
HETATM    8  H1  UNL     1     -10.054   9.309  69.511  1.00  0.00     0.000 HD 
HETATM    9  H   UNL     1     -11.717   6.217  69.910  1.00  0.00     0.000 HD 
ENDROOT
BRANCH   5  10
HETATM   10  C   UNL     1     -10.235   7.045  68.719  1.00  0.00    -0.176 A  
HETATM   11  N   UNL     1      -8.920   7.159  68.819  1.00  0.00    -0.129 NA 
HETATM   12  C   UNL     1      -8.316   7.087  67.567  1.00  0.00    -0.119 A  
HETATM   13  S   UNL     1     -10.800   6.838  67.095  1.00  0.00    -0.376 SA 
HETATM   14  C   UNL     1      -9.198   6.939  66.515  1.00  0.00    -0.163 A  
BRANCH  12  15
HETATM   15  C   UNL     1      -6.826   7.184  67.473  1.00  0.00    -0.070 C  
BRANCH  15  16
HETATM   16  S   UNL     1      -6.271   8.898  67.778  1.00  0.00    -0.056 SA 
BRANCH  16  17
HETATM   17  C   UNL     1      -6.684   9.675  66.177  1.00  0.00    -0.083 C  
BRANCH  17  18
HETATM   18  C   UNL     1      -7.051  11.153  66.253  1.00  0.00    -0.049 C  
BRANCH  18  19
HETATM   19  C   UNL     1      -8.561  11.389  66.300  1.00  0.00    -0.156 C  
HETATM   20  H2  UNL     1      -8.786  10.092  67.935  1.00  0.00     0.000 HD 
HETATM   21  N   UNL     1      -9.254  10.716  67.277  1.00  0.00    -0.143 NA 
HETATM   22  H1  UNL     1     -10.261  10.873  67.308  1.00  0.00     0.000 HD 
BRANCH  19  23
HETATM   23  N   UNL     1      -9.026  12.209  65.416  1.00  0.00    -0.305 N  
HETATM   24  H   UNL     1      -8.760  13.193  65.454  1.00  0.00     0.000 HD 
BRANCH  23  25
HETATM   25  S   UNL     1     -10.021  11.700  64.256  1.00  0.00    -0.262 S  
HETATM   26  O   UNL     1     -11.198  12.536  64.228  1.00  0.00    -0.313 OA 
HETATM   27  O   UNL     1     -10.121  10.261  64.322  1.00  0.00    -0.310 OA 
HETATM   28  N   UNL     1      -9.210  12.029  62.829  1.00  0.00     0.036 N  
HETATM   29  H1  UNL     1      -9.840  11.707  62.095  1.00  0.00     0.000 HD 
HETATM   30  H2  UNL     1      -8.291  12.457  62.718  1.00  0.00     0.000 HD 
ENDBRANCH  23  25
ENDBRANCH  19  23
ENDBRANCH  18  19
ENDBRANCH  17  18
ENDBRANCH  16  17
ENDBRANCH  15  16
ENDBRANCH  12  15
ENDBRANCH   5  10
TORSDOF 8
ENDMDL
MODEL      359
REMARK 921   NORMALIZED FREE ENERGY PREDICTED BY IDOCK:   -2.61 KCAL/MOL
REMARK 922        TOTAL FREE ENERGY PREDICTED BY IDOCK:   -5.01 KCAL/MOL
REMARK 923 INTER-LIGAND FREE ENERGY PREDICTED BY IDOCK:   -3.30 KCAL/MOL
REMARK 924 INTRA-LIGAND FREE ENERGY PREDICTED BY IDOCK:   -1.71 KCAL/MOL
REMARK 927      BINDING AFFINITY PREDICTED BY RF-SCORE:    0.00 PKD
ROOT
HETATM    1  N   UNL     1      -7.684   8.738  72.729  1.00  0.00    -0.372 NA 
HETATM    2  C   UNL     1      -8.381   8.592  71.576  1.00  0.00    -0.162 C  
HETATM    3  H2  UNL     1      -7.428   7.983  73.364  1.00  0.00     0.000 HD 
HETATM    4  H1  UNL     1      -7.455   9.723  72.861  1.00  0.00     0.000 HD 
HETATM    5  N   UNL     1      -8.638   9.611  70.832  1.00  0.00    -0.363 NA 
HETATM    6  N   UNL     1      -8.686   7.281  71.400  1.00  0.00    -0.126 NA 
HETATM    7  H2  UNL     1      -8.431   6.526  72.035  1.00  0.00     0.000 HD 
HETATM    8  H1  UNL     1      -9.210   7.170  70.531  1.00  0.00     0.000 HD 
HETATM    9  H   UNL     1      -8.313  10.542  71.093  1.00  0.00     0.000 HD 
ENDROOT
BRANCH   5  10
HETATM   10  C   UNL     1      -9.351   9.420  69.692  1.00  0.00    -0.189 A  
HETATM   11  N   UNL     1      -9.278   8.417  68.830  1.00  0.00    -0.143 NA 
HETATM   12  C   UNL     1     -10.195   8.583  67.795  1.00  0.00    -0.225 A  
HETATM   13  S   UNL     1     -10.543  10.609  69.286  1.00  0.00    -0.239 SA 
HETATM   14  C   UNL     1     -10.946   9.738  67.875  1.00  0.00    -0.188 A  
BRANCH  12  15
HETATM   15  C   UNL     1     -10.274   7.541  66.723  1.00  0.00    -0.254 C  
BRANCH  15  16
HETATM   16  S   UNL     1      -8.607   7.136  66.095  1.00  0.00    -0.149 SA 
BRANCH  16  17
HETATM   17  C   UNL     1      -8.111   5.830  67.274  1.00  0.00    -0.102 C  
BRANCH  17  18
HETATM   18  C   UNL     1      -9.231   4.888  67.700  1.00  0.00    -0.138 C  
BRANCH  18  19
HETATM   19  C   UNL     1      -9.463   4.886  69.211  1.00  0.00    -0.142 C  
HETATM   20  H2  UNL     1     -11.434   5.575  68.982  1.00  0.00     0.000 HD 
HETATM   21  N   UNL     1     -10.706   5.289  69.637  1.00  0.00    -0.205 NA 
HETATM   22  H1  UNL     1     -10.861   5.288  70.646  1.00  0.00     0.000 HD 
BRANCH  19  23
HETATM   23  N   UNL     1      -8.465   4.493  69.931  1.00  0.00    -0.066 N  
HETATM   24  H   UNL     1      -7.513   4.663  69.605  1.00  0.00     0.000 HD 
BRANCH  23  25
HETATM   25  S   UNL     1      -8.702   3.739  71.335  1.00  0.00    -0.096 S  
HETATM   26  O   UNL     1      -9.236   4.671  72.299  1.00  0.00    -0.124 OA 
HETATM   27  O   UNL     1      -7.546   2.927  71.632  1.00  0.00    -0.046 OA 
HETATM   28  N   UNL     1      -9.944   2.658  71.029  1.00  0.00     0.029 N  
HETATM   29  H1  UNL     1     -10.094   2.181  71.918  1.00  0.00     0.000 HD 
HETATM   30  H2  UNL     1     -10.440   2.510  70.150  1.00  0.00     0.000 HD 
ENDBRANCH  23  25
ENDBRANCH  19  23
ENDBRANCH  18  19
ENDBRANCH  17  18
ENDBRANCH  16  17
ENDBRANCH  15  16
ENDBRANCH  12  15
ENDBRANCH   5  10
TORSDOF 8
ENDMDL
MODEL      360
REMARK 921   NORMALIZED FREE ENERGY PREDICTED BY IDOCK:   -2.55 KCAL/MOL
REMARK 922        TOTAL FREE ENERGY PREDICTED BY IDOCK:   -4.93 KCAL/MOL
REMARK 923 INTER-LIGAND FREE ENERGY PREDICTED BY IDOCK:   -3.70 KCAL/MOL
REMARK 924 INTRA-LIGAND FREE ENERGY PREDICTED BY IDOCK:   -1.22 KCAL/MOL
REMARK 927      BINDING AFFINITY PREDICTED BY RF-SCORE:    0.00 PKD
ROOT
HETATM    1  N   UNL     1      -7.594  11.011  65.418  1.00  0.00    -0.358 NA 
HETATM    2  C   UNL     1      -7.329   9.977  66.253  1.00  0.00    -0.106 C  
HETATM    3  H2  UNL     1      -6.982  11.336  64.670  1.00  0.00     0.000 HD 
HETATM    4  H1  UNL     1      -8.500  11.412  65.656  1.00  0.00     0.000 HD 
HETATM    5  N   UNL     1      -8.178   9.631  67.158  1.00  0.00    -0.120 NA 
HETATM    6  N   UNL     1      -6.122   9.442  65.937  1.00  0.00    -0.055 NA 
HETATM    7  H2  UNL     1      -5.511   9.768  65.189  1.00  0.00     0.000 HD 
HETATM    8  H1  UNL     1      -5.923   8.663  66.565  1.00  0.00     0.000 HD 
HETATM    9  H   UNL     1      -9.066  10.124  67.254  1.00  0.00     0.000 HD 
ENDROOT
BRANCH   5  10
HETATM   10  C   UNL     1      -7.865   8.598  67.982  1.00  0.00    -0.103 A  
HETATM   11  N   UNL     1      -7.066   8.595  69.038  1.00  0.00    -0.064 NA 
HETATM   12  C   UNL     1      -7.024   7.334  69.627  1.00  0.00    -0.054 A  
HETATM   13  S   UNL     1      -8.607   7.066  67.659  1.00  0.00    -0.121 SA 
HETATM   14  C   UNL     1      -7.785   6.377  68.987  1.00  0.00    -0.101 A  
BRANCH  12  15
HETATM   15  C   UNL     1      -6.182   7.132  70.848  1.00  0.00    -0.036 C  
BRANCH  15  16
HETATM   16  S   UNL     1      -7.169   6.390  72.195  1.00  0.00    -0.088 SA 
BRANCH  16  17
HETATM   17  C   UNL     1      -7.654   7.888  73.122  1.00  0.00    -0.129 C  
BRANCH  17  18
HETATM   18  C   UNL     1      -8.999   7.798  73.833  1.00  0.00    -0.317 C  
BRANCH  18  19
HETATM   19  C   UNL     1     -10.186   7.958  72.883  1.00  0.00    -0.330 C  
HETATM   20  H2  UNL     1      -9.117   9.284  71.655  1.00  0.00     0.000 HD 
HETATM   21  N   UNL     1      -9.999   8.796  71.810  1.00  0.00    -0.301 NA 
HETATM   22  H1  UNL     1     -10.791   8.903  71.176  1.00  0.00     0.000 HD 
BRANCH  19  23
HETATM   23  N   UNL     1     -11.242   7.278  73.187  1.00  0.00    -0.561 N  
HETATM   24  H   UNL     1     -11.641   7.360  74.122  1.00  0.00     0.000 HD 
BRANCH  23  25
HETATM   25  S   UNL     1     -11.937   6.304  72.109  1.00  0.00    -0.209 S  
HETATM   26  O   UNL     1     -12.820   7.071  71.263  1.00  0.00    -0.377 OA 
HETATM   27  O   UNL     1     -12.388   5.107  72.779  1.00  0.00    -0.013 OA 
HETATM   28  N   UNL     1     -10.684   5.815  71.111  1.00  0.00    -0.260 N  
HETATM   29  H1  UNL     1     -11.125   5.198  70.429  1.00  0.00     0.000 HD 
HETATM   30  H2  UNL     1      -9.700   6.076  71.171  1.00  0.00     0.000 HD 
ENDBRANCH  23  25
ENDBRANCH  19  23
ENDBRANCH  18  19
ENDBRANCH  17  18
ENDBRANCH  16  17
ENDBRANCH  15  16
ENDBRANCH  12  15
ENDBRANCH   5  10
TORSDOF 8
ENDMDL
MODEL      361
REMARK 921   NORMALIZED FREE ENERGY PREDICTED BY IDOCK:   -2.51 KCAL/MOL
REMARK 922        TOTAL FREE ENERGY PREDICTED BY IDOCK:   -4.86 KCAL/MOL
REMARK 923 INTER-LIGAND FREE ENERGY PREDICTED BY IDOCK:   -4.43 KCAL/MOL
REMARK 924 INTRA-LIGAND FREE ENERGY PREDICTED BY IDOCK:   -0.43 KCAL/MOL
REMARK 927      BINDING AFFINITY PREDICTED BY RF-SCORE:    0.00 PKD
ROOT
HETATM    1  N   UNL     1     -13.306  15.525  72.786  1.00  0.00    -0.478 NA 
HETATM    2  C   UNL     1     -12.216  15.507  71.982  1.00  0.00    -0.404 C  
HETATM    3  H2  UNL     1     -13.295  15.403  73.798  1.00  0.00     0.000 HD 
HETATM    4  H1  UNL     1     -14.140  15.681  72.220  1.00  0.00     0.000 HD 
HETATM    5  N   UNL     1     -12.335  15.689  70.712  1.00  0.00    -0.410 NA 
HETATM    6  N   UNL     1     -11.106  15.300  72.734  1.00  0.00     0.032 NA 
HETATM    7  H2  UNL     1     -11.095  15.178  73.747  1.00  0.00     0.000 HD 
HETATM    8  H1  UNL     1     -10.285  15.287  72.129  1.00  0.00     0.000 HD 
HETATM    9  H   UNL     1     -13.249  15.860  70.293  1.00  0.00     0.000 HD 
ENDROOT
BRANCH   5  10
HETATM   10  C   UNL     1     -11.217  15.649  69.942  1.00  0.00    -0.331 A  
HETATM   11  N   UNL     1      -9.963  15.440  70.315  1.00  0.00    -0.107 NA 
HETATM   12  C   UNL     1      -9.107  15.458  69.217  1.00  0.00    -0.260 A  
HETATM   13  S   UNL     1     -11.413  15.870  68.235  1.00  0.00    -0.265 SA 
HETATM   14  C   UNL     1      -9.730  15.705  68.010  1.00  0.00    -0.204 A  
BRANCH  12  15
HETATM   15  C   UNL     1      -7.645  15.226  69.434  1.00  0.00    -0.219 C  
BRANCH  15  16
HETATM   16  S   UNL     1      -7.270  13.437  69.440  1.00  0.00     0.316 SA 
BRANCH  16  17
HETATM   17  C   UNL     1      -8.709  12.790  68.519  1.00  0.00    -0.045 C  
BRANCH  17  18
HETATM   18  C   UNL     1      -8.476  11.462  67.808  1.00  0.00    -0.128 C  
BRANCH  18  19
HETATM   19  C   UNL     1      -8.584  11.573  66.288  1.00  0.00    -0.133 C  
HETATM   20  H2  UNL     1      -6.949  10.285  66.005  1.00  0.00     0.000 HD 
HETATM   21  N   UNL     1      -7.665  10.859  65.557  1.00  0.00    -0.354 NA 
HETATM   22  H1  UNL     1      -7.736  10.933  64.542  1.00  0.00     0.000 HD 
BRANCH  19  23
HETATM   23  N   UNL     1      -9.539  12.323  65.848  1.00  0.00    -0.326 N  
HETATM   24  H   UNL     1      -9.624  13.281  66.189  1.00  0.00     0.000 HD 
BRANCH  23  25
HETATM   25  S   UNL     1     -10.598  11.768  64.768  1.00  0.00    -0.317 S  
HETATM   26  O   UNL     1     -11.648  12.740  64.577  1.00  0.00    -0.317 OA 
HETATM   27  O   UNL     1     -10.895  10.387  65.068  1.00  0.00     0.039 OA 
HETATM   28  N   UNL     1      -9.752  11.740  63.322  1.00  0.00    -0.518 N  
HETATM   29  H1  UNL     1     -10.422  11.389  62.639  1.00  0.00     0.000 HD 
HETATM   30  H2  UNL     1      -8.783  12.015  63.161  1.00  0.00     0.000 HD 
ENDBRANCH  23  25
ENDBRANCH  19  23
ENDBRANCH  18  19
ENDBRANCH  17  18
ENDBRANCH  16  17
ENDBRANCH  15  16
ENDBRANCH  12  15
ENDBRANCH   5  10
TORSDOF 8
ENDMDL
MODEL      362
REMARK 921   NORMALIZED FREE ENERGY PREDICTED BY IDOCK:   -2.48 KCAL/MOL
REMARK 922        TOTAL FREE ENERGY PREDICTED BY IDOCK:   -4.81 KCAL/MOL
REMARK 923 INTER-LIGAND FREE ENERGY PREDICTED BY IDOCK:   -3.85 KCAL/MOL
REMARK 924 INTRA-LIGAND FREE ENERGY PREDICTED BY IDOCK:   -0.96 KCAL/MOL
REMARK 927      BINDING AFFINITY PREDICTED BY RF-SCORE:    0.00 PKD
ROOT
HETATM    1  N   UNL     1     -11.876   7.579  73.032  1.00  0.00    -0.573 NA 
HETATM    2  C   UNL     1     -11.068   7.104  72.053  1.00  0.00    -0.245 C  
HETATM    3  H2  UNL     1     -12.434   8.431  72.975  1.00  0.00     0.000 HD 
HETATM    4  H1  UNL     1     -11.838   6.951  73.834  1.00  0.00     0.000 HD 
HETATM    5  N   UNL     1     -10.417   6.005  72.217  1.00  0.00    -0.199 NA 
HETATM    6  N   UNL     1     -11.118   7.939  70.985  1.00  0.00    -0.246 NA 
HETATM    7  H2  UNL     1     -11.676   8.791  70.928  1.00  0.00     0.000 HD 
HETATM    8  H1  UNL     1     -10.510   7.581  70.248  1.00  0.00     0.000 HD 
HETATM    9  H   UNL     1     -10.506   5.470  73.082  1.00  0.00     0.000 HD 
ENDROOT
BRANCH   5  10
HETATM   10  C   UNL     1      -9.608   5.573  71.215  1.00  0.00    -0.155 A  
HETATM   11  N   UNL     1      -9.856   5.525  69.915  1.00  0.00    -0.178 NA 
HETATM   12  C   UNL     1      -8.758   5.032  69.216  1.00  0.00    -0.091 A  
HETATM   13  S   UNL     1      -8.022   5.026  71.647  1.00  0.00    -0.115 SA 
HETATM   14  C   UNL     1      -7.682   4.688  70.009  1.00  0.00    -0.054 A  
BRANCH  12  15
HETATM   15  C   UNL     1      -8.840   4.915  67.726  1.00  0.00    -0.104 C  
BRANCH  15  16
HETATM   16  S   UNL     1      -7.257   5.404  66.954  1.00  0.00    -0.079 SA 
BRANCH  16  17
HETATM   17  C   UNL     1      -7.838   5.941  65.307  1.00  0.00    -0.105 C  
BRANCH  17  18
HETATM   18  C   UNL     1      -7.368   5.075  64.144  1.00  0.00    -0.055 C  
BRANCH  18  19
HETATM   19  C   UNL     1      -8.476   4.786  63.131  1.00  0.00    -0.115 C  
HETATM   20  H2  UNL     1      -8.640   6.818  62.625  1.00  0.00     0.000 HD 
HETATM   21  N   UNL     1      -8.984   5.872  62.458  1.00  0.00    -0.328 NA 
HETATM   22  H1  UNL     1      -9.724   5.679  61.782  1.00  0.00     0.000 HD 
BRANCH  19  23
HETATM   23  N   UNL     1      -8.812   3.545  63.008  1.00  0.00    -0.093 N  
HETATM   24  H   UNL     1      -8.378   2.977  62.280  1.00  0.00     0.000 HD 
BRANCH  23  25
HETATM   25  S   UNL     1      -9.907   2.883  63.987  1.00  0.00    -0.149 S  
HETATM   26  O   UNL     1      -9.248   2.339  65.150  1.00  0.00    -0.136 OA 
HETATM   27  O   UNL     1     -10.823   2.091  63.200  1.00  0.00    -0.186 OA 
HETATM   28  N   UNL     1     -10.806   4.178  64.553  1.00  0.00    -0.647 N  
HETATM   29  H1  UNL     1     -11.499   3.759  65.172  1.00  0.00     0.000 HD 
HETATM   30  H2  UNL     1     -10.687   5.166  64.328  1.00  0.00     0.000 HD 
ENDBRANCH  23  25
ENDBRANCH  19  23
ENDBRANCH  18  19
ENDBRANCH  17  18
ENDBRANCH  16  17
ENDBRANCH  15  16
ENDBRANCH  12  15
ENDBRANCH   5  10
TORSDOF 8
ENDMDL
MODEL      363
REMARK 921   NORMALIZED FREE ENERGY PREDICTED BY IDOCK:   -2.46 KCAL/MOL
REMARK 922        TOTAL FREE ENERGY PREDICTED BY IDOCK:   -4.79 KCAL/MOL
REMARK 923 INTER-LIGAND FREE ENERGY PREDICTED BY IDOCK:   -3.30 KCAL/MOL
REMARK 924 INTRA-LIGAND FREE ENERGY PREDICTED BY IDOCK:   -1.49 KCAL/MOL
REMARK 927      BINDING AFFINITY PREDICTED BY RF-SCORE:    0.00 PKD
ROOT
HETATM    1  N   UNL     1      -8.691   9.242  64.109  1.00  0.00    -0.298 NA 
HETATM    2  C   UNL     1      -8.651   8.050  64.752  1.00  0.00     0.069 C  
HETATM    3  H2  UNL     1      -8.310   9.424  63.180  1.00  0.00     0.000 HD 
HETATM    4  H1  UNL     1      -9.161   9.928  64.698  1.00  0.00     0.000 HD 
HETATM    5  N   UNL     1      -9.178   7.919  65.920  1.00  0.00    -0.377 NA 
HETATM    6  N   UNL     1      -8.026   7.137  63.968  1.00  0.00    -0.243 NA 
HETATM    7  H2  UNL     1      -7.646   7.319  63.039  1.00  0.00     0.000 HD 
HETATM    8  H1  UNL     1      -7.997   6.239  64.452  1.00  0.00     0.000 HD 
HETATM    9  H   UNL     1      -9.642   8.706  66.375  1.00  0.00     0.000 HD 
ENDROOT
BRANCH   5  10
HETATM   10  C   UNL     1      -9.104   6.710  66.534  1.00  0.00    -0.149 A  
HETATM   11  N   UNL     1      -8.037   5.955  66.748  1.00  0.00    -0.102 NA 
HETATM   12  C   UNL     1      -8.378   4.790  67.429  1.00  0.00    -0.105 A  
HETATM   13  S   UNL     1     -10.573   6.039  67.159  1.00  0.00    -0.332 SA 
HETATM   14  C   UNL     1      -9.724   4.664  67.709  1.00  0.00    -0.155 A  
BRANCH  12  15
HETATM   15  C   UNL     1      -7.301   3.811  67.776  1.00  0.00    -0.063 C  
BRANCH  15  16
HETATM   16  S   UNL     1      -6.887   3.912  69.554  1.00  0.00    -0.042 SA 
BRANCH  16  17
HETATM   17  C   UNL     1      -6.834   5.724  69.784  1.00  0.00    -0.061 C  
BRANCH  17  18
HETATM   18  C   UNL     1      -7.189   6.206  71.185  1.00  0.00    -0.079 C  
BRANCH  18  19
HETATM   19  C   UNL     1      -8.346   7.206  71.195  1.00  0.00    -0.113 C  
HETATM   20  H2  UNL     1      -8.679   6.910  73.247  1.00  0.00     0.000 HD 
HETATM   21  N   UNL     1      -8.971   7.403  72.403  1.00  0.00    -0.129 NA 
HETATM   22  H1  UNL     1      -9.743   8.070  72.410  1.00  0.00     0.000 HD 
BRANCH  19  23
HETATM   23  N   UNL     1      -8.609   7.769  70.063  1.00  0.00    -0.138 N  
HETATM   24  H   UNL     1      -8.875   7.193  69.264  1.00  0.00     0.000 HD 
BRANCH  23  25
HETATM   25  S   UNL     1      -8.521   9.369  69.894  1.00  0.00    -0.197 S  
HETATM   26  O   UNL     1      -8.613   9.712  68.495  1.00  0.00    -0.117 OA 
HETATM   27  O   UNL     1      -7.451   9.871  70.724  1.00  0.00    -0.313 OA 
HETATM   28  N   UNL     1      -9.934   9.945  70.584  1.00  0.00    -0.360 N  
HETATM   29  H1  UNL     1      -9.878  10.958  70.477  1.00  0.00     0.000 HD 
HETATM   30  H2  UNL     1     -10.683   9.404  71.016  1.00  0.00     0.000 HD 
ENDBRANCH  23  25
ENDBRANCH  19  23
ENDBRANCH  18  19
ENDBRANCH  17  18
ENDBRANCH  16  17
ENDBRANCH  15  16
ENDBRANCH  12  15
ENDBRANCH   5  10
TORSDOF 8
ENDMDL
MODEL      364
REMARK 921   NORMALIZED FREE ENERGY PREDICTED BY IDOCK:   -2.45 KCAL/MOL
REMARK 922        TOTAL FREE ENERGY PREDICTED BY IDOCK:   -4.77 KCAL/MOL
REMARK 923 INTER-LIGAND FREE ENERGY PREDICTED BY IDOCK:   -3.37 KCAL/MOL
REMARK 924 INTRA-LIGAND FREE ENERGY PREDICTED BY IDOCK:   -1.41 KCAL/MOL
REMARK 927      BINDING AFFINITY PREDICTED BY RF-SCORE:    0.00 PKD
ROOT
HETATM    1  N   UNL     1      -9.159  14.264  68.609  1.00  0.00    -0.270 NA 
HETATM    2  C   UNL     1      -8.922  13.027  68.109  1.00  0.00    -0.198 C  
HETATM    3  H2  UNL     1      -9.224  15.121  68.059  1.00  0.00     0.000 HD 
HETATM    4  H1  UNL     1      -9.262  14.204  69.622  1.00  0.00     0.000 HD 
HETATM    5  N   UNL     1      -8.876  12.003  68.888  1.00  0.00    -0.375 NA 
HETATM    6  N   UNL     1      -8.784  13.107  66.761  1.00  0.00    -0.402 NA 
HETATM    7  H2  UNL     1      -8.849  13.963  66.211  1.00  0.00     0.000 HD 
HETATM    8  H1  UNL     1      -8.606  12.176  66.384  1.00  0.00     0.000 HD 
HETATM    9  H   UNL     1      -9.027  12.105  69.892  1.00  0.00     0.000 HD 
ENDROOT
BRANCH   5  10
HETATM   10  C   UNL     1      -8.622  10.784  68.346  1.00  0.00    -0.141 A  
HETATM   11  N   UNL     1      -9.353  10.095  67.483  1.00  0.00    -0.150 NA 
HETATM   12  C   UNL     1      -8.734   8.891  67.155  1.00  0.00    -0.120 A  
HETATM   13  S   UNL     1      -7.144  10.002  68.795  1.00  0.00    -0.073 SA 
HETATM   14  C   UNL     1      -7.535   8.670  67.801  1.00  0.00    -0.097 A  
BRANCH  12  15
HETATM   15  C   UNL     1      -9.402   7.975  66.179  1.00  0.00    -0.147 C  
BRANCH  15  16
HETATM   16  S   UNL     1     -10.524   6.820  67.044  1.00  0.00    -0.313 SA 
BRANCH  16  17
HETATM   17  C   UNL     1      -9.853   5.216  66.484  1.00  0.00    -0.192 C  
BRANCH  17  18
HETATM   18  C   UNL     1      -8.691   4.679  67.312  1.00  0.00    -0.104 C  
BRANCH  18  19
HETATM   19  C   UNL     1      -8.928   4.797  68.817  1.00  0.00    -0.106 C  
HETATM   20  H2  UNL     1     -10.643   3.589  68.715  1.00  0.00     0.000 HD 
HETATM   21  N   UNL     1     -10.022   4.132  69.316  1.00  0.00    -0.060 NA 
HETATM   22  H1  UNL     1     -10.181   4.211  70.321  1.00  0.00     0.000 HD 
BRANCH  19  23
HETATM   23  N   UNL     1      -8.065   5.506  69.466  1.00  0.00    -0.100 N  
HETATM   24  H   UNL     1      -7.081   5.467  69.199  1.00  0.00     0.000 HD 
BRANCH  23  25
HETATM   25  S   UNL     1      -8.520   6.449  70.690  1.00  0.00    -0.135 S  
HETATM   26  O   UNL     1      -9.758   7.112  70.354  1.00  0.00    -0.176 OA 
HETATM   27  O   UNL     1      -7.374   7.189  71.164  1.00  0.00    -0.073 OA 
HETATM   28  N   UNL     1      -8.909   5.384  71.923  1.00  0.00    -0.135 N  
HETATM   29  H1  UNL     1      -9.197   5.982  72.697  1.00  0.00     0.000 HD 
HETATM   30  H2  UNL     1      -8.868   4.365  71.903  1.00  0.00     0.000 HD 
ENDBRANCH  23  25
ENDBRANCH  19  23
ENDBRANCH  18  19
ENDBRANCH  17  18
ENDBRANCH  16  17
ENDBRANCH  15  16
ENDBRANCH  12  15
ENDBRANCH   5  10
TORSDOF 8
ENDMDL
MODEL      365
REMARK 921   NORMALIZED FREE ENERGY PREDICTED BY IDOCK:   -2.44 KCAL/MOL
REMARK 922        TOTAL FREE ENERGY PREDICTED BY IDOCK:   -4.76 KCAL/MOL
REMARK 923 INTER-LIGAND FREE ENERGY PREDICTED BY IDOCK:   -4.03 KCAL/MOL
REMARK 924 INTRA-LIGAND FREE ENERGY PREDICTED BY IDOCK:   -0.73 KCAL/MOL
REMARK 927      BINDING AFFINITY PREDICTED BY RF-SCORE:    0.00 PKD
ROOT
HETATM    1  N   UNL     1     -10.841  12.872  64.034  1.00  0.00    -0.409 NA 
HETATM    2  C   UNL     1      -9.981  11.910  64.449  1.00  0.00    -0.234 C  
HETATM    3  H2  UNL     1     -10.975  13.777  64.484  1.00  0.00     0.000 HD 
HETATM    4  H1  UNL     1     -11.331  12.549  63.201  1.00  0.00     0.000 HD 
HETATM    5  N   UNL     1      -9.872  10.804  63.798  1.00  0.00    -0.312 NA 
HETATM    6  N   UNL     1      -9.328  12.340  65.558  1.00  0.00    -0.438 NA 
HETATM    7  H2  UNL     1      -9.462  13.245  66.008  1.00  0.00     0.000 HD 
HETATM    8  H1  UNL     1      -8.680  11.616  65.870  1.00  0.00     0.000 HD 
HETATM    9  H   UNL     1     -10.423  10.638  62.956  1.00  0.00     0.000 HD 
ENDROOT
BRANCH   5  10
HETATM   10  C   UNL     1      -9.009   9.862  64.258  1.00  0.00    -0.243 A  
HETATM   11  N   UNL     1      -9.144   9.054  65.299  1.00  0.00    -0.197 NA 
HETATM   12  C   UNL     1      -8.039   8.217  65.427  1.00  0.00    -0.130 A  
HETATM   13  S   UNL     1      -7.532   9.636  63.382  1.00  0.00    -0.123 SA 
HETATM   14  C   UNL     1      -7.055   8.419  64.480  1.00  0.00    -0.077 A  
BRANCH  12  15
HETATM   15  C   UNL     1      -8.011   7.218  66.541  1.00  0.00    -0.115 C  
BRANCH  15  16
HETATM   16  S   UNL     1      -8.150   8.056  68.159  1.00  0.00    -0.130 SA 
BRANCH  16  17
HETATM   17  C   UNL     1      -9.867   7.627  68.613  1.00  0.00    -0.171 C  
BRANCH  17  18
HETATM   18  C   UNL     1     -10.091   7.341  70.094  1.00  0.00    -0.192 C  
BRANCH  18  19
HETATM   19  C   UNL     1      -9.599   8.471  70.998  1.00  0.00    -0.192 C  
HETATM   20  H2  UNL     1     -11.163   9.734  70.394  1.00  0.00     0.000 HD 
HETATM   21  N   UNL     1     -10.334   9.631  70.980  1.00  0.00    -0.287 NA 
HETATM   22  H1  UNL     1     -10.006  10.386  71.583  1.00  0.00     0.000 HD 
BRANCH  19  23
HETATM   23  N   UNL     1      -8.543   8.209  71.696  1.00  0.00    -0.128 N  
HETATM   24  H   UNL     1      -7.644   8.597  71.411  1.00  0.00     0.000 HD 
BRANCH  23  25
HETATM   25  S   UNL     1      -8.628   7.280  73.010  1.00  0.00    -0.130 S  
HETATM   26  O   UNL     1      -8.286   5.922  72.663  1.00  0.00    -0.112 OA 
HETATM   27  O   UNL     1      -9.841   7.592  73.728  1.00  0.00    -0.286 OA 
HETATM   28  N   UNL     1      -7.378   7.815  73.987  1.00  0.00    -0.124 N  
HETATM   29  H1  UNL     1      -7.431   7.228  74.819  1.00  0.00     0.000 HD 
HETATM   30  H2  UNL     1      -6.710   8.563  73.794  1.00  0.00     0.000 HD 
ENDBRANCH  23  25
ENDBRANCH  19  23
ENDBRANCH  18  19
ENDBRANCH  17  18
ENDBRANCH  16  17
ENDBRANCH  15  16
ENDBRANCH  12  15
ENDBRANCH   5  10
TORSDOF 8
ENDMDL
MODEL      366
REMARK 921   NORMALIZED FREE ENERGY PREDICTED BY IDOCK:   -2.39 KCAL/MOL
REMARK 922        TOTAL FREE ENERGY PREDICTED BY IDOCK:   -4.69 KCAL/MOL
REMARK 923 INTER-LIGAND FREE ENERGY PREDICTED BY IDOCK:   -3.91 KCAL/MOL
REMARK 924 INTRA-LIGAND FREE ENERGY PREDICTED BY IDOCK:   -0.78 KCAL/MOL
REMARK 927      BINDING AFFINITY PREDICTED BY RF-SCORE:    0.00 PKD
ROOT
HETATM    1  N   UNL     1     -10.494  17.538  67.638  1.00  0.00    -0.362 NA 
HETATM    2  C   UNL     1     -10.450  16.271  68.116  1.00  0.00    -0.289 C  
HETATM    3  H2  UNL     1      -9.841  18.283  67.880  1.00  0.00     0.000 HD 
HETATM    4  H1  UNL     1     -11.282  17.630  66.997  1.00  0.00     0.000 HD 
HETATM    5  N   UNL     1     -11.314  15.396  67.733  1.00  0.00    -0.327 NA 
HETATM    6  N   UNL     1      -9.402  16.149  68.969  1.00  0.00    -0.237 NA 
HETATM    7  H2  UNL     1      -8.749  16.894  69.211  1.00  0.00     0.000 HD 
HETATM    8  H1  UNL     1      -9.369  15.195  69.329  1.00  0.00     0.000 HD 
HETATM    9  H   UNL     1     -12.038  15.639  67.057  1.00  0.00     0.000 HD 
ENDROOT
BRANCH   5  10
HETATM   10  C   UNL     1     -11.242  14.142  68.249  1.00  0.00    -0.272 A  
HETATM   11  N   UNL     1     -10.649  13.072  67.741  1.00  0.00    -0.223 NA 
HETATM   12  C   UNL     1     -10.786  11.976  68.589  1.00  0.00    -0.236 A  
HETATM   13  S   UNL     1     -11.988  13.865  69.787  1.00  0.00    -0.351 SA 
HETATM   14  C   UNL     1     -11.510  12.228  69.736  1.00  0.00    -0.166 A  
BRANCH  12  15
HETATM   15  C   UNL     1     -10.169  10.671  68.193  1.00  0.00    -0.168 C  
BRANCH  15  16
HETATM   16  S   UNL     1      -8.345  10.786  68.227  1.00  0.00    -0.132 SA 
BRANCH  16  17
HETATM   17  C   UNL     1      -8.010  10.308  69.959  1.00  0.00    -0.000 C  
BRANCH  17  18
HETATM   18  C   UNL     1      -8.921   9.218  70.514  1.00  0.00    -0.296 C  
BRANCH  18  19
HETATM   19  C   UNL     1      -8.331   7.816  70.362  1.00  0.00    -0.123 C  
HETATM   20  H2  UNL     1      -6.485   8.583  69.721  1.00  0.00     0.000 HD 
HETATM   21  N   UNL     1      -7.029   7.746  69.929  1.00  0.00    -0.050 NA 
HETATM   22  H1  UNL     1      -6.635   6.810  69.827  1.00  0.00     0.000 HD 
BRANCH  19  23
HETATM   23  N   UNL     1      -9.121   6.841  70.668  1.00  0.00    -0.155 N  
HETATM   24  H   UNL     1      -9.974   6.695  70.126  1.00  0.00     0.000 HD 
BRANCH  23  25
HETATM   25  S   UNL     1      -8.780   5.851  71.892  1.00  0.00    -0.138 S  
HETATM   26  O   UNL     1      -7.836   6.488  72.779  1.00  0.00    -0.101 OA 
HETATM   27  O   UNL     1      -8.548   4.524  71.373  1.00  0.00    -0.108 OA 
HETATM   28  N   UNL     1     -10.206   5.749  72.764  1.00  0.00    -0.180 N  
HETATM   29  H1  UNL     1      -9.990   5.123  73.539  1.00  0.00     0.000 HD 
HETATM   30  H2  UNL     1     -11.094   6.211  72.565  1.00  0.00     0.000 HD 
ENDBRANCH  23  25
ENDBRANCH  19  23
ENDBRANCH  18  19
ENDBRANCH  17  18
ENDBRANCH  16  17
ENDBRANCH  15  16
ENDBRANCH  12  15
ENDBRANCH   5  10
TORSDOF 8
ENDMDL
MODEL      367
REMARK 921   NORMALIZED FREE ENERGY PREDICTED BY IDOCK:   -2.37 KCAL/MOL
REMARK 922        TOTAL FREE ENERGY PREDICTED BY IDOCK:   -4.65 KCAL/MOL
REMARK 923 INTER-LIGAND FREE ENERGY PREDICTED BY IDOCK:   -3.82 KCAL/MOL
REMARK 924 INTRA-LIGAND FREE ENERGY PREDICTED BY IDOCK:   -0.83 KCAL/MOL
REMARK 927      BINDING AFFINITY PREDICTED BY RF-SCORE:    0.00 PKD
ROOT
HETATM    1  N   UNL     1     -10.801  17.737  67.665  1.00  0.00    -0.312 NA 
HETATM    2  C   UNL     1     -10.510  16.418  67.770  1.00  0.00    -0.300 C  
HETATM    3  H2  UNL     1     -10.421  18.474  68.259  1.00  0.00     0.000 HD 
HETATM    4  H1  UNL     1     -11.460  17.878  66.900  1.00  0.00     0.000 HD 
HETATM    5  N   UNL     1     -11.032  15.566  66.956  1.00  0.00    -0.311 NA 
HETATM    6  N   UNL     1      -9.634  16.230  68.788  1.00  0.00    -0.232 NA 
HETATM    7  H2  UNL     1      -9.254  16.967  69.382  1.00  0.00     0.000 HD 
HETATM    8  H1  UNL     1      -9.415  15.237  68.867  1.00  0.00     0.000 HD 
HETATM    9  H   UNL     1     -11.663  15.871  66.216  1.00  0.00     0.000 HD 
ENDROOT
BRANCH   5  10
HETATM   10  C   UNL     1     -10.724  14.252  67.106  1.00  0.00    -0.282 A  
HETATM   11  N   UNL     1     -10.471  13.584  68.222  1.00  0.00    -0.246 NA 
HETATM   12  C   UNL     1     -10.214  12.242  67.952  1.00  0.00    -0.200 A  
HETATM   13  S   UNL     1     -10.667  13.276  65.676  1.00  0.00    -0.287 SA 
HETATM   14  C   UNL     1     -10.255  11.910  66.613  1.00  0.00    -0.208 A  
BRANCH  12  15
HETATM   15  C   UNL     1      -9.919  11.317  69.091  1.00  0.00    -0.035 C  
BRANCH  15  16
HETATM   16  S   UNL     1     -11.277  10.114  69.312  1.00  0.00    -0.161 SA 
BRANCH  16  17
HETATM   17  C   UNL     1     -10.411   8.554  68.920  1.00  0.00    -0.210 C  
BRANCH  17  18
HETATM   18  C   UNL     1      -8.936   8.521  69.303  1.00  0.00    -0.146 C  
BRANCH  18  19
HETATM   19  C   UNL     1      -8.595   7.379  70.260  1.00  0.00    -0.145 C  
HETATM   20  H2  UNL     1      -8.998   8.572  71.940  1.00  0.00     0.000 HD 
HETATM   21  N   UNL     1      -8.705   7.656  71.602  1.00  0.00    -0.114 NA 
HETATM   22  H1  UNL     1      -8.477   6.894  72.241  1.00  0.00     0.000 HD 
BRANCH  19  23
HETATM   23  N   UNL     1      -8.247   6.267  69.703  1.00  0.00    -0.122 N  
HETATM   24  H   UNL     1      -7.406   6.235  69.126  1.00  0.00     0.000 HD 
BRANCH  23  25
HETATM   25  S   UNL     1      -9.122   4.929  69.907  1.00  0.00    -0.124 S  
HETATM   26  O   UNL     1     -10.133   5.163  70.911  1.00  0.00    -0.205 OA 
HETATM   27  O   UNL     1      -8.233   3.794  69.983  1.00  0.00    -0.056 OA 
HETATM   28  N   UNL     1      -9.960   4.749  68.469  1.00  0.00    -0.125 N  
HETATM   29  H1  UNL     1     -10.513   3.902  68.598  1.00  0.00     0.000 HD 
HETATM   30  H2  UNL     1      -9.925   5.351  67.646  1.00  0.00     0.000 HD 
ENDBRANCH  23  25
ENDBRANCH  19  23
ENDBRANCH  18  19
ENDBRANCH  17  18
ENDBRANCH  16  17
ENDBRANCH  15  16
ENDBRANCH  12  15
ENDBRANCH   5  10
TORSDOF 8
ENDMDL
MODEL      368
REMARK 921   NORMALIZED FREE ENERGY PREDICTED BY IDOCK:   -2.33 KCAL/MOL
REMARK 922        TOTAL FREE ENERGY PREDICTED BY IDOCK:   -4.60 KCAL/MOL
REMARK 923 INTER-LIGAND FREE ENERGY PREDICTED BY IDOCK:   -3.10 KCAL/MOL
REMARK 924 INTRA-LIGAND FREE ENERGY PREDICTED BY IDOCK:   -1.50 KCAL/MOL
REMARK 927      BINDING AFFINITY PREDICTED BY RF-SCORE:    0.00 PKD
ROOT
HETATM    1  N   UNL     1     -11.981   8.017  71.193  1.00  0.00    -0.313 NA 
HETATM    2  C   UNL     1     -11.193   7.522  70.208  1.00  0.00    -0.236 C  
HETATM    3  H2  UNL     1     -11.769   8.836  71.761  1.00  0.00     0.000 HD 
HETATM    4  H1  UNL     1     -12.819   7.443  71.275  1.00  0.00     0.000 HD 
HETATM    5  N   UNL     1     -11.561   6.488  69.532  1.00  0.00    -0.642 NA 
HETATM    6  N   UNL     1     -10.077   8.286  70.097  1.00  0.00    -0.188 NA 
HETATM    7  H2  UNL     1      -9.865   9.105  70.666  1.00  0.00     0.000 HD 
HETATM    8  H1  UNL     1      -9.485   7.913  69.355  1.00  0.00     0.000 HD 
HETATM    9  H   UNL     1     -12.454   6.032  69.721  1.00  0.00     0.000 HD 
ENDROOT
BRANCH   5  10
HETATM   10  C   UNL     1     -10.734   6.017  68.564  1.00  0.00    -0.286 A  
HETATM   11  N   UNL     1      -9.822   5.060  68.648  1.00  0.00    -0.161 NA 
HETATM   12  C   UNL     1      -9.194   4.861  67.422  1.00  0.00    -0.125 A  
HETATM   13  S   UNL     1     -10.874   6.714  66.984  1.00  0.00    -0.362 SA 
HETATM   14  C   UNL     1      -9.629   5.697  66.413  1.00  0.00    -0.157 A  
BRANCH  12  15
HETATM   15  C   UNL     1      -8.136   3.807  67.312  1.00  0.00    -0.091 C  
BRANCH  15  16
HETATM   16  S   UNL     1      -6.791   4.118  68.508  1.00  0.00    -0.048 SA 
BRANCH  16  17
HETATM   17  C   UNL     1      -6.210   5.755  67.942  1.00  0.00    -0.029 C  
BRANCH  17  18
HETATM   18  C   UNL     1      -5.453   6.567  68.987  1.00  0.00    -0.016 C  
BRANCH  18  19
HETATM   19  C   UNL     1      -6.338   7.585  69.706  1.00  0.00    -0.031 C  
HETATM   20  H2  UNL     1      -7.670   6.089  70.336  1.00  0.00     0.000 HD 
HETATM   21  N   UNL     1      -7.448   7.085  70.343  1.00  0.00    -0.084 NA 
HETATM   22  H1  UNL     1      -8.040   7.764  70.822  1.00  0.00     0.000 HD 
BRANCH  19  23
HETATM   23  N   UNL     1      -5.941   8.813  69.646  1.00  0.00    -0.032 N  
HETATM   24  H   UNL     1      -5.120   9.102  70.177  1.00  0.00     0.000 HD 
BRANCH  23  25
HETATM   25  S   UNL     1      -6.726   9.894  68.745  1.00  0.00    -0.050 S  
HETATM   26  O   UNL     1      -7.000  11.071  69.533  1.00  0.00    -0.117 OA 
HETATM   27  O   UNL     1      -7.768   9.221  68.007  1.00  0.00    -0.088 OA 
HETATM   28  N   UNL     1      -5.606  10.381  67.598  1.00  0.00    -0.044 N  
HETATM   29  H1  UNL     1      -6.103  11.065  67.028  1.00  0.00     0.000 HD 
HETATM   30  H2  UNL     1      -4.642  10.064  67.493  1.00  0.00     0.000 HD 
ENDBRANCH  23  25
ENDBRANCH  19  23
ENDBRANCH  18  19
ENDBRANCH  17  18
ENDBRANCH  16  17
ENDBRANCH  15  16
ENDBRANCH  12  15
ENDBRANCH   5  10
TORSDOF 8
ENDMDL
MODEL      369
REMARK 921   NORMALIZED FREE ENERGY PREDICTED BY IDOCK:   -2.32 KCAL/MOL
REMARK 922        TOTAL FREE ENERGY PREDICTED BY IDOCK:   -4.58 KCAL/MOL
REMARK 923 INTER-LIGAND FREE ENERGY PREDICTED BY IDOCK:   -3.82 KCAL/MOL
REMARK 924 INTRA-LIGAND FREE ENERGY PREDICTED BY IDOCK:   -0.76 KCAL/MOL
REMARK 927      BINDING AFFINITY PREDICTED BY RF-SCORE:    0.00 PKD
ROOT
HETATM    1  N   UNL     1     -12.253   7.384  72.570  1.00  0.00    -0.525 NA 
HETATM    2  C   UNL     1     -11.132   7.397  71.808  1.00  0.00    -0.238 C  
HETATM    3  H2  UNL     1     -12.275   7.448  73.587  1.00  0.00     0.000 HD 
HETATM    4  H1  UNL     1     -13.070   7.301  71.966  1.00  0.00     0.000 HD 
HETATM    5  N   UNL     1     -11.212   7.328  70.524  1.00  0.00    -0.274 NA 
HETATM    6  N   UNL     1     -10.044   7.507  72.611  1.00  0.00    -0.203 NA 
HETATM    7  H2  UNL     1     -10.066   7.571  73.629  1.00  0.00     0.000 HD 
HETATM    8  H1  UNL     1      -9.201   7.517  72.038  1.00  0.00     0.000 HD 
HETATM    9  H   UNL     1     -12.119   7.273  70.061  1.00  0.00     0.000 HD 
ENDROOT
BRANCH   5  10
HETATM   10  C   UNL     1     -10.063   7.330  69.801  1.00  0.00    -0.194 A  
HETATM   11  N   UNL     1      -8.862   7.759  70.157  1.00  0.00    -0.144 NA 
HETATM   12  C   UNL     1      -7.940   7.569  69.132  1.00  0.00    -0.121 A  
HETATM   13  S   UNL     1     -10.125   6.670  68.200  1.00  0.00    -0.170 SA 
HETATM   14  C   UNL     1      -8.467   7.011  67.985  1.00  0.00    -0.125 A  
BRANCH  12  15
HETATM   15  C   UNL     1      -6.517   7.980  69.350  1.00  0.00    -0.035 C  
BRANCH  15  16
HETATM   16  S   UNL     1      -6.375   9.040  70.832  1.00  0.00    -0.067 SA 
BRANCH  16  17
HETATM   17  C   UNL     1      -6.454  10.698  70.069  1.00  0.00    -0.138 C  
BRANCH  17  18
HETATM   18  C   UNL     1      -7.074  10.738  68.677  1.00  0.00    -0.078 C  
BRANCH  18  19
HETATM   19  C   UNL     1      -7.856  12.024  68.411  1.00  0.00    -0.147 C  
HETATM   20  H2  UNL     1      -6.906  13.016  69.999  1.00  0.00     0.000 HD 
HETATM   21  N   UNL     1      -7.589  13.084  69.244  1.00  0.00    -0.299 NA 
HETATM   22  H1  UNL     1      -8.111  13.942  69.067  1.00  0.00     0.000 HD 
BRANCH  19  23
HETATM   23  N   UNL     1      -8.684  11.982  67.419  1.00  0.00    -0.162 N  
HETATM   24  H   UNL     1      -8.339  12.127  66.470  1.00  0.00     0.000 HD 
BRANCH  23  25
HETATM   25  S   UNL     1     -10.252  11.702  67.661  1.00  0.00    -0.191 S  
HETATM   26  O   UNL     1     -10.722  12.510  68.761  1.00  0.00    -0.228 OA 
HETATM   27  O   UNL     1     -10.488  10.279  67.617  1.00  0.00    -0.204 OA 
HETATM   28  N   UNL     1     -11.006  12.325  66.301  1.00  0.00    -0.278 N  
HETATM   29  H1  UNL     1     -11.999  12.148  66.454  1.00  0.00     0.000 HD 
HETATM   30  H2  UNL     1     -10.570  12.779  65.499  1.00  0.00     0.000 HD 
ENDBRANCH  23  25
ENDBRANCH  19  23
ENDBRANCH  18  19
ENDBRANCH  17  18
ENDBRANCH  16  17
ENDBRANCH  15  16
ENDBRANCH  12  15
ENDBRANCH   5  10
TORSDOF 8
ENDMDL
MODEL      370
REMARK 921   NORMALIZED FREE ENERGY PREDICTED BY IDOCK:   -2.30 KCAL/MOL
REMARK 922        TOTAL FREE ENERGY PREDICTED BY IDOCK:   -4.55 KCAL/MOL
REMARK 923 INTER-LIGAND FREE ENERGY PREDICTED BY IDOCK:   -3.02 KCAL/MOL
REMARK 924 INTRA-LIGAND FREE ENERGY PREDICTED BY IDOCK:   -1.53 KCAL/MOL
REMARK 927      BINDING AFFINITY PREDICTED BY RF-SCORE:    0.00 PKD
ROOT
HETATM    1  N   UNL     1      -7.711   1.597  72.291  1.00  0.00    -0.043 NA 
HETATM    2  C   UNL     1      -7.824   2.817  71.711  1.00  0.00    -0.052 C  
HETATM    3  H2  UNL     1      -8.467   0.921  72.393  1.00  0.00     0.000 HD 
HETATM    4  H1  UNL     1      -6.752   1.462  72.608  1.00  0.00     0.000 HD 
HETATM    5  N   UNL     1      -6.801   3.594  71.615  1.00  0.00    -0.026 NA 
HETATM    6  N   UNL     1      -9.101   2.998  71.289  1.00  0.00    -0.099 NA 
HETATM    7  H2  UNL     1      -9.857   2.321  71.391  1.00  0.00     0.000 HD 
HETATM    8  H1  UNL     1      -9.185   3.916  70.852  1.00  0.00     0.000 HD 
HETATM    9  H   UNL     1      -5.888   3.299  71.964  1.00  0.00     0.000 HD 
ENDROOT
BRANCH   5  10
HETATM   10  C   UNL     1      -6.962   4.813  71.040  1.00  0.00    -0.043 A  
HETATM   11  N   UNL     1      -7.429   5.103  69.835  1.00  0.00    -0.060 NA 
HETATM   12  C   UNL     1      -7.453   6.480  69.628  1.00  0.00    -0.093 A  
HETATM   13  S   UNL     1      -6.536   6.204  71.980  1.00  0.00    -0.060 SA 
HETATM   14  C   UNL     1      -6.977   7.226  70.687  1.00  0.00    -0.057 A  
BRANCH  12  15
HETATM   15  C   UNL     1      -7.964   7.008  68.324  1.00  0.00    -0.123 C  
BRANCH  15  16
HETATM   16  S   UNL     1      -8.300   5.638  67.162  1.00  0.00    -0.103 SA 
BRANCH  16  17
HETATM   17  C   UNL     1      -9.745   4.861  67.966  1.00  0.00    -0.151 C  
BRANCH  17  18
HETATM   18  C   UNL     1     -10.952   5.775  68.144  1.00  0.00    -0.150 C  
BRANCH  18  19
HETATM   19  C   UNL     1     -11.047   6.369  69.549  1.00  0.00    -0.396 C  
HETATM   20  H2  UNL     1     -11.449   8.285  68.791  1.00  0.00     0.000 HD 
HETATM   21  N   UNL     1     -11.318   7.714  69.626  1.00  0.00    -0.451 NA 
HETATM   22  H1  UNL     1     -11.381   8.111  70.564  1.00  0.00     0.000 HD 
BRANCH  19  23
HETATM   23  N   UNL     1     -10.871   5.537  70.522  1.00  0.00    -0.243 N  
HETATM   24  H   UNL     1     -10.492   4.610  70.328  1.00  0.00     0.000 HD 
BRANCH  23  25
HETATM   25  S   UNL     1     -11.241   5.943  72.036  1.00  0.00    -0.254 S  
HETATM   26  O   UNL     1     -12.631   6.326  72.107  1.00  0.00    -0.257 OA 
HETATM   27  O   UNL     1     -10.198   6.791  72.563  1.00  0.00    -0.175 OA 
HETATM   28  N   UNL     1     -11.132   4.510  72.897  1.00  0.00    -0.187 N  
HETATM   29  H1  UNL     1     -11.366   4.767  73.855  1.00  0.00     0.000 HD 
HETATM   30  H2  UNL     1     -10.887   3.585  72.541  1.00  0.00     0.000 HD 
ENDBRANCH  23  25
ENDBRANCH  19  23
ENDBRANCH  18  19
ENDBRANCH  17  18
ENDBRANCH  16  17
ENDBRANCH  15  16
ENDBRANCH  12  15
ENDBRANCH   5  10
TORSDOF 8
ENDMDL
MODEL      371
REMARK 921   NORMALIZED FREE ENERGY PREDICTED BY IDOCK:   -2.26 KCAL/MOL
REMARK 922        TOTAL FREE ENERGY PREDICTED BY IDOCK:   -4.49 KCAL/MOL
REMARK 923 INTER-LIGAND FREE ENERGY PREDICTED BY IDOCK:   -5.11 KCAL/MOL
REMARK 924 INTRA-LIGAND FREE ENERGY PREDICTED BY IDOCK:    0.62 KCAL/MOL
REMARK 927      BINDING AFFINITY PREDICTED BY RF-SCORE:    0.00 PKD
ROOT
HETATM    1  N   UNL     1      -9.121  11.661  62.331  1.00  0.00    -0.476 NA 
HETATM    2  C   UNL     1      -9.666  11.666  63.571  1.00  0.00    -0.322 C  
HETATM    3  H2  UNL     1      -8.992  10.835  61.746  1.00  0.00     0.000 HD 
HETATM    4  H1  UNL     1      -8.862  12.612  62.072  1.00  0.00     0.000 HD 
HETATM    5  N   UNL     1      -9.802  12.769  64.223  1.00  0.00    -0.606 NA 
HETATM    6  N   UNL     1     -10.012  10.400  63.915  1.00  0.00    -0.394 NA 
HETATM    7  H2  UNL     1      -9.882   9.574  63.331  1.00  0.00     0.000 HD 
HETATM    8  H1  UNL     1     -10.422  10.403  64.849  1.00  0.00     0.000 HD 
HETATM    9  H   UNL     1      -9.512  13.656  63.811  1.00  0.00     0.000 HD 
ENDROOT
BRANCH   5  10
HETATM   10  C   UNL     1     -10.340  12.726  65.469  1.00  0.00    -0.284 A  
HETATM   11  N   UNL     1      -9.993  11.962  66.493  1.00  0.00    -0.199 NA 
HETATM   12  C   UNL     1     -10.781  12.233  67.608  1.00  0.00    -0.220 A  
HETATM   13  S   UNL     1     -11.640  13.816  65.816  1.00  0.00    -0.344 SA 
HETATM   14  C   UNL     1     -11.746  13.199  67.404  1.00  0.00    -0.370 A  
BRANCH  12  15
HETATM   15  C   UNL     1     -10.531  11.477  68.875  1.00  0.00    -0.187 C  
BRANCH  15  16
HETATM   16  S   UNL     1      -8.741  11.402  69.236  1.00  0.00     0.509 SA 
BRANCH  16  17
HETATM   17  C   UNL     1      -8.600   9.700  69.886  1.00  0.00    -0.203 C  
BRANCH  17  18
HETATM   18  C   UNL     1      -9.773   9.238  70.743  1.00  0.00    -0.348 C  
BRANCH  18  19
HETATM   19  C   UNL     1     -10.502   8.031  70.152  1.00  0.00    -0.225 C  
HETATM   20  H2  UNL     1      -9.358   8.111  68.392  1.00  0.00     0.000 HD 
HETATM   21  N   UNL     1     -10.101   7.630  68.900  1.00  0.00    -0.192 NA 
HETATM   22  H1  UNL     1     -10.588   6.825  68.505  1.00  0.00     0.000 HD 
BRANCH  19  23
HETATM   23  N   UNL     1     -11.415   7.508  70.900  1.00  0.00    -0.278 N  
HETATM   24  H   UNL     1     -11.442   6.496  71.027  1.00  0.00     0.000 HD 
BRANCH  23  25
HETATM   25  S   UNL     1     -12.513   8.430  71.635  1.00  0.00    -0.340 S  
HETATM   26  O   UNL     1     -12.387   8.283  73.065  1.00  0.00    -0.205 OA 
HETATM   27  O   UNL     1     -13.784   8.267  70.970  1.00  0.00    -0.056 OA 
HETATM   28  N   UNL     1     -12.033  10.001  71.307  1.00  0.00    -0.376 N  
HETATM   29  H1  UNL     1     -12.728  10.584  71.772  1.00  0.00     0.000 HD 
HETATM   30  H2  UNL     1     -11.225  10.306  70.764  1.00  0.00     0.000 HD 
ENDBRANCH  23  25
ENDBRANCH  19  23
ENDBRANCH  18  19
ENDBRANCH  17  18
ENDBRANCH  16  17
ENDBRANCH  15  16
ENDBRANCH  12  15
ENDBRANCH   5  10
TORSDOF 8
ENDMDL
MODEL      372
REMARK 921   NORMALIZED FREE ENERGY PREDICTED BY IDOCK:   -2.16 KCAL/MOL
REMARK 922        TOTAL FREE ENERGY PREDICTED BY IDOCK:   -4.34 KCAL/MOL
REMARK 923 INTER-LIGAND FREE ENERGY PREDICTED BY IDOCK:   -3.32 KCAL/MOL
REMARK 924 INTRA-LIGAND FREE ENERGY PREDICTED BY IDOCK:   -1.02 KCAL/MOL
REMARK 927      BINDING AFFINITY PREDICTED BY RF-SCORE:    0.00 PKD
ROOT
HETATM    1  N   UNL     1     -11.866   7.616  72.976  1.00  0.00    -0.598 NA 
HETATM    2  C   UNL     1     -10.972   7.276  72.016  1.00  0.00    -0.238 C  
HETATM    3  H2  UNL     1     -12.543   8.376  72.908  1.00  0.00     0.000 HD 
HETATM    4  H1  UNL     1     -11.756   6.994  73.776  1.00  0.00     0.000 HD 
HETATM    5  N   UNL     1     -10.168   6.284  72.192  1.00  0.00    -0.183 NA 
HETATM    6  N   UNL     1     -11.118   8.104  70.952  1.00  0.00    -0.254 NA 
HETATM    7  H2  UNL     1     -11.794   8.864  70.884  1.00  0.00     0.000 HD 
HETATM    8  H1  UNL     1     -10.445   7.847  70.229  1.00  0.00     0.000 HD 
HETATM    9  H   UNL     1     -10.198   5.735  73.051  1.00  0.00     0.000 HD 
ENDROOT
BRANCH   5  10
HETATM   10  C   UNL     1      -9.279   5.987  71.210  1.00  0.00    -0.146 A  
HETATM   11  N   UNL     1      -9.504   5.806  69.918  1.00  0.00    -0.147 NA 
HETATM   12  C   UNL     1      -8.320   5.533  69.238  1.00  0.00    -0.101 A  
HETATM   13  S   UNL     1      -7.612   5.839  71.658  1.00  0.00    -0.101 SA 
HETATM   14  C   UNL     1      -7.198   5.488  70.040  1.00  0.00    -0.068 A  
BRANCH  12  15
HETATM   15  C   UNL     1      -8.368   5.311  67.759  1.00  0.00    -0.098 C  
BRANCH  15  16
HETATM   16  S   UNL     1      -9.898   4.430  67.289  1.00  0.00    -0.121 SA 
BRANCH  16  17
HETATM   17  C   UNL     1      -9.355   3.607  65.751  1.00  0.00    -0.164 C  
BRANCH  17  18
HETATM   18  C   UNL     1     -10.068   4.069  64.486  1.00  0.00    -0.209 C  
BRANCH  18  19
HETATM   19  C   UNL     1      -9.116   4.284  63.310  1.00  0.00    -0.134 C  
HETATM   20  H2  UNL     1      -8.740   2.224  63.146  1.00  0.00     0.000 HD 
HETATM   21  N   UNL     1      -8.541   3.155  62.777  1.00  0.00    -0.078 NA 
HETATM   22  H1  UNL     1      -7.905   3.297  61.992  1.00  0.00     0.000 HD 
BRANCH  19  23
HETATM   23  N   UNL     1      -8.958   5.509  62.933  1.00  0.00    -0.343 N  
HETATM   24  H   UNL     1      -9.607   5.915  62.258  1.00  0.00     0.000 HD 
BRANCH  23  25
HETATM   25  S   UNL     1      -7.752   6.406  63.515  1.00  0.00    -0.106 S  
HETATM   26  O   UNL     1      -8.157   7.008  64.763  1.00  0.00    -0.128 OA 
HETATM   27  O   UNL     1      -7.195   7.196  62.442  1.00  0.00    -0.069 OA 
HETATM   28  N   UNL     1      -6.562   5.300  63.923  1.00  0.00    -0.036 N  
HETATM   29  H1  UNL     1      -5.799   5.867  64.291  1.00  0.00     0.000 HD 
HETATM   30  H2  UNL     1      -6.594   4.285  63.826  1.00  0.00     0.000 HD 
ENDBRANCH  23  25
ENDBRANCH  19  23
ENDBRANCH  18  19
ENDBRANCH  17  18
ENDBRANCH  16  17
ENDBRANCH  15  16
ENDBRANCH  12  15
ENDBRANCH   5  10
TORSDOF 8
ENDMDL
MODEL      373
REMARK 921   NORMALIZED FREE ENERGY PREDICTED BY IDOCK:   -1.94 KCAL/MOL
REMARK 922        TOTAL FREE ENERGY PREDICTED BY IDOCK:   -4.03 KCAL/MOL
REMARK 923 INTER-LIGAND FREE ENERGY PREDICTED BY IDOCK:   -3.25 KCAL/MOL
REMARK 924 INTRA-LIGAND FREE ENERGY PREDICTED BY IDOCK:   -0.79 KCAL/MOL
REMARK 927      BINDING AFFINITY PREDICTED BY RF-SCORE:    0.00 PKD
ROOT
HETATM    1  N   UNL     1      -9.028  15.568  68.462  1.00  0.00    -0.184 NA 
HETATM    2  C   UNL     1      -8.456  14.407  68.062  1.00  0.00    -0.164 C  
HETATM    3  H2  UNL     1      -9.390  16.291  67.842  1.00  0.00     0.000 HD 
HETATM    4  H1  UNL     1      -9.041  15.604  69.481  1.00  0.00     0.000 HD 
HETATM    5  N   UNL     1      -8.045  13.546  68.928  1.00  0.00    -0.345 NA 
HETATM    6  N   UNL     1      -8.439  14.358  66.706  1.00  0.00    -0.416 NA 
HETATM    7  H2  UNL     1      -8.800  15.082  66.086  1.00  0.00     0.000 HD 
HETATM    8  H1  UNL     1      -8.008  13.484  66.405  1.00  0.00     0.000 HD 
HETATM    9  H   UNL     1      -8.153  13.720  69.927  1.00  0.00     0.000 HD 
ENDROOT
BRANCH   5  10
HETATM   10  C   UNL     1      -7.465  12.402  68.483  1.00  0.00    -0.112 A  
HETATM   11  N   UNL     1      -8.028  11.377  67.860  1.00  0.00    -0.115 NA 
HETATM   12  C   UNL     1      -7.083  10.402  67.552  1.00  0.00    -0.086 A  
HETATM   13  S   UNL     1      -5.757  12.228  68.716  1.00  0.00    -0.056 SA 
HETATM   14  C   UNL     1      -5.801  10.694  67.970  1.00  0.00    -0.042 A  
BRANCH  12  15
HETATM   15  C   UNL     1      -7.526   9.166  66.831  1.00  0.00    -0.091 C  
BRANCH  15  16
HETATM   16  S   UNL     1      -8.789   8.273  67.803  1.00  0.00    -0.137 SA 
BRANCH  16  17
HETATM   17  C   UNL     1      -9.372   7.062  66.565  1.00  0.00    -0.159 C  
BRANCH  17  18
HETATM   18  C   UNL     1      -8.278   6.452  65.696  1.00  0.00    -0.140 C  
BRANCH  18  19
HETATM   19  C   UNL     1      -8.821   5.813  64.418  1.00  0.00     0.252 C  
HETATM   20  H2  UNL     1      -7.719   7.128  63.207  1.00  0.00     0.000 HD 
HETATM   21  N   UNL     1      -8.376   6.347  63.233  1.00  0.00    -0.323 NA 
HETATM   22  H1  UNL     1      -8.738   5.922  62.380  1.00  0.00     0.000 HD 
BRANCH  19  23
HETATM   23  N   UNL     1      -9.638   4.827  64.588  1.00  0.00    -0.356 N  
HETATM   24  H   UNL     1     -10.504   4.975  65.106  1.00  0.00     0.000 HD 
BRANCH  23  25
HETATM   25  S   UNL     1      -9.308   3.366  63.994  1.00  0.00    -0.138 S  
HETATM   26  O   UNL     1      -8.697   2.555  65.020  1.00  0.00    -0.102 OA 
HETATM   27  O   UNL     1      -8.704   3.515  62.691  1.00  0.00    -0.084 OA 
HETATM   28  N   UNL     1     -10.808   2.673  63.718  1.00  0.00    -0.449 N  
HETATM   29  H1  UNL     1     -10.599   1.749  63.342  1.00  0.00     0.000 HD 
HETATM   30  H2  UNL     1     -11.726   3.084  63.887  1.00  0.00     0.000 HD 
ENDBRANCH  23  25
ENDBRANCH  19  23
ENDBRANCH  18  19
ENDBRANCH  17  18
ENDBRANCH  16  17
ENDBRANCH  15  16
ENDBRANCH  12  15
ENDBRANCH   5  10
TORSDOF 8
ENDMDL
MODEL      374
REMARK 921   NORMALIZED FREE ENERGY PREDICTED BY IDOCK:   -1.47 KCAL/MOL
REMARK 922        TOTAL FREE ENERGY PREDICTED BY IDOCK:   -3.34 KCAL/MOL
REMARK 923 INTER-LIGAND FREE ENERGY PREDICTED BY IDOCK:   -3.84 KCAL/MOL
REMARK 924 INTRA-LIGAND FREE ENERGY PREDICTED BY IDOCK:    0.50 KCAL/MOL
REMARK 927      BINDING AFFINITY PREDICTED BY RF-SCORE:    0.00 PKD
ROOT
HETATM    1  N   UNL     1     -11.432  17.927  73.434  1.00  0.00     0.856 NA 
HETATM    2  C   UNL     1     -11.916  16.800  72.858  1.00  0.00    -0.094 C  
HETATM    3  H2  UNL     1     -10.856  18.627  72.968  1.00  0.00     0.000 HD 
HETATM    4  H1  UNL     1     -11.735  17.965  74.407  1.00  0.00     0.000 HD 
HETATM    5  N   UNL     1     -12.653  15.984  73.530  1.00  0.00    -0.523 NA 
HETATM    6  N   UNL     1     -11.513  16.748  71.563  1.00  0.00    -0.390 NA 
HETATM    7  H2  UNL     1     -10.936  17.449  71.097  1.00  0.00     0.000 HD 
HETATM    8  H1  UNL     1     -11.877  15.901  71.129  1.00  0.00     0.000 HD 
HETATM    9  H   UNL     1     -12.892  16.179  74.502  1.00  0.00     0.000 HD 
ENDROOT
BRANCH   5  10
HETATM   10  C   UNL     1     -13.105  14.860  72.917  1.00  0.00    -0.488 A  
HETATM   11  N   UNL     1     -12.699  13.610  73.078  1.00  0.00    -0.094 NA 
HETATM   12  C   UNL     1     -13.431  12.740  72.274  1.00  0.00    -0.490 A  
HETATM   13  S   UNL     1     -14.401  15.035  71.781  1.00  0.00    -0.624 SA 
HETATM   14  C   UNL     1     -14.382  13.355  71.484  1.00  0.00     0.826 A  
BRANCH  12  15
HETATM   15  C   UNL     1     -13.128  11.276  72.327  1.00  0.00     0.072 C  
BRANCH  15  16
HETATM   16  S   UNL     1     -11.878  10.832  71.069  1.00  0.00    -0.144 SA 
BRANCH  16  17
HETATM   17  C   UNL     1     -12.294  12.024  69.747  1.00  0.00    -0.047 C  
BRANCH  17  18
HETATM   18  C   UNL     1     -11.532  13.343  69.806  1.00  0.00    -0.236 C  
BRANCH  18  19
HETATM   19  C   UNL     1     -11.473  14.056  68.455  1.00  0.00    -0.302 C  
HETATM   20  H2  UNL     1     -12.916  15.460  69.053  1.00  0.00     0.000 HD 
HETATM   21  N   UNL     1     -12.298  15.145  68.305  1.00  0.00    -0.458 NA 
HETATM   22  H1  UNL     1     -12.259  15.621  67.403  1.00  0.00     0.000 HD 
BRANCH  19  23
HETATM   23  N   UNL     1     -10.642  13.563  67.597  1.00  0.00    -0.239 N  
HETATM   24  H   UNL     1      -9.677  13.386  67.877  1.00  0.00     0.000 HD 
BRANCH  23  25
HETATM   25  S   UNL     1     -11.109  13.224  66.093  1.00  0.00    -0.288 S  
HETATM   26  O   UNL     1     -11.402  11.814  65.985  1.00  0.00    -0.330 OA 
HETATM   27  O   UNL     1     -10.220  13.883  65.166  1.00  0.00    -0.359 OA 
HETATM   28  N   UNL     1     -12.586  13.996  65.925  1.00  0.00    -0.487 N  
HETATM   29  H1  UNL     1     -12.882  13.781  64.973  1.00  0.00     0.000 HD 
HETATM   30  H2  UNL     1     -13.080  14.556  66.620  1.00  0.00     0.000 HD 
ENDBRANCH  23  25
ENDBRANCH  19  23
ENDBRANCH  18  19
ENDBRANCH  17  18
ENDBRANCH  16  17
ENDBRANCH  15  16
ENDBRANCH  12  15
ENDBRANCH   5  10
TORSDOF 8
ENDMDL
MODEL      375
REMARK 921   NORMALIZED FREE ENERGY PREDICTED BY IDOCK:   -1.30 KCAL/MOL
REMARK 922        TOTAL FREE ENERGY PREDICTED BY IDOCK:   -3.09 KCAL/MOL
REMARK 923 INTER-LIGAND FREE ENERGY PREDICTED BY IDOCK:   -2.99 KCAL/MOL
REMARK 924 INTRA-LIGAND FREE ENERGY PREDICTED BY IDOCK:   -0.09 KCAL/MOL
REMARK 927      BINDING AFFINITY PREDICTED BY RF-SCORE:    0.00 PKD
ROOT
HETATM    1  N   UNL     1     -11.433  17.926  73.434  1.00  0.00     0.856 NA 
HETATM    2  C   UNL     1     -11.919  16.802  72.855  1.00  0.00    -0.094 C  
HETATM    3  H2  UNL     1     -10.855  18.626  72.969  1.00  0.00     0.000 HD 
HETATM    4  H1  UNL     1     -11.735  17.963  74.407  1.00  0.00     0.000 HD 
HETATM    5  N   UNL     1     -12.657  15.987  73.526  1.00  0.00    -0.523 NA 
HETATM    6  N   UNL     1     -11.516  16.752  71.560  1.00  0.00    -0.390 NA 
HETATM    7  H2  UNL     1     -10.938  17.452  71.096  1.00  0.00     0.000 HD 
HETATM    8  H1  UNL     1     -11.883  15.906  71.124  1.00  0.00     0.000 HD 
HETATM    9  H   UNL     1     -12.896  16.179  74.499  1.00  0.00     0.000 HD 
ENDROOT
BRANCH   5  10
HETATM   10  C   UNL     1     -13.112  14.865  72.910  1.00  0.00    -0.488 A  
HETATM   11  N   UNL     1     -12.709  13.613  73.069  1.00  0.00    -0.094 NA 
HETATM   12  C   UNL     1     -13.443  12.747  72.263  1.00  0.00    -0.490 A  
HETATM   13  S   UNL     1     -14.409  15.045  71.776  1.00  0.00    -0.624 SA 
HETATM   14  C   UNL     1     -14.393  13.365  71.475  1.00  0.00     0.826 A  
BRANCH  12  15
HETATM   15  C   UNL     1     -13.142  11.282  72.312  1.00  0.00     0.072 C  
BRANCH  15  16
HETATM   16  S   UNL     1     -11.895  10.838  71.052  1.00  0.00    -0.144 SA 
BRANCH  16  17
HETATM   17  C   UNL     1     -11.318   9.231  71.701  1.00  0.00    -0.397 C  
BRANCH  17  18
HETATM   18  C   UNL     1     -12.060   8.014  71.162  1.00  0.00    -0.284 C  
BRANCH  18  19
HETATM   19  C   UNL     1     -11.245   6.725  71.267  1.00  0.00    -0.276 C  
HETATM   20  H2  UNL     1     -12.385   6.051  72.897  1.00  0.00     0.000 HD 
HETATM   21  N   UNL     1     -11.612   5.851  72.263  1.00  0.00    -0.303 NA 
HETATM   22  H1  UNL     1     -11.068   4.991  72.333  1.00  0.00     0.000 HD 
BRANCH  19  23
HETATM   23  N   UNL     1     -10.299   6.588  70.398  1.00  0.00    -0.193 N  
HETATM   24  H   UNL     1     -10.503   6.726  69.408  1.00  0.00     0.000 HD 
BRANCH  23  25
HETATM   25  S   UNL     1      -8.803   6.205  70.856  1.00  0.00    -0.136 S  
HETATM   26  O   UNL     1      -7.996   7.400  70.919  1.00  0.00    -0.095 OA 
HETATM   27  O   UNL     1      -8.370   5.041  70.119  1.00  0.00    -0.083 OA 
HETATM   28  N   UNL     1      -8.964   5.696  72.444  1.00  0.00    -0.135 N  
HETATM   29  H1  UNL     1      -8.017   5.454  72.734  1.00  0.00     0.000 HD 
HETATM   30  H2  UNL     1      -9.819   5.641  72.998  1.00  0.00     0.000 HD 
ENDBRANCH  23  25
ENDBRANCH  19  23
ENDBRANCH  18  19
ENDBRANCH  17  18
ENDBRANCH  16  17
ENDBRANCH  15  16
ENDBRANCH  12  15
ENDBRANCH   5  10
TORSDOF 8
ENDMDL
MODEL      376
REMARK 921   NORMALIZED FREE ENERGY PREDICTED BY IDOCK:   -0.94 KCAL/MOL
REMARK 922        TOTAL FREE ENERGY PREDICTED BY IDOCK:   -2.56 KCAL/MOL
REMARK 923 INTER-LIGAND FREE ENERGY PREDICTED BY IDOCK:   -3.86 KCAL/MOL
REMARK 924 INTRA-LIGAND FREE ENERGY PREDICTED BY IDOCK:    1.30 KCAL/MOL
REMARK 927      BINDING AFFINITY PREDICTED BY RF-SCORE:    0.00 PKD
ROOT
HETATM    1  N   UNL     1     -11.682  11.868  64.531  1.00  0.00    -0.286 NA 
HETATM    2  C   UNL     1     -11.029  13.049  64.646  1.00  0.00    -0.342 C  
HETATM    3  H2  UNL     1     -11.492  11.155  63.827  1.00  0.00     0.000 HD 
HETATM    4  H1  UNL     1     -12.394  11.804  65.258  1.00  0.00     0.000 HD 
HETATM    5  N   UNL     1     -11.334  13.878  65.584  1.00  0.00    -0.305 NA 
HETATM    6  N   UNL     1     -10.082  13.135  63.678  1.00  0.00    -0.611 NA 
HETATM    7  H2  UNL     1      -9.891  12.422  62.975  1.00  0.00     0.000 HD 
HETATM    8  H1  UNL     1      -9.589  14.024  63.765  1.00  0.00     0.000 HD 
HETATM    9  H   UNL     1     -12.064  13.654  66.260  1.00  0.00     0.000 HD 
ENDROOT
BRANCH   5  10
HETATM   10  C   UNL     1     -10.663  15.056  65.654  1.00  0.00    -0.354 A  
HETATM   11  N   UNL     1     -11.153  16.286  65.699  1.00  0.00    -0.074 NA 
HETATM   12  C   UNL     1     -10.131  17.227  65.785  1.00  0.00    -0.141 A  
HETATM   13  S   UNL     1      -8.933  14.988  65.720  1.00  0.00     0.646 SA 
HETATM   14  C   UNL     1      -8.859  16.692  65.781  1.00  0.00     0.097 A  
BRANCH  12  15
HETATM   15  C   UNL     1     -10.487  18.679  65.860  1.00  0.00    -0.356 C  
BRANCH  15  16
HETATM   16  S   UNL     1      -9.687  19.463  67.304  1.00  0.00    -0.353 SA 
BRANCH  16  17
HETATM   17  C   UNL     1      -8.692  18.067  67.937  1.00  0.00    -0.257 C  
BRANCH  17  18
HETATM   18  C   UNL     1      -9.323  17.297  69.091  1.00  0.00    -0.033 C  
BRANCH  18  19
HETATM   19  C   UNL     1      -8.731  15.899  69.268  1.00  0.00    -0.250 C  
HETATM   20  H2  UNL     1     -10.424  15.237  70.319  1.00  0.00     0.000 HD 
HETATM   21  N   UNL     1      -9.505  14.991  69.950  1.00  0.00    -0.461 NA 
HETATM   22  H1  UNL     1      -9.110  14.058  70.068  1.00  0.00     0.000 HD 
BRANCH  19  23
HETATM   23  N   UNL     1      -7.564  15.715  68.745  1.00  0.00    -0.150 N  
HETATM   24  H   UNL     1      -7.459  15.734  67.730  1.00  0.00     0.000 HD 
BRANCH  23  25
HETATM   25  S   UNL     1      -6.272  15.456  69.673  1.00  0.00    -0.162 S  
HETATM   26  O   UNL     1      -5.967  16.653  70.420  1.00  0.00    -0.130 OA 
HETATM   27  O   UNL     1      -5.264  14.775  68.896  1.00  0.00    -0.086 OA 
HETATM   28  N   UNL     1      -6.788  14.343  70.814  1.00  0.00    -0.254 N  
HETATM   29  H1  UNL     1      -5.971  14.180  71.401  1.00  0.00     0.000 HD 
HETATM   30  H2  UNL     1      -7.713  13.923  70.902  1.00  0.00     0.000 HD 
ENDBRANCH  23  25
ENDBRANCH  19  23
ENDBRANCH  18  19
ENDBRANCH  17  18
ENDBRANCH  16  17
ENDBRANCH  15  16
ENDBRANCH  12  15
ENDBRANCH   5  10
TORSDOF 8
ENDMDL
MODEL      377
REMARK 921   NORMALIZED FREE ENERGY PREDICTED BY IDOCK:   -0.79 KCAL/MOL
REMARK 922        TOTAL FREE ENERGY PREDICTED BY IDOCK:   -2.34 KCAL/MOL
REMARK 923 INTER-LIGAND FREE ENERGY PREDICTED BY IDOCK:   -2.48 KCAL/MOL
REMARK 924 INTRA-LIGAND FREE ENERGY PREDICTED BY IDOCK:    0.14 KCAL/MOL
REMARK 927      BINDING AFFINITY PREDICTED BY RF-SCORE:    0.00 PKD
ROOT
HETATM    1  N   UNL     1     -11.170  18.066  72.750  1.00  0.00     1.321 NA 
HETATM    2  C   UNL     1     -11.560  16.941  72.102  1.00  0.00     0.410 C  
HETATM    3  H2  UNL     1     -10.653  18.838  72.331  1.00  0.00     0.000 HD 
HETATM    4  H1  UNL     1     -11.475  18.018  73.721  1.00  0.00     0.000 HD 
HETATM    5  N   UNL     1     -12.227  16.028  72.719  1.00  0.00    -0.474 NA 
HETATM    6  N   UNL     1     -11.154  17.003  70.809  1.00  0.00    -0.093 NA 
HETATM    7  H2  UNL     1     -10.638  17.776  70.390  1.00  0.00     0.000 HD 
HETATM    8  H1  UNL     1     -11.448  16.157  70.321  1.00  0.00     0.000 HD 
HETATM    9  H   UNL     1     -12.481  16.141  73.701  1.00  0.00     0.000 HD 
ENDROOT
BRANCH   5  10
HETATM   10  C   UNL     1     -12.585  14.911  72.035  1.00  0.00    -0.326 A  
HETATM   11  N   UNL     1     -11.806  14.019  71.442  1.00  0.00    -0.048 NA 
HETATM   12  C   UNL     1     -12.562  13.004  70.862  1.00  0.00    -0.280 A  
HETATM   13  S   UNL     1     -14.276  14.552  71.919  1.00  0.00    -0.564 SA 
HETATM   14  C   UNL     1     -13.927  13.153  71.005  1.00  0.00     1.295 A  
BRANCH  12  15
HETATM   15  C   UNL     1     -11.858  11.890  70.153  1.00  0.00    -0.308 C  
BRANCH  15  16
HETATM   16  S   UNL     1     -11.170  12.473  68.563  1.00  0.00    -0.307 SA 
BRANCH  16  17
HETATM   17  C   UNL     1     -11.729  14.212  68.572  1.00  0.00    -0.345 C  
BRANCH  17  18
HETATM   18  C   UNL     1     -11.104  15.096  67.500  1.00  0.00    -0.319 C  
BRANCH  18  19
HETATM   19  C   UNL     1     -10.370  14.296  66.423  1.00  0.00    -0.286 C  
HETATM   20  H2  UNL     1      -8.585  14.309  67.528  1.00  0.00     0.000 HD 
HETATM   21  N   UNL     1      -9.050  14.007  66.671  1.00  0.00    -0.392 NA 
HETATM   22  H1  UNL     1      -8.560  13.474  65.953  1.00  0.00     0.000 HD 
BRANCH  19  23
HETATM   23  N   UNL     1     -11.076  13.967  65.392  1.00  0.00    -0.302 N  
HETATM   24  H   UNL     1     -11.521  14.696  64.834  1.00  0.00     0.000 HD 
BRANCH  23  25
HETATM   25  S   UNL     1     -11.263  12.422  64.976  1.00  0.00    -0.323 S  
HETATM   26  O   UNL     1     -12.441  11.889  65.616  1.00  0.00    -0.237 OA 
HETATM   27  O   UNL     1      -9.987  11.753  65.068  1.00  0.00    -0.248 OA 
HETATM   28  N   UNL     1     -11.629  12.465  63.342  1.00  0.00    -0.654 N  
HETATM   29  H1  UNL     1     -11.747  11.488  63.079  1.00  0.00     0.000 HD 
HETATM   30  H2  UNL     1     -11.715  13.287  62.743  1.00  0.00     0.000 HD 
ENDBRANCH  23  25
ENDBRANCH  19  23
ENDBRANCH  18  19
ENDBRANCH  17  18
ENDBRANCH  16  17
ENDBRANCH  15  16
ENDBRANCH  12  15
ENDBRANCH   5  10
TORSDOF 8
ENDMDL
MODEL      378
REMARK 921   NORMALIZED FREE ENERGY PREDICTED BY IDOCK:    0.21 KCAL/MOL
REMARK 922        TOTAL FREE ENERGY PREDICTED BY IDOCK:   -0.87 KCAL/MOL
REMARK 923 INTER-LIGAND FREE ENERGY PREDICTED BY IDOCK:   -1.50 KCAL/MOL
REMARK 924 INTRA-LIGAND FREE ENERGY PREDICTED BY IDOCK:    0.63 KCAL/MOL
REMARK 927      BINDING AFFINITY PREDICTED BY RF-SCORE:    0.00 PKD
ROOT
HETATM    1  N   UNL     1     -12.127  10.803  66.184  1.00  0.00     1.667 NA 
HETATM    2  C   UNL     1     -11.905  12.087  66.556  1.00  0.00    -0.158 C  
HETATM    3  H2  UNL     1     -12.135  10.000  66.812  1.00  0.00     0.000 HD 
HETATM    4  H1  UNL     1     -12.285  10.766  65.177  1.00  0.00     0.000 HD 
HETATM    5  N   UNL     1     -11.933  13.036  65.685  1.00  0.00    -0.405 NA 
HETATM    6  N   UNL     1     -11.694  12.136  67.895  1.00  0.00    -0.426 NA 
HETATM    7  H2  UNL     1     -11.703  11.333  68.524  1.00  0.00     0.000 HD 
HETATM    8  H1  UNL     1     -11.528  13.103  68.176  1.00  0.00     0.000 HD 
HETATM    9  H   UNL     1     -12.133  12.837  64.705  1.00  0.00     0.000 HD 
ENDROOT
BRANCH   5  10
HETATM   10  C   UNL     1     -11.691  14.306  66.100  1.00  0.00    -0.390 A  
HETATM   11  N   UNL     1     -11.722  14.794  67.331  1.00  0.00    -0.375 NA 
HETATM   12  C   UNL     1     -11.395  16.147  67.339  1.00  0.00     0.061 A  
HETATM   13  S   UNL     1     -11.257  15.472  64.895  1.00  0.00    -0.333 SA 
HETATM   14  C   UNL     1     -11.139  16.681  66.092  1.00  0.00     0.271 A  
BRANCH  12  15
HETATM   15  C   UNL     1     -11.362  16.877  68.645  1.00  0.00     0.046 C  
BRANCH  15  16
HETATM   16  S   UNL     1     -10.230  16.048  69.817  1.00  0.00    -0.191 SA 
BRANCH  16  17
HETATM   17  C   UNL     1      -8.799  15.724  68.729  1.00  0.00    -0.207 C  
BRANCH  17  18
HETATM   18  C   UNL     1      -7.965  14.505  69.107  1.00  0.00    -0.048 C  
BRANCH  18  19
HETATM   19  C   UNL     1      -6.572  14.519  68.478  1.00  0.00    -0.093 C  
HETATM   20  H2  UNL     1      -6.205  16.471  69.161  1.00  0.00     0.000 HD 
HETATM   21  N   UNL     1      -5.839  15.670  68.645  1.00  0.00    -0.099 NA 
HETATM   22  H1  UNL     1      -4.909  15.680  68.225  1.00  0.00     0.000 HD 
BRANCH  19  23
HETATM   23  N   UNL     1      -6.224  13.438  67.861  1.00  0.00    -0.133 N  
HETATM   24  H   UNL     1      -5.309  13.387  67.414  1.00  0.00     0.000 HD 
BRANCH  23  25
HETATM   25  S   UNL     1      -7.217  12.171  67.789  1.00  0.00    -0.126 S  
HETATM   26  O   UNL     1      -6.624  11.140  66.971  1.00  0.00    -0.088 OA 
HETATM   27  O   UNL     1      -8.561  12.640  67.553  1.00  0.00    -0.164 OA 
HETATM   28  N   UNL     1      -7.224  11.551  69.345  1.00  0.00    -0.316 N  
HETATM   29  H1  UNL     1      -7.852  10.749  69.300  1.00  0.00     0.000 HD 
HETATM   30  H2  UNL     1      -6.714  11.899  70.158  1.00  0.00     0.000 HD 
ENDBRANCH  23  25
ENDBRANCH  19  23
ENDBRANCH  18  19
ENDBRANCH  17  18
ENDBRANCH  16  17
ENDBRANCH  15  16
ENDBRANCH  12  15
ENDBRANCH   5  10
TORSDOF 8
ENDMDL
MODEL      379
REMARK 921   NORMALIZED FREE ENERGY PREDICTED BY IDOCK:   16.93 KCAL/MOL
REMARK 922        TOTAL FREE ENERGY PREDICTED BY IDOCK:   23.67 KCAL/MOL
REMARK 923 INTER-LIGAND FREE ENERGY PREDICTED BY IDOCK:   15.60 KCAL/MOL
REMARK 924 INTRA-LIGAND FREE ENERGY PREDICTED BY IDOCK:    8.08 KCAL/MOL
REMARK 927      BINDING AFFINITY PREDICTED BY RF-SCORE:    0.00 PKD
ROOT
HETATM    1  N   UNL     1     -11.500  18.145  73.241  1.00  0.00     0.987 NA 
HETATM    2  C   UNL     1     -11.333  17.969  71.908  1.00  0.00     3.189 C  
HETATM    3  H2  UNL     1     -11.676  19.038  73.701  1.00  0.00     0.000 HD 
HETATM    4  H1  UNL     1     -11.421  17.245  73.713  1.00  0.00     0.000 HD 
HETATM    5  N   UNL     1     -11.131  16.793  71.423  1.00  0.00     0.094 NA 
HETATM    6  N   UNL     1     -11.437  19.168  71.280  1.00  0.00     4.742 NA 
HETATM    7  H2  UNL     1     -11.614  20.061  71.740  1.00  0.00     0.000 HD 
HETATM    8  H1  UNL     1     -11.312  19.035  70.276  1.00  0.00     0.000 HD 
HETATM    9  H   UNL     1     -11.104  15.976  72.032  1.00  0.00     0.000 HD 
ENDROOT
BRANCH   5  10
HETATM   10  C   UNL     1     -10.955  16.665  70.082  1.00  0.00    -0.098 A  
HETATM   11  N   UNL     1     -11.844  16.824  69.113  1.00  0.00     0.445 NA 
HETATM   12  C   UNL     1     -11.262  16.620  67.865  1.00  0.00    -0.114 A  
HETATM   13  S   UNL     1      -9.367  16.265  69.519  1.00  0.00     0.103 SA 
HETATM   14  C   UNL     1      -9.924  16.282  67.906  1.00  0.00    -0.241 A  
BRANCH  12  15
HETATM   15  C   UNL     1     -12.106  16.769  66.638  1.00  0.00     2.608 C  
BRANCH  15  16
HETATM   16  S   UNL     1     -13.031  15.228  66.303  1.00  0.00     2.391 SA 
BRANCH  16  17
HETATM   17  C   UNL     1     -11.910  13.994  67.050  1.00  0.00    -0.428 C  
BRANCH  17  18
HETATM   18  C   UNL     1     -12.240  13.610  68.488  1.00  0.00    -0.183 C  
BRANCH  18  19
HETATM   19  C   UNL     1     -11.009  13.582  69.393  1.00  0.00    -0.050 C  
HETATM   20  H2  UNL     1     -10.215  11.921  68.383  1.00  0.00     0.000 HD 
HETATM   21  N   UNL     1     -10.086  12.597  69.136  1.00  0.00    -0.379 NA 
HETATM   22  H1  UNL     1      -9.264  12.577  69.741  1.00  0.00     0.000 HD 
BRANCH  19  23
HETATM   23  N   UNL     1     -10.961  14.498  70.303  1.00  0.00    -0.481 N  
HETATM   24  H   UNL     1     -10.540  15.401  70.085  1.00  0.00     0.000 HD 
BRANCH  23  25
HETATM   25  S   UNL     1     -11.559  14.235  71.776  1.00  0.00     0.847 S  
HETATM   26  O   UNL     1     -10.982  15.175  72.706  1.00  0.00     0.082 OA 
HETATM   27  O   UNL     1     -11.553  12.815  72.038  1.00  0.00     2.412 OA 
HETATM   28  N   UNL     1     -13.174  14.664  71.659  1.00  0.00    -0.328 N  
HETATM   29  H1  UNL     1     -13.552  14.497  72.591  1.00  0.00     0.000 HD 
HETATM   30  H2  UNL     1     -13.669  15.014  70.839  1.00  0.00     0.000 HD 
ENDBRANCH  23  25
ENDBRANCH  19  23
ENDBRANCH  18  19
ENDBRANCH  17  18
ENDBRANCH  16  17
ENDBRANCH  15  16
ENDBRANCH  12  15
ENDBRANCH   5  10
TORSDOF 8
ENDMDL
