MODEL        1
REMARK 921   NORMALIZED FREE ENERGY PREDICTED BY IDOCK:   -6.70 KCAL/MOL
REMARK 922        TOTAL FREE ENERGY PREDICTED BY IDOCK:   -8.57 KCAL/MOL
REMARK 923 INTER-LIGAND FREE ENERGY PREDICTED BY IDOCK:   -7.88 KCAL/MOL
REMARK 924 INTRA-LIGAND FREE ENERGY PREDICTED BY IDOCK:   -0.69 KCAL/MOL
REMARK 927      BINDING AFFINITY PREDICTED BY RF-SCORE:    0.00 PKD
ROOT
HETATM    1  C   UNL     1     -10.684   5.579  69.998  1.00  0.00    -0.356 C  
HETATM    2  C   UNL     1     -11.155   6.991  70.342  1.00  0.00    -0.323 C  
HETATM    3  C   UNL     1     -12.336   6.937  71.313  1.00  0.00    -0.422 C  
HETATM    4  C   UNL     1      -9.994   7.817  70.915  1.00  0.00    -0.183 C  
ENDROOT
BRANCH   4   5
HETATM    5  O   UNL     1     -10.478   9.118  71.257  1.00  0.00    -0.274 OA 
BRANCH   5   6
HETATM    6  C   UNL     1     -10.600  10.015  70.232  1.00  0.00    -0.295 A  
HETATM    7  C   UNL     1     -11.743  10.824  70.230  1.00  0.00    -0.442 A  
HETATM    8  C   UNL     1     -11.955  11.739  69.186  1.00  0.00    -0.356 A  
HETATM    9  C   UNL     1     -12.707  10.757  71.293  1.00  0.00    -0.441 C  
HETATM   10  C   UNL     1     -11.043  11.859  68.126  1.00  0.00    -0.294 A  
HETATM   11  N   UNL     1     -13.509  10.752  72.133  1.00  0.00    -0.280 NA 
HETATM   12  C   UNL     1      -9.689  10.119  69.178  1.00  0.00    -0.225 A  
HETATM   13  C   UNL     1      -9.911  11.031  68.136  1.00  0.00    -0.190 A  
BRANCH  10  14
HETATM   14  C   UNL     1     -11.250  12.800  67.010  1.00  0.00    -0.292 A  
HETATM   15  N   UNL     1     -11.882  12.518  65.888  1.00  0.00    -0.460 NA 
HETATM   16  C   UNL     1     -11.915  13.625  65.046  1.00  0.00    -0.378 A  
HETATM   17  C   UNL     1     -11.258  14.744  65.535  1.00  0.00    -0.346 A  
HETATM   18  C   UNL     1     -12.628  13.507  63.743  1.00  0.00    -0.147 C  
HETATM   19  C   UNL     1     -11.093  16.038  64.909  1.00  0.00    -0.370 C  
HETATM   20  S   UNL     1     -10.614  14.396  67.082  1.00  0.00    -0.279 SA 
HETATM   21  O   UNL     1     -11.511  16.351  63.804  1.00  0.00    -1.002 OA 
HETATM   22  O   UNL     1     -10.401  16.920  65.680  1.00  0.00    -0.523 OA 
ENDBRANCH  10  14
ENDBRANCH   5   6
ENDBRANCH   4   5
TORSDOF 3
ENDMDL
MODEL        2
REMARK 921   NORMALIZED FREE ENERGY PREDICTED BY IDOCK:   -6.68 KCAL/MOL
REMARK 922        TOTAL FREE ENERGY PREDICTED BY IDOCK:   -8.54 KCAL/MOL
REMARK 923 INTER-LIGAND FREE ENERGY PREDICTED BY IDOCK:   -7.91 KCAL/MOL
REMARK 924 INTRA-LIGAND FREE ENERGY PREDICTED BY IDOCK:   -0.63 KCAL/MOL
REMARK 927      BINDING AFFINITY PREDICTED BY RF-SCORE:    0.00 PKD
ROOT
HETATM    1  C   UNL     1     -10.414   5.357  69.853  1.00  0.00    -0.378 C  
HETATM    2  C   UNL     1     -10.970   6.702  70.314  1.00  0.00    -0.355 C  
HETATM    3  C   UNL     1     -11.982   6.501  71.445  1.00  0.00    -0.371 C  
HETATM    4  C   UNL     1      -9.827   7.635  70.742  1.00  0.00    -0.177 C  
ENDROOT
BRANCH   4   5
HETATM    5  O   UNL     1     -10.385   8.868  71.200  1.00  0.00    -0.222 OA 
BRANCH   5   6
HETATM    6  C   UNL     1     -10.398   9.904  70.306  1.00  0.00    -0.281 A  
HETATM    7  C   UNL     1     -11.537  10.717  70.294  1.00  0.00    -0.427 A  
HETATM    8  C   UNL     1     -11.637  11.774  69.375  1.00  0.00    -0.386 A  
HETATM    9  C   UNL     1     -12.613  10.510  71.224  1.00  0.00    -0.426 C  
HETATM   10  C   UNL     1     -10.614  12.033  68.449  1.00  0.00    -0.236 A  
HETATM   11  N   UNL     1     -13.502  10.395  71.961  1.00  0.00    -0.344 NA 
HETATM   12  C   UNL     1      -9.376  10.147  69.384  1.00  0.00    -0.235 A  
HETATM   13  C   UNL     1      -9.486  11.200  68.466  1.00  0.00    -0.193 A  
BRANCH  10  14
HETATM   14  C   UNL     1     -10.701  13.126  67.463  1.00  0.00    -0.238 A  
HETATM   15  N   UNL     1     -10.026  14.257  67.525  1.00  0.00    -0.233 NA 
HETATM   16  C   UNL     1     -10.325  15.072  66.438  1.00  0.00    -0.287 A  
HETATM   17  C   UNL     1     -11.273  14.555  65.570  1.00  0.00    -0.335 A  
HETATM   18  C   UNL     1      -9.622  16.381  66.315  1.00  0.00    -0.338 C  
HETATM   19  C   UNL     1     -11.814  15.148  64.366  1.00  0.00    -0.305 C  
HETATM   20  S   UNL     1     -11.773  13.014  66.124  1.00  0.00    -0.414 SA 
HETATM   21  O   UNL     1     -11.516  16.247  63.921  1.00  0.00    -0.940 OA 
HETATM   22  O   UNL     1     -12.725  14.354  63.740  1.00  0.00    -0.785 OA 
ENDBRANCH  10  14
ENDBRANCH   5   6
ENDBRANCH   4   5
TORSDOF 3
ENDMDL
MODEL        3
REMARK 921   NORMALIZED FREE ENERGY PREDICTED BY IDOCK:   -6.67 KCAL/MOL
REMARK 922        TOTAL FREE ENERGY PREDICTED BY IDOCK:   -8.53 KCAL/MOL
REMARK 923 INTER-LIGAND FREE ENERGY PREDICTED BY IDOCK:   -8.03 KCAL/MOL
REMARK 924 INTRA-LIGAND FREE ENERGY PREDICTED BY IDOCK:   -0.50 KCAL/MOL
REMARK 927      BINDING AFFINITY PREDICTED BY RF-SCORE:    0.00 PKD
ROOT
HETATM    1  C   UNL     1      -9.293  20.733  67.427  1.00  0.00    -0.409 C  
HETATM    2  C   UNL     1      -9.689  19.366  66.871  1.00  0.00    -0.431 C  
HETATM    3  C   UNL     1     -10.742  19.523  65.772  1.00  0.00    -0.490 C  
HETATM    4  C   UNL     1      -8.449  18.618  66.358  1.00  0.00    -0.272 C  
ENDROOT
BRANCH   4   5
HETATM    5  O   UNL     1      -8.861  17.363  65.814  1.00  0.00    -0.522 OA 
BRANCH   5   6
HETATM    6  C   UNL     1      -9.435  16.477  66.684  1.00  0.00    -0.258 A  
HETATM    7  C   UNL     1     -10.614  15.850  66.264  1.00  0.00    -0.301 A  
HETATM    8  C   UNL     1     -11.282  14.960  67.121  1.00  0.00    -0.345 A  
HETATM    9  C   UNL     1     -11.156  16.079  64.953  1.00  0.00    -0.370 C  
HETATM   10  C   UNL     1     -10.795  14.687  68.409  1.00  0.00    -0.250 A  
HETATM   11  N   UNL     1     -11.628  16.218  63.901  1.00  0.00    -0.988 NA 
HETATM   12  C   UNL     1      -8.945  16.219  67.967  1.00  0.00    -0.187 A  
HETATM   13  C   UNL     1      -9.620  15.335  68.819  1.00  0.00    -0.214 A  
BRANCH  10  14
HETATM   14  C   UNL     1     -11.485  13.769  69.334  1.00  0.00    -0.286 A  
HETATM   15  N   UNL     1     -12.249  14.142  70.341  1.00  0.00    -0.334 NA 
HETATM   16  C   UNL     1     -12.760  13.034  71.012  1.00  0.00    -0.262 A  
HETATM   17  C   UNL     1     -12.333  11.812  70.519  1.00  0.00    -0.299 A  
HETATM   18  C   UNL     1     -13.684  13.262  72.159  1.00  0.00    -0.619 C  
HETATM   19  C   UNL     1     -12.659  10.484  70.993  1.00  0.00    -0.400 C  
HETATM   20  S   UNL     1     -11.296  12.067  69.181  1.00  0.00    -0.285 SA 
HETATM   21  O   UNL     1     -13.378  10.228  71.948  1.00  0.00    -0.415 OA 
HETATM   22  O   UNL     1     -12.075   9.496  70.262  1.00  0.00    -0.092 OA 
ENDBRANCH  10  14
ENDBRANCH   5   6
ENDBRANCH   4   5
TORSDOF 3
ENDMDL
MODEL        4
REMARK 921   NORMALIZED FREE ENERGY PREDICTED BY IDOCK:   -6.63 KCAL/MOL
REMARK 922        TOTAL FREE ENERGY PREDICTED BY IDOCK:   -8.49 KCAL/MOL
REMARK 923 INTER-LIGAND FREE ENERGY PREDICTED BY IDOCK:   -7.99 KCAL/MOL
REMARK 924 INTRA-LIGAND FREE ENERGY PREDICTED BY IDOCK:   -0.49 KCAL/MOL
REMARK 927      BINDING AFFINITY PREDICTED BY RF-SCORE:    0.00 PKD
ROOT
HETATM    1  C   UNL     1     -11.742   7.770  72.240  1.00  0.00    -0.390 C  
HETATM    2  C   UNL     1     -12.602   8.794  71.502  1.00  0.00    -0.372 C  
HETATM    3  C   UNL     1     -13.766   9.248  72.385  1.00  0.00    -0.517 C  
HETATM    4  C   UNL     1     -11.744   9.984  71.047  1.00  0.00    -0.392 C  
ENDROOT
BRANCH   4   5
HETATM    5  O   UNL     1     -12.586  10.935  70.392  1.00  0.00    -0.320 OA 
BRANCH   5   6
HETATM    6  C   UNL     1     -11.989  12.089  69.964  1.00  0.00    -0.324 A  
HETATM    7  C   UNL     1     -12.357  13.273  70.615  1.00  0.00    -0.416 A  
HETATM    8  C   UNL     1     -11.816  14.501  70.201  1.00  0.00    -0.371 A  
HETATM    9  C   UNL     1     -13.270  13.262  71.724  1.00  0.00    -0.405 C  
HETATM   10  C   UNL     1     -10.910  14.573  69.131  1.00  0.00    -0.278 A  
HETATM   11  N   UNL     1     -13.992  13.308  72.633  1.00  0.00    -0.712 NA 
HETATM   12  C   UNL     1     -11.095  12.150  68.893  1.00  0.00    -0.292 A  
HETATM   13  C   UNL     1     -10.563  13.380  68.481  1.00  0.00    -0.264 A  
BRANCH  10  14
HETATM   14  C   UNL     1     -10.339  15.851  68.667  1.00  0.00    -0.229 A  
HETATM   15  N   UNL     1     -10.568  17.027  69.219  1.00  0.00    -0.323 NA 
HETATM   16  C   UNL     1      -9.871  18.030  68.551  1.00  0.00    -0.378 A  
HETATM   17  C   UNL     1      -9.142  17.598  67.455  1.00  0.00    -0.239 A  
HETATM   18  C   UNL     1      -9.974  19.427  69.061  1.00  0.00    -0.477 C  
HETATM   19  C   UNL     1      -8.331  18.378  66.546  1.00  0.00    -0.272 C  
HETATM   20  S   UNL     1      -9.321  15.904  67.283  1.00  0.00    -0.213 SA 
HETATM   21  O   UNL     1      -8.170  19.589  66.600  1.00  0.00    -0.279 OA 
HETATM   22  O   UNL     1      -7.735  17.628  65.581  1.00  0.00    -0.527 OA 
ENDBRANCH  10  14
ENDBRANCH   5   6
ENDBRANCH   4   5
TORSDOF 3
ENDMDL
MODEL        5
REMARK 921   NORMALIZED FREE ENERGY PREDICTED BY IDOCK:   -6.57 KCAL/MOL
REMARK 922        TOTAL FREE ENERGY PREDICTED BY IDOCK:   -8.41 KCAL/MOL
REMARK 923 INTER-LIGAND FREE ENERGY PREDICTED BY IDOCK:   -7.98 KCAL/MOL
REMARK 924 INTRA-LIGAND FREE ENERGY PREDICTED BY IDOCK:   -0.42 KCAL/MOL
REMARK 927      BINDING AFFINITY PREDICTED BY RF-SCORE:    0.00 PKD
ROOT
HETATM    1  C   UNL     1      -9.029  17.591  68.524  1.00  0.00    -0.279 C  
HETATM    2  C   UNL     1     -10.429  16.984  68.471  1.00  0.00    -0.373 C  
HETATM    3  C   UNL     1     -10.558  16.045  67.269  1.00  0.00    -0.313 C  
HETATM    4  C   UNL     1     -10.747  16.258  69.787  1.00  0.00    -0.345 C  
ENDROOT
BRANCH   4   5
HETATM    5  O   UNL     1     -12.047  15.674  69.689  1.00  0.00    -0.364 OA 
BRANCH   5   6
HETATM    6  C   UNL     1     -12.142  14.338  69.970  1.00  0.00    -0.340 A  
HETATM    7  C   UNL     1     -12.820  13.983  71.142  1.00  0.00    -0.427 A  
HETATM    8  C   UNL     1     -12.920  12.633  71.516  1.00  0.00    -0.380 A  
HETATM    9  C   UNL     1     -13.443  14.976  71.974  1.00  0.00    -0.401 C  
HETATM   10  C   UNL     1     -12.341  11.618  70.738  1.00  0.00    -0.454 A  
HETATM   11  N   UNL     1     -13.976  15.735  72.673  1.00  0.00    -0.560 NA 
HETATM   12  C   UNL     1     -11.555  13.337  69.192  1.00  0.00    -0.370 A  
HETATM   13  C   UNL     1     -11.653  11.993  69.575  1.00  0.00    -0.389 A  
BRANCH  10  14
HETATM   14  C   UNL     1     -12.418  10.195  71.116  1.00  0.00    -0.387 A  
HETATM   15  N   UNL     1     -13.536   9.511  71.264  1.00  0.00    -0.343 NA 
HETATM   16  C   UNL     1     -13.265   8.191  71.614  1.00  0.00    -0.332 A  
HETATM   17  C   UNL     1     -11.920   7.897  71.769  1.00  0.00    -0.298 A  
HETATM   18  C   UNL     1     -14.409   7.252  71.784  1.00  0.00    -0.560 C  
HETATM   19  C   UNL     1     -11.307   6.640  72.140  1.00  0.00    -0.274 C  
HETATM   20  S   UNL     1     -10.989   9.298  71.447  1.00  0.00    -0.370 SA 
HETATM   21  O   UNL     1     -11.908   5.607  72.397  1.00  0.00    -0.261 OA 
HETATM   22  O   UNL     1      -9.949   6.699  72.185  1.00  0.00    -0.162 OA 
ENDBRANCH  10  14
ENDBRANCH   5   6
ENDBRANCH   4   5
TORSDOF 3
ENDMDL
MODEL        6
REMARK 921   NORMALIZED FREE ENERGY PREDICTED BY IDOCK:   -6.56 KCAL/MOL
REMARK 922        TOTAL FREE ENERGY PREDICTED BY IDOCK:   -8.40 KCAL/MOL
REMARK 923 INTER-LIGAND FREE ENERGY PREDICTED BY IDOCK:   -7.92 KCAL/MOL
REMARK 924 INTRA-LIGAND FREE ENERGY PREDICTED BY IDOCK:   -0.48 KCAL/MOL
REMARK 927      BINDING AFFINITY PREDICTED BY RF-SCORE:    0.00 PKD
ROOT
HETATM    1  C   UNL     1      -9.419  19.694  68.316  1.00  0.00    -0.453 C  
HETATM    2  C   UNL     1     -10.496  18.737  67.809  1.00  0.00    -0.479 C  
HETATM    3  C   UNL     1     -10.262  18.403  66.334  1.00  0.00    -0.431 C  
HETATM    4  C   UNL     1     -10.533  17.467  68.673  1.00  0.00    -0.355 C  
ENDROOT
BRANCH   4   5
HETATM    5  O   UNL     1     -11.525  16.582  68.150  1.00  0.00    -0.251 OA 
BRANCH   5   6
HETATM    6  C   UNL     1     -11.625  15.354  68.744  1.00  0.00    -0.368 A  
HETATM    7  C   UNL     1     -11.628  14.238  67.898  1.00  0.00    -0.367 A  
HETATM    8  C   UNL     1     -11.769  12.948  68.435  1.00  0.00    -0.382 A  
HETATM    9  C   UNL     1     -11.468  14.378  66.477  1.00  0.00    -0.362 C  
HETATM   10  C   UNL     1     -11.918  12.747  69.816  1.00  0.00    -0.362 A  
HETATM   11  N   UNL     1     -11.327  14.434  65.325  1.00  0.00    -0.333 NA 
HETATM   12  C   UNL     1     -11.780  15.166  70.120  1.00  0.00    -0.343 A  
HETATM   13  C   UNL     1     -11.927  13.876  70.648  1.00  0.00    -0.364 A  
BRANCH  10  14
HETATM   14  C   UNL     1     -12.083  11.405  70.404  1.00  0.00    -0.384 A  
HETATM   15  N   UNL     1     -13.017  11.068  71.271  1.00  0.00    -0.395 NA 
HETATM   16  C   UNL     1     -12.906   9.725  71.621  1.00  0.00    -0.421 A  
HETATM   17  C   UNL     1     -11.843   9.059  71.033  1.00  0.00    -0.285 A  
HETATM   18  C   UNL     1     -13.908   9.151  72.564  1.00  0.00    -0.485 C  
HETATM   19  C   UNL     1     -11.441   7.680  71.196  1.00  0.00    -0.275 C  
HETATM   20  S   UNL     1     -10.990  10.137  70.011  1.00  0.00    -0.325 SA 
HETATM   21  O   UNL     1     -11.991   6.860  71.917  1.00  0.00    -0.299 OA 
HETATM   22  O   UNL     1     -10.351   7.348  70.453  1.00  0.00    -0.204 OA 
ENDBRANCH  10  14
ENDBRANCH   5   6
ENDBRANCH   4   5
TORSDOF 3
ENDMDL
MODEL        7
REMARK 921   NORMALIZED FREE ENERGY PREDICTED BY IDOCK:   -6.54 KCAL/MOL
REMARK 922        TOTAL FREE ENERGY PREDICTED BY IDOCK:   -8.38 KCAL/MOL
REMARK 923 INTER-LIGAND FREE ENERGY PREDICTED BY IDOCK:   -7.90 KCAL/MOL
REMARK 924 INTRA-LIGAND FREE ENERGY PREDICTED BY IDOCK:   -0.48 KCAL/MOL
REMARK 927      BINDING AFFINITY PREDICTED BY RF-SCORE:    0.00 PKD
ROOT
HETATM    1  C   UNL     1     -11.350   9.379  70.981  1.00  0.00    -0.407 C  
HETATM    2  C   UNL     1     -12.187  10.363  70.167  1.00  0.00    -0.305 C  
HETATM    3  C   UNL     1     -12.769  11.448  71.076  1.00  0.00    -0.447 C  
HETATM    4  C   UNL     1     -11.347  10.971  69.034  1.00  0.00    -0.277 C  
ENDROOT
BRANCH   4   5
HETATM    5  O   UNL     1     -12.150  11.910  68.317  1.00  0.00    -0.485 OA 
BRANCH   5   6
HETATM    6  C   UNL     1     -11.639  13.171  68.176  1.00  0.00    -0.339 A  
HETATM    7  C   UNL     1     -11.740  13.759  66.909  1.00  0.00    -0.424 A  
HETATM    8  C   UNL     1     -11.200  15.035  66.680  1.00  0.00    -0.311 A  
HETATM    9  C   UNL     1     -12.408  13.090  65.827  1.00  0.00    -0.416 C  
HETATM   10  C   UNL     1     -10.545  15.742  67.701  1.00  0.00    -0.301 A  
HETATM   11  N   UNL     1     -12.950  12.601  64.924  1.00  0.00    -0.850 NA 
HETATM   12  C   UNL     1     -10.983  13.862  69.198  1.00  0.00    -0.253 A  
HETATM   13  C   UNL     1     -10.441  15.133  68.960  1.00  0.00    -0.248 A  
BRANCH  10  14
HETATM   14  C   UNL     1      -9.956  17.076  67.483  1.00  0.00    -0.274 A  
HETATM   15  N   UNL     1     -10.441  17.993  66.670  1.00  0.00    -0.350 NA 
HETATM   16  C   UNL     1      -9.659  19.145  66.701  1.00  0.00    -0.346 A  
HETATM   17  C   UNL     1      -8.547  19.068  67.523  1.00  0.00    -0.286 A  
HETATM   18  C   UNL     1     -10.079  20.311  65.873  1.00  0.00    -0.338 C  
HETATM   19  C   UNL     1      -7.533  20.070  67.765  1.00  0.00    -0.295 C  
HETATM   20  S   UNL     1      -8.503  17.533  68.281  1.00  0.00    -0.272 SA 
HETATM   21  O   UNL     1      -7.492  21.178  67.250  1.00  0.00    -0.412 OA 
HETATM   22  O   UNL     1      -6.581  19.666  68.650  1.00  0.00    -0.263 OA 
ENDBRANCH  10  14
ENDBRANCH   5   6
ENDBRANCH   4   5
TORSDOF 3
ENDMDL
MODEL        8
REMARK 921   NORMALIZED FREE ENERGY PREDICTED BY IDOCK:   -6.49 KCAL/MOL
REMARK 922        TOTAL FREE ENERGY PREDICTED BY IDOCK:   -8.32 KCAL/MOL
REMARK 923 INTER-LIGAND FREE ENERGY PREDICTED BY IDOCK:   -7.79 KCAL/MOL
REMARK 924 INTRA-LIGAND FREE ENERGY PREDICTED BY IDOCK:   -0.53 KCAL/MOL
REMARK 927      BINDING AFFINITY PREDICTED BY RF-SCORE:    0.00 PKD
ROOT
HETATM    1  C   UNL     1      -6.731  20.800  66.483  1.00  0.00    -0.322 C  
HETATM    2  C   UNL     1      -7.353  19.590  65.789  1.00  0.00    -0.297 C  
HETATM    3  C   UNL     1      -6.290  18.521  65.528  1.00  0.00    -0.320 C  
HETATM    4  C   UNL     1      -8.516  19.034  66.624  1.00  0.00    -0.304 C  
ENDROOT
BRANCH   4   5
HETATM    5  O   UNL     1      -9.049  17.884  65.964  1.00  0.00    -0.504 OA 
BRANCH   5   6
HETATM    6  C   UNL     1      -9.518  16.880  66.766  1.00  0.00    -0.255 A  
HETATM    7  C   UNL     1     -10.581  16.116  66.269  1.00  0.00    -0.276 A  
HETATM    8  C   UNL     1     -11.141  15.095  67.055  1.00  0.00    -0.328 A  
HETATM    9  C   UNL     1     -11.109  16.338  64.952  1.00  0.00    -0.290 C  
HETATM   10  C   UNL     1     -10.660  14.824  68.346  1.00  0.00    -0.242 A  
HETATM   11  N   UNL     1     -11.562  16.467  63.890  1.00  0.00    -1.054 NA 
HETATM   12  C   UNL     1      -9.037  16.624  68.052  1.00  0.00    -0.218 A  
HETATM   13  C   UNL     1      -9.604  15.608  68.832  1.00  0.00    -0.224 A  
BRANCH  10  14
HETATM   14  C   UNL     1     -11.240  13.768  69.196  1.00  0.00    -0.262 A  
HETATM   15  N   UNL     1     -11.023  12.476  69.053  1.00  0.00    -0.218 NA 
HETATM   16  C   UNL     1     -11.708  11.748  70.022  1.00  0.00    -0.305 A  
HETATM   17  C   UNL     1     -12.483  12.512  70.879  1.00  0.00    -0.269 A  
HETATM   18  C   UNL     1     -11.547  10.266  70.043  1.00  0.00    -0.349 C  
HETATM   19  C   UNL     1     -13.322  12.071  71.971  1.00  0.00    -0.341 C  
HETATM   20  S   UNL     1     -12.326  14.167  70.468  1.00  0.00    -0.381 SA 
HETATM   21  O   UNL     1     -13.493  10.909  72.311  1.00  0.00    -0.324 OA 
HETATM   22  O   UNL     1     -13.938  13.095  72.622  1.00  0.00    -0.708 OA 
ENDBRANCH  10  14
ENDBRANCH   5   6
ENDBRANCH   4   5
TORSDOF 3
ENDMDL
MODEL        9
REMARK 921   NORMALIZED FREE ENERGY PREDICTED BY IDOCK:   -6.47 KCAL/MOL
REMARK 922        TOTAL FREE ENERGY PREDICTED BY IDOCK:   -8.29 KCAL/MOL
REMARK 923 INTER-LIGAND FREE ENERGY PREDICTED BY IDOCK:   -7.83 KCAL/MOL
REMARK 924 INTRA-LIGAND FREE ENERGY PREDICTED BY IDOCK:   -0.46 KCAL/MOL
REMARK 927      BINDING AFFINITY PREDICTED BY RF-SCORE:    0.00 PKD
ROOT
HETATM    1  C   UNL     1     -10.488   9.419  70.533  1.00  0.00    -0.335 C  
HETATM    2  C   UNL     1     -10.720  10.199  69.241  1.00  0.00    -0.259 C  
HETATM    3  C   UNL     1     -10.603   9.270  68.030  1.00  0.00    -0.262 C  
HETATM    4  C   UNL     1     -12.085  10.903  69.278  1.00  0.00    -0.261 C  
ENDROOT
BRANCH   4   5
HETATM    5  O   UNL     1     -12.282  11.592  68.042  1.00  0.00    -0.582 OA 
BRANCH   5   6
HETATM    6  C   UNL     1     -11.778  12.860  67.960  1.00  0.00    -0.356 A  
HETATM    7  C   UNL     1     -11.805  13.474  66.702  1.00  0.00    -0.450 A  
HETATM    8  C   UNL     1     -11.267  14.760  66.534  1.00  0.00    -0.342 A  
HETATM    9  C   UNL     1     -12.396  12.822  65.566  1.00  0.00    -0.434 C  
HETATM   10  C   UNL     1     -10.686  15.452  67.609  1.00  0.00    -0.292 A  
HETATM   11  N   UNL     1     -12.873  12.346  64.620  1.00  0.00    -0.774 NA 
HETATM   12  C   UNL     1     -11.196  13.536  69.036  1.00  0.00    -0.314 A  
HETATM   13  C   UNL     1     -10.655  14.817  68.859  1.00  0.00    -0.250 A  
BRANCH  10  14
HETATM   14  C   UNL     1     -10.100  16.796  67.457  1.00  0.00    -0.276 A  
HETATM   15  N   UNL     1     -10.568  17.740  66.664  1.00  0.00    -0.277 NA 
HETATM   16  C   UNL     1      -9.795  18.894  66.759  1.00  0.00    -0.348 A  
HETATM   17  C   UNL     1      -8.706  18.793  67.610  1.00  0.00    -0.280 A  
HETATM   18  C   UNL     1     -10.199  20.088  65.963  1.00  0.00    -0.568 C  
HETATM   19  C   UNL     1      -7.706  19.791  67.917  1.00  0.00    -0.295 C  
HETATM   20  S   UNL     1      -8.674  17.232  68.312  1.00  0.00    -0.257 SA 
HETATM   21  O   UNL     1      -7.658  20.918  67.444  1.00  0.00    -0.345 OA 
HETATM   22  O   UNL     1      -6.777  19.361  68.813  1.00  0.00    -0.274 OA 
ENDBRANCH  10  14
ENDBRANCH   5   6
ENDBRANCH   4   5
TORSDOF 3
ENDMDL
MODEL       10
REMARK 921   NORMALIZED FREE ENERGY PREDICTED BY IDOCK:   -6.39 KCAL/MOL
REMARK 922        TOTAL FREE ENERGY PREDICTED BY IDOCK:   -8.20 KCAL/MOL
REMARK 923 INTER-LIGAND FREE ENERGY PREDICTED BY IDOCK:   -7.75 KCAL/MOL
REMARK 924 INTRA-LIGAND FREE ENERGY PREDICTED BY IDOCK:   -0.45 KCAL/MOL
REMARK 927      BINDING AFFINITY PREDICTED BY RF-SCORE:    0.00 PKD
ROOT
HETATM    1  C   UNL     1     -10.627   4.341  73.327  1.00  0.00    -0.279 C  
HETATM    2  C   UNL     1     -10.779   5.826  73.649  1.00  0.00    -0.281 C  
HETATM    3  C   UNL     1      -9.594   6.314  74.485  1.00  0.00    -0.277 C  
HETATM    4  C   UNL     1     -10.928   6.641  72.356  1.00  0.00    -0.244 C  
ENDROOT
BRANCH   4   5
HETATM    5  O   UNL     1     -11.031   8.026  72.693  1.00  0.00    -0.334 OA 
BRANCH   5   6
HETATM    6  C   UNL     1     -10.974   8.915  71.655  1.00  0.00    -0.345 A  
HETATM    7  C   UNL     1     -12.170   9.550  71.298  1.00  0.00    -0.433 A  
HETATM    8  C   UNL     1     -12.195  10.444  70.215  1.00  0.00    -0.349 A  
HETATM    9  C   UNL     1     -13.384   9.324  72.032  1.00  0.00    -0.450 C  
HETATM   10  C   UNL     1     -11.039  10.714  69.467  1.00  0.00    -0.328 A  
HETATM   11  N   UNL     1     -14.388   9.188  72.600  1.00  0.00    -0.503 NA 
HETATM   12  C   UNL     1      -9.819   9.170  70.913  1.00  0.00    -0.359 A  
HETATM   13  C   UNL     1      -9.853  10.058  69.830  1.00  0.00    -0.270 A  
BRANCH  10  14
HETATM   14  C   UNL     1     -11.042  11.636  68.317  1.00  0.00    -0.234 A  
HETATM   15  N   UNL     1     -11.888  11.584  67.307  1.00  0.00    -0.604 NA 
HETATM   16  C   UNL     1     -11.631  12.602  66.393  1.00  0.00    -0.384 A  
HETATM   17  C   UNL     1     -10.545  13.402  66.708  1.00  0.00    -0.277 A  
HETATM   18  C   UNL     1     -12.517  12.728  65.201  1.00  0.00    -0.565 C  
HETATM   19  C   UNL     1     -10.005  14.523  65.969  1.00  0.00    -0.322 C  
HETATM   20  S   UNL     1      -9.858  12.876  68.186  1.00  0.00    -0.227 SA 
HETATM   21  O   UNL     1     -10.433  14.943  64.904  1.00  0.00    -0.414 OA 
HETATM   22  O   UNL     1      -8.933  15.099  66.577  1.00  0.00    -0.268 OA 
ENDBRANCH  10  14
ENDBRANCH   5   6
ENDBRANCH   4   5
TORSDOF 3
ENDMDL
MODEL       11
REMARK 921   NORMALIZED FREE ENERGY PREDICTED BY IDOCK:   -6.34 KCAL/MOL
REMARK 922        TOTAL FREE ENERGY PREDICTED BY IDOCK:   -8.14 KCAL/MOL
REMARK 923 INTER-LIGAND FREE ENERGY PREDICTED BY IDOCK:   -7.59 KCAL/MOL
REMARK 924 INTRA-LIGAND FREE ENERGY PREDICTED BY IDOCK:   -0.55 KCAL/MOL
REMARK 927      BINDING AFFINITY PREDICTED BY RF-SCORE:    0.00 PKD
ROOT
HETATM    1  C   UNL     1     -12.268  16.483  74.054  1.00  0.00    -0.472 C  
HETATM    2  C   UNL     1     -12.963  15.269  73.441  1.00  0.00    -0.656 C  
HETATM    3  C   UNL     1     -14.193  15.707  72.641  1.00  0.00    -0.394 C  
HETATM    4  C   UNL     1     -11.981  14.473  72.570  1.00  0.00     0.022 C  
ENDROOT
BRANCH   4   5
HETATM    5  O   UNL     1     -12.673  13.367  71.986  1.00  0.00    -0.234 OA 
BRANCH   5   6
HETATM    6  C   UNL     1     -12.387  13.087  70.678  1.00  0.00    -0.310 A  
HETATM    7  C   UNL     1     -12.283  11.735  70.328  1.00  0.00    -0.381 A  
HETATM    8  C   UNL     1     -11.950  11.373  69.012  1.00  0.00    -0.387 A  
HETATM    9  C   UNL     1     -12.531  10.694  71.286  1.00  0.00    -0.410 C  
HETATM   10  C   UNL     1     -11.707  12.346  68.029  1.00  0.00    -0.414 A  
HETATM   11  N   UNL     1     -12.735   9.815  72.017  1.00  0.00    -0.389 NA 
HETATM   12  C   UNL     1     -12.140  14.064  69.710  1.00  0.00    -0.405 A  
HETATM   13  C   UNL     1     -11.802  13.695  68.401  1.00  0.00    -0.407 A  
BRANCH  10  14
HETATM   14  C   UNL     1     -11.342  11.993  66.645  1.00  0.00    -0.340 A  
HETATM   15  N   UNL     1     -11.894  12.503  65.562  1.00  0.00    -0.420 NA 
HETATM   16  C   UNL     1     -11.317  11.969  64.414  1.00  0.00    -0.345 A  
HETATM   17  C   UNL     1     -10.344  11.011  64.646  1.00  0.00    -0.345 A  
HETATM   18  C   UNL     1     -11.787  12.462  63.088  1.00  0.00    -0.336 C  
HETATM   19  C   UNL     1      -9.571  10.258  63.683  1.00  0.00    -0.277 C  
HETATM   20  S   UNL     1     -10.141  10.802  66.334  1.00  0.00    -0.233 SA 
HETATM   21  O   UNL     1      -9.672  10.344  62.468  1.00  0.00    -0.267 OA 
HETATM   22  O   UNL     1      -8.682   9.404  64.259  1.00  0.00    -0.191 OA 
ENDBRANCH  10  14
ENDBRANCH   5   6
ENDBRANCH   4   5
TORSDOF 3
ENDMDL
MODEL       12
REMARK 921   NORMALIZED FREE ENERGY PREDICTED BY IDOCK:   -6.31 KCAL/MOL
REMARK 922        TOTAL FREE ENERGY PREDICTED BY IDOCK:   -8.11 KCAL/MOL
REMARK 923 INTER-LIGAND FREE ENERGY PREDICTED BY IDOCK:   -7.44 KCAL/MOL
REMARK 924 INTRA-LIGAND FREE ENERGY PREDICTED BY IDOCK:   -0.67 KCAL/MOL
REMARK 927      BINDING AFFINITY PREDICTED BY RF-SCORE:    0.00 PKD
ROOT
HETATM    1  C   UNL     1      -9.187   9.909  64.964  1.00  0.00    -0.295 C  
HETATM    2  C   UNL     1      -9.952  11.230  65.011  1.00  0.00    -0.323 C  
HETATM    3  C   UNL     1     -10.875  11.355  63.797  1.00  0.00    -0.468 C  
HETATM    4  C   UNL     1     -10.737  11.346  66.327  1.00  0.00    -0.270 C  
ENDROOT
BRANCH   4   5
HETATM    5  O   UNL     1     -11.467  12.575  66.321  1.00  0.00    -0.328 OA 
BRANCH   5   6
HETATM    6  C   UNL     1     -10.741  13.720  66.503  1.00  0.00    -0.284 A  
HETATM    7  C   UNL     1     -10.970  14.767  65.602  1.00  0.00    -0.345 A  
HETATM    8  C   UNL     1     -10.231  15.957  65.703  1.00  0.00    -0.406 A  
HETATM    9  C   UNL     1     -11.970  14.663  64.576  1.00  0.00    -0.460 C  
HETATM   10  C   UNL     1      -9.249  16.121  66.693  1.00  0.00    -0.273 A  
HETATM   11  N   UNL     1     -12.774  14.637  63.739  1.00  0.00    -0.664 NA 
HETATM   12  C   UNL     1      -9.760  13.869  67.487  1.00  0.00    -0.232 A  
HETATM   13  C   UNL     1      -9.022  15.057  67.578  1.00  0.00    -0.189 A  
BRANCH  10  14
HETATM   14  C   UNL     1      -8.448  17.354  66.811  1.00  0.00    -0.254 A  
HETATM   15  N   UNL     1      -8.021  18.079  65.796  1.00  0.00    -0.529 NA 
HETATM   16  C   UNL     1      -7.304  19.184  66.245  1.00  0.00    -0.260 A  
HETATM   17  C   UNL     1      -7.159  19.261  67.621  1.00  0.00    -0.225 A  
HETATM   18  C   UNL     1      -6.776  20.147  65.236  1.00  0.00    -0.337 C  
HETATM   19  C   UNL     1      -6.465  20.262  68.401  1.00  0.00    -0.309 C  
HETATM   20  S   UNL     1      -7.958  17.935  68.353  1.00  0.00    -0.304 SA 
HETATM   21  O   UNL     1      -5.862  21.224  67.947  1.00  0.00    -0.333 OA 
HETATM   22  O   UNL     1      -6.533  20.039  69.741  1.00  0.00    -0.349 OA 
ENDBRANCH  10  14
ENDBRANCH   5   6
ENDBRANCH   4   5
TORSDOF 3
ENDMDL
MODEL       13
REMARK 921   NORMALIZED FREE ENERGY PREDICTED BY IDOCK:   -6.30 KCAL/MOL
REMARK 922        TOTAL FREE ENERGY PREDICTED BY IDOCK:   -8.09 KCAL/MOL
REMARK 923 INTER-LIGAND FREE ENERGY PREDICTED BY IDOCK:   -7.43 KCAL/MOL
REMARK 924 INTRA-LIGAND FREE ENERGY PREDICTED BY IDOCK:   -0.66 KCAL/MOL
REMARK 927      BINDING AFFINITY PREDICTED BY RF-SCORE:    0.00 PKD
ROOT
HETATM    1  C   UNL     1      -8.895   8.079  73.384  1.00  0.00    -0.334 C  
HETATM    2  C   UNL     1      -9.668   8.054  72.067  1.00  0.00    -0.264 C  
HETATM    3  C   UNL     1      -9.936   6.610  71.635  1.00  0.00    -0.187 C  
HETATM    4  C   UNL     1     -10.972   8.854  72.197  1.00  0.00    -0.279 C  
ENDROOT
BRANCH   4   5
HETATM    5  O   UNL     1     -11.684   8.778  70.960  1.00  0.00    -0.280 OA 
BRANCH   5   6
HETATM    6  C   UNL     1     -11.607   9.871  70.142  1.00  0.00    -0.218 A  
HETATM    7  C   UNL     1     -11.006   9.686  68.891  1.00  0.00    -0.153 A  
HETATM    8  C   UNL     1     -10.855  10.773  68.015  1.00  0.00    -0.302 A  
HETATM    9  C   UNL     1     -10.551   8.391  68.466  1.00  0.00    -0.106 C  
HETATM   10  C   UNL     1     -11.290  12.060  68.370  1.00  0.00    -0.332 A  
HETATM   11  N   UNL     1     -10.180   7.365  68.068  1.00  0.00    -0.183 NA 
HETATM   12  C   UNL     1     -12.037  11.149  70.509  1.00  0.00    -0.474 A  
HETATM   13  C   UNL     1     -11.877  12.230  69.632  1.00  0.00    -0.393 A  
BRANCH  10  14
HETATM   14  C   UNL     1     -11.129  13.221  67.475  1.00  0.00    -0.270 A  
HETATM   15  N   UNL     1     -10.289  14.217  67.672  1.00  0.00    -0.246 NA 
HETATM   16  C   UNL     1     -10.374  15.147  66.639  1.00  0.00    -0.274 A  
HETATM   17  C   UNL     1     -11.326  14.856  65.675  1.00  0.00    -0.325 A  
HETATM   18  C   UNL     1      -9.464  16.327  66.668  1.00  0.00    -0.269 C  
HETATM   19  C   UNL     1     -11.676  15.615  64.494  1.00  0.00    -0.220 C  
HETATM   20  S   UNL     1     -12.104  13.382  66.068  1.00  0.00    -0.441 SA 
HETATM   21  O   UNL     1     -11.175  16.679  64.160  1.00  0.00    -1.103 OA 
HETATM   22  O   UNL     1     -12.652  15.029  63.750  1.00  0.00    -0.776 OA 
ENDBRANCH  10  14
ENDBRANCH   5   6
ENDBRANCH   4   5
TORSDOF 3
ENDMDL
MODEL       14
REMARK 921   NORMALIZED FREE ENERGY PREDICTED BY IDOCK:   -6.28 KCAL/MOL
REMARK 922        TOTAL FREE ENERGY PREDICTED BY IDOCK:   -8.07 KCAL/MOL
REMARK 923 INTER-LIGAND FREE ENERGY PREDICTED BY IDOCK:   -7.36 KCAL/MOL
REMARK 924 INTRA-LIGAND FREE ENERGY PREDICTED BY IDOCK:   -0.72 KCAL/MOL
REMARK 927      BINDING AFFINITY PREDICTED BY RF-SCORE:    0.00 PKD
ROOT
HETATM    1  C   UNL     1     -10.786   9.486  71.318  1.00  0.00    -0.386 C  
HETATM    2  C   UNL     1     -10.855  10.069  69.908  1.00  0.00    -0.328 C  
HETATM    3  C   UNL     1     -10.520   8.995  68.871  1.00  0.00    -0.231 C  
HETATM    4  C   UNL     1     -12.237  10.687  69.652  1.00  0.00    -0.206 C  
ENDROOT
BRANCH   4   5
HETATM    5  O   UNL     1     -12.276  11.190  68.315  1.00  0.00    -0.613 OA 
BRANCH   5   6
HETATM    6  C   UNL     1     -11.830  12.469  68.128  1.00  0.00    -0.317 A  
HETATM    7  C   UNL     1     -10.996  12.695  67.026  1.00  0.00    -0.300 A  
HETATM    8  C   UNL     1     -10.466  13.975  66.796  1.00  0.00    -0.277 A  
HETATM    9  C   UNL     1     -10.680  11.643  66.101  1.00  0.00    -0.278 C  
HETATM   10  C   UNL     1     -10.749  15.046  67.659  1.00  0.00    -0.274 A  
HETATM   11  N   UNL     1     -10.404  10.832  65.316  1.00  0.00    -0.277 NA 
HETATM   12  C   UNL     1     -12.112  13.525  68.998  1.00  0.00    -0.330 A  
HETATM   13  C   UNL     1     -11.574  14.799  68.765  1.00  0.00    -0.347 A  
BRANCH  10  14
HETATM   14  C   UNL     1     -10.193  16.395  67.448  1.00  0.00    -0.281 A  
HETATM   15  N   UNL     1     -10.671  17.503  67.980  1.00  0.00    -0.381 NA 
HETATM   16  C   UNL     1      -9.915  18.605  67.593  1.00  0.00    -0.341 A  
HETATM   17  C   UNL     1      -8.876  18.317  66.722  1.00  0.00    -0.276 A  
HETATM   18  C   UNL     1     -10.282  19.944  68.133  1.00  0.00    -0.564 C  
HETATM   19  C   UNL     1      -7.922  19.225  66.124  1.00  0.00    -0.294 C  
HETATM   20  S   UNL     1      -8.844  16.634  66.409  1.00  0.00    -0.316 SA 
HETATM   21  O   UNL     1      -7.895  20.436  66.290  1.00  0.00    -0.213 OA 
HETATM   22  O   UNL     1      -7.018  18.601  65.322  1.00  0.00    -0.523 OA 
ENDBRANCH  10  14
ENDBRANCH   5   6
ENDBRANCH   4   5
TORSDOF 3
ENDMDL
MODEL       15
REMARK 921   NORMALIZED FREE ENERGY PREDICTED BY IDOCK:   -6.27 KCAL/MOL
REMARK 922        TOTAL FREE ENERGY PREDICTED BY IDOCK:   -8.05 KCAL/MOL
REMARK 923 INTER-LIGAND FREE ENERGY PREDICTED BY IDOCK:   -7.37 KCAL/MOL
REMARK 924 INTRA-LIGAND FREE ENERGY PREDICTED BY IDOCK:   -0.69 KCAL/MOL
REMARK 927      BINDING AFFINITY PREDICTED BY RF-SCORE:    0.00 PKD
ROOT
HETATM    1  C   UNL     1     -12.637   7.199  71.463  1.00  0.00    -0.427 C  
HETATM    2  C   UNL     1     -11.366   7.921  71.023  1.00  0.00    -0.292 C  
HETATM    3  C   UNL     1     -10.377   8.016  72.187  1.00  0.00    -0.318 C  
HETATM    4  C   UNL     1     -10.742   7.214  69.811  1.00  0.00    -0.239 C  
ENDROOT
BRANCH   4   5
HETATM    5  O   UNL     1      -9.538   7.895  69.450  1.00  0.00    -0.160 OA 
BRANCH   5   6
HETATM    6  C   UNL     1      -9.681   9.056  68.740  1.00  0.00    -0.159 A  
HETATM    7  C   UNL     1      -8.824  10.112  69.073  1.00  0.00    -0.166 A  
HETATM    8  C   UNL     1      -8.940  11.347  68.415  1.00  0.00    -0.172 A  
HETATM    9  C   UNL     1      -7.800   9.957  70.069  1.00  0.00    -0.180 C  
HETATM   10  C   UNL     1      -9.914  11.555  67.425  1.00  0.00    -0.209 A  
HETATM   11  N   UNL     1      -6.948   9.881  70.855  1.00  0.00    -0.334 NA 
HETATM   12  C   UNL     1     -10.659   9.254  67.762  1.00  0.00    -0.307 A  
HETATM   13  C   UNL     1     -10.773  10.491  67.114  1.00  0.00    -0.323 A  
BRANCH  10  14
HETATM   14  C   UNL     1     -10.067  12.847  66.730  1.00  0.00    -0.238 A  
HETATM   15  N   UNL     1      -9.271  13.886  66.881  1.00  0.00    -0.252 NA 
HETATM   16  C   UNL     1      -9.682  14.945  66.076  1.00  0.00    -0.328 A  
HETATM   17  C   UNL     1     -10.832  14.702  65.342  1.00  0.00    -0.356 A  
HETATM   18  C   UNL     1      -8.874  16.197  66.081  1.00  0.00    -0.367 C  
HETATM   19  C   UNL     1     -11.526  15.587  64.432  1.00  0.00    -0.259 C  
HETATM   20  S   UNL     1     -11.384  13.112  65.657  1.00  0.00    -0.311 SA 
HETATM   21  O   UNL     1     -11.199  16.736  64.172  1.00  0.00    -1.155 OA 
HETATM   22  O   UNL     1     -12.623  15.018  63.864  1.00  0.00    -0.813 OA 
ENDBRANCH  10  14
ENDBRANCH   5   6
ENDBRANCH   4   5
TORSDOF 3
ENDMDL
MODEL       16
REMARK 921   NORMALIZED FREE ENERGY PREDICTED BY IDOCK:   -6.26 KCAL/MOL
REMARK 922        TOTAL FREE ENERGY PREDICTED BY IDOCK:   -8.04 KCAL/MOL
REMARK 923 INTER-LIGAND FREE ENERGY PREDICTED BY IDOCK:   -7.62 KCAL/MOL
REMARK 924 INTRA-LIGAND FREE ENERGY PREDICTED BY IDOCK:   -0.42 KCAL/MOL
REMARK 927      BINDING AFFINITY PREDICTED BY RF-SCORE:    0.00 PKD
ROOT
HETATM    1  C   UNL     1     -12.350  16.014  73.489  1.00  0.00    -0.671 C  
HETATM    2  C   UNL     1     -12.982  14.972  72.570  1.00  0.00    -0.464 C  
HETATM    3  C   UNL     1     -14.382  15.417  72.143  1.00  0.00    -0.642 C  
HETATM    4  C   UNL     1     -12.079  14.713  71.354  1.00  0.00    -0.355 C  
ENDROOT
BRANCH   4   5
HETATM    5  O   UNL     1     -12.718  13.762  70.500  1.00  0.00    -0.298 OA 
BRANCH   5   6
HETATM    6  C   UNL     1     -12.383  12.449  70.689  1.00  0.00    -0.279 A  
HETATM    7  C   UNL     1     -11.502  11.879  69.762  1.00  0.00    -0.303 A  
HETATM    8  C   UNL     1     -11.147  10.525  69.869  1.00  0.00    -0.371 A  
HETATM    9  C   UNL     1     -10.926  12.660  68.702  1.00  0.00    -0.256 C  
HETATM   10  C   UNL     1     -11.667   9.714  70.890  1.00  0.00    -0.412 A  
HETATM   11  N   UNL     1     -10.423  13.248  67.836  1.00  0.00    -0.235 NA 
HETATM   12  C   UNL     1     -12.914  11.650  71.705  1.00  0.00    -0.483 A  
HETATM   13  C   UNL     1     -12.560  10.298  71.801  1.00  0.00    -0.488 A  
BRANCH  10  14
HETATM   14  C   UNL     1     -11.323   8.286  71.016  1.00  0.00    -0.269 A  
HETATM   15  N   UNL     1     -10.992   7.497  70.013  1.00  0.00    -0.257 NA 
HETATM   16  C   UNL     1     -10.714   6.210  70.467  1.00  0.00    -0.278 A  
HETATM   17  C   UNL     1     -10.882   6.029  71.831  1.00  0.00    -0.254 A  
HETATM   18  C   UNL     1     -10.279   5.186  69.477  1.00  0.00    -0.318 C  
HETATM   19  C   UNL     1     -10.696   4.825  72.610  1.00  0.00    -0.199 C  
HETATM   20  S   UNL     1     -11.373   7.505  72.546  1.00  0.00    -0.337 SA 
HETATM   21  O   UNL     1     -10.362   3.736  72.166  1.00  0.00    -0.149 OA 
HETATM   22  O   UNL     1     -10.934   5.004  73.938  1.00  0.00    -0.302 OA 
ENDBRANCH  10  14
ENDBRANCH   5   6
ENDBRANCH   4   5
TORSDOF 3
ENDMDL
MODEL       17
REMARK 921   NORMALIZED FREE ENERGY PREDICTED BY IDOCK:   -6.25 KCAL/MOL
REMARK 922        TOTAL FREE ENERGY PREDICTED BY IDOCK:   -8.03 KCAL/MOL
REMARK 923 INTER-LIGAND FREE ENERGY PREDICTED BY IDOCK:   -7.50 KCAL/MOL
REMARK 924 INTRA-LIGAND FREE ENERGY PREDICTED BY IDOCK:   -0.53 KCAL/MOL
REMARK 927      BINDING AFFINITY PREDICTED BY RF-SCORE:    0.00 PKD
ROOT
HETATM    1  C   UNL     1      -9.152   8.899  68.592  1.00  0.00    -0.137 C  
HETATM    2  C   UNL     1      -9.940   9.907  67.758  1.00  0.00    -0.201 C  
HETATM    3  C   UNL     1     -10.152   9.375  66.339  1.00  0.00    -0.332 C  
HETATM    4  C   UNL     1     -11.276  10.238  68.440  1.00  0.00    -0.224 C  
ENDROOT
BRANCH   4   5
HETATM    5  O   UNL     1     -11.999  11.155  67.616  1.00  0.00    -0.613 OA 
BRANCH   5   6
HETATM    6  C   UNL     1     -11.559  12.450  67.609  1.00  0.00    -0.357 A  
HETATM    7  C   UNL     1     -11.766  13.183  66.434  1.00  0.00    -0.429 A  
HETATM    8  C   UNL     1     -11.303  14.506  66.339  1.00  0.00    -0.349 A  
HETATM    9  C   UNL     1     -12.468  12.618  65.315  1.00  0.00    -0.416 C  
HETATM   10  C   UNL     1     -10.621  15.116  67.404  1.00  0.00    -0.271 A  
HETATM   11  N   UNL     1     -13.040  12.215  64.388  1.00  0.00    -0.713 NA 
HETATM   12  C   UNL     1     -10.874  13.044  68.672  1.00  0.00    -0.287 A  
HETATM   13  C   UNL     1     -10.410  14.362  68.567  1.00  0.00    -0.248 A  
BRANCH  10  14
HETATM   14  C   UNL     1     -10.112  16.498  67.324  1.00  0.00    -0.273 A  
HETATM   15  N   UNL     1     -10.572  17.515  68.025  1.00  0.00    -0.389 NA 
HETATM   16  C   UNL     1      -9.870  18.679  67.725  1.00  0.00    -0.325 A  
HETATM   17  C   UNL     1      -8.894  18.534  66.752  1.00  0.00    -0.282 A  
HETATM   18  C   UNL     1     -10.223  19.930  68.455  1.00  0.00    -0.529 C  
HETATM   19  C   UNL     1      -8.009  19.538  66.205  1.00  0.00    -0.330 C  
HETATM   20  S   UNL     1      -8.851  16.904  66.229  1.00  0.00    -0.255 SA 
HETATM   21  O   UNL     1      -7.994  20.719  66.519  1.00  0.00    -0.055 OA 
HETATM   22  O   UNL     1      -7.155  19.045  65.267  1.00  0.00    -0.485 OA 
ENDBRANCH  10  14
ENDBRANCH   5   6
ENDBRANCH   4   5
TORSDOF 3
ENDMDL
MODEL       18
REMARK 921   NORMALIZED FREE ENERGY PREDICTED BY IDOCK:   -6.20 KCAL/MOL
REMARK 922        TOTAL FREE ENERGY PREDICTED BY IDOCK:   -7.98 KCAL/MOL
REMARK 923 INTER-LIGAND FREE ENERGY PREDICTED BY IDOCK:   -7.31 KCAL/MOL
REMARK 924 INTRA-LIGAND FREE ENERGY PREDICTED BY IDOCK:   -0.66 KCAL/MOL
REMARK 927      BINDING AFFINITY PREDICTED BY RF-SCORE:    0.00 PKD
ROOT
HETATM    1  C   UNL     1      -9.511   8.166  72.923  1.00  0.00    -0.345 C  
HETATM    2  C   UNL     1     -10.135   8.462  71.561  1.00  0.00    -0.293 C  
HETATM    3  C   UNL     1     -10.398   7.160  70.802  1.00  0.00    -0.219 C  
HETATM    4  C   UNL     1     -11.421   9.284  71.729  1.00  0.00    -0.378 C  
ENDROOT
BRANCH   4   5
HETATM    5  O   UNL     1     -11.995   9.511  70.440  1.00  0.00    -0.195 OA 
BRANCH   5   6
HETATM    6  C   UNL     1     -11.825  10.759  69.905  1.00  0.00    -0.335 A  
HETATM    7  C   UNL     1     -11.213  10.832  68.648  1.00  0.00    -0.333 A  
HETATM    8  C   UNL     1     -10.969  12.081  68.055  1.00  0.00    -0.267 A  
HETATM    9  C   UNL     1     -10.842   9.645  67.928  1.00  0.00    -0.215 C  
HETATM   10  C   UNL     1     -11.320  13.276  68.705  1.00  0.00    -0.331 A  
HETATM   11  N   UNL     1     -10.535   8.718  67.298  1.00  0.00    -0.288 NA 
HETATM   12  C   UNL     1     -12.172  11.941  70.564  1.00  0.00    -0.426 A  
HETATM   13  C   UNL     1     -11.920  13.184  69.970  1.00  0.00    -0.391 A  
BRANCH  10  14
HETATM   14  C   UNL     1     -11.061  14.601  68.112  1.00  0.00    -0.274 A  
HETATM   15  N   UNL     1     -10.648  15.660  68.779  1.00  0.00    -0.229 NA 
HETATM   16  C   UNL     1     -10.489  16.750  67.927  1.00  0.00    -0.335 A  
HETATM   17  C   UNL     1     -10.830  16.506  66.606  1.00  0.00    -0.053 A  
HETATM   18  C   UNL     1      -9.985  18.031  68.498  1.00  0.00    -0.395 C  
HETATM   19  C   UNL     1     -10.797  17.418  65.483  1.00  0.00     0.001 C  
HETATM   20  S   UNL     1     -11.335  14.879  66.438  1.00  0.00    -0.264 SA 
HETATM   21  O   UNL     1     -10.464  18.593  65.532  1.00  0.00    -0.585 OA 
HETATM   22  O   UNL     1     -11.187  16.841  64.314  1.00  0.00    -1.163 OA 
ENDBRANCH  10  14
ENDBRANCH   5   6
ENDBRANCH   4   5
TORSDOF 3
ENDMDL
MODEL       19
REMARK 921   NORMALIZED FREE ENERGY PREDICTED BY IDOCK:   -6.15 KCAL/MOL
REMARK 922        TOTAL FREE ENERGY PREDICTED BY IDOCK:   -7.92 KCAL/MOL
REMARK 923 INTER-LIGAND FREE ENERGY PREDICTED BY IDOCK:   -7.48 KCAL/MOL
REMARK 924 INTRA-LIGAND FREE ENERGY PREDICTED BY IDOCK:   -0.44 KCAL/MOL
REMARK 927      BINDING AFFINITY PREDICTED BY RF-SCORE:    0.00 PKD
ROOT
HETATM    1  C   UNL     1     -12.274  15.924  73.321  1.00  0.00    -0.625 C  
HETATM    2  C   UNL     1     -12.958  14.855  72.471  1.00  0.00    -0.472 C  
HETATM    3  C   UNL     1     -14.352  15.323  72.047  1.00  0.00    -0.689 C  
HETATM    4  C   UNL     1     -12.089  14.503  71.254  1.00  0.00    -0.354 C  
ENDROOT
BRANCH   4   5
HETATM    5  O   UNL     1     -12.775  13.529  70.465  1.00  0.00    -0.254 OA 
BRANCH   5   6
HETATM    6  C   UNL     1     -12.430  12.221  70.671  1.00  0.00    -0.236 A  
HETATM    7  C   UNL     1     -11.555  11.643  69.743  1.00  0.00    -0.389 A  
HETATM    8  C   UNL     1     -11.190  10.292  69.868  1.00  0.00    -0.360 A  
HETATM    9  C   UNL     1     -10.996  12.410  68.664  1.00  0.00    -0.247 C  
HETATM   10  C   UNL     1     -11.694   9.495  70.907  1.00  0.00    -0.391 A  
HETATM   11  N   UNL     1     -10.506  12.987  67.784  1.00  0.00    -0.224 NA 
HETATM   12  C   UNL     1     -12.944  11.436  71.705  1.00  0.00    -0.523 A  
HETATM   13  C   UNL     1     -12.580  10.087  71.819  1.00  0.00    -0.504 A  
BRANCH  10  14
HETATM   14  C   UNL     1     -11.339   8.071  71.052  1.00  0.00    -0.273 A  
HETATM   15  N   UNL     1     -11.548   7.345  72.132  1.00  0.00    -0.283 NA 
HETATM   16  C   UNL     1     -11.109   6.038  71.941  1.00  0.00    -0.277 A  
HETATM   17  C   UNL     1     -10.525   5.797  70.708  1.00  0.00    -0.258 A  
HETATM   18  C   UNL     1     -11.303   5.055  73.045  1.00  0.00    -0.374 C  
HETATM   19  C   UNL     1      -9.957   4.566  70.204  1.00  0.00    -0.208 C  
HETATM   20  S   UNL     1     -10.552   7.232  69.775  1.00  0.00    -0.238 SA 
HETATM   21  O   UNL     1      -9.890   3.511  70.818  1.00  0.00    -0.169 OA 
HETATM   22  O   UNL     1      -9.478   4.677  68.936  1.00  0.00    -0.131 OA 
ENDBRANCH  10  14
ENDBRANCH   5   6
ENDBRANCH   4   5
TORSDOF 3
ENDMDL
MODEL       20
REMARK 921   NORMALIZED FREE ENERGY PREDICTED BY IDOCK:   -6.09 KCAL/MOL
REMARK 922        TOTAL FREE ENERGY PREDICTED BY IDOCK:   -7.84 KCAL/MOL
REMARK 923 INTER-LIGAND FREE ENERGY PREDICTED BY IDOCK:   -7.45 KCAL/MOL
REMARK 924 INTRA-LIGAND FREE ENERGY PREDICTED BY IDOCK:   -0.40 KCAL/MOL
REMARK 927      BINDING AFFINITY PREDICTED BY RF-SCORE:    0.00 PKD
ROOT
HETATM    1  C   UNL     1     -12.249  15.209  73.928  1.00  0.00    -0.698 C  
HETATM    2  C   UNL     1     -12.786  15.109  72.501  1.00  0.00    -0.443 C  
HETATM    3  C   UNL     1     -14.257  15.529  72.454  1.00  0.00    -0.571 C  
HETATM    4  C   UNL     1     -11.929  15.955  71.548  1.00  0.00    -0.471 C  
ENDROOT
BRANCH   4   5
HETATM    5  O   UNL     1     -12.480  15.867  70.232  1.00  0.00    -0.339 OA 
BRANCH   5   6
HETATM    6  C   UNL     1     -11.992  14.872  69.430  1.00  0.00    -0.301 A  
HETATM    7  C   UNL     1     -11.232  15.267  68.322  1.00  0.00    -0.318 A  
HETATM    8  C   UNL     1     -10.733  14.303  67.431  1.00  0.00    -0.282 A  
HETATM    9  C   UNL     1     -10.926  16.650  68.081  1.00  0.00    -0.327 C  
HETATM   10  C   UNL     1     -10.989  12.935  67.621  1.00  0.00    -0.274 A  
HETATM   11  N   UNL     1     -10.638  17.751  67.848  1.00  0.00    -0.396 NA 
HETATM   12  C   UNL     1     -12.260  13.515  69.624  1.00  0.00    -0.304 A  
HETATM   13  C   UNL     1     -11.765  12.559  68.727  1.00  0.00    -0.371 A  
BRANCH  10  14
HETATM   14  C   UNL     1     -10.491  11.904  66.692  1.00  0.00    -0.216 A  
HETATM   15  N   UNL     1     -10.206  10.660  67.024  1.00  0.00    -0.211 NA 
HETATM   16  C   UNL     1      -9.770   9.940  65.916  1.00  0.00    -0.262 A  
HETATM   17  C   UNL     1      -9.690  10.674  64.743  1.00  0.00    -0.292 A  
HETATM   18  C   UNL     1      -9.440   8.497  66.091  1.00  0.00    -0.286 C  
HETATM   19  C   UNL     1      -9.262  10.236  63.432  1.00  0.00    -0.292 C  
HETATM   20  S   UNL     1     -10.193  12.283  65.042  1.00  0.00    -0.273 SA 
HETATM   21  O   UNL     1      -8.877   9.110  63.150  1.00  0.00    -0.196 OA 
HETATM   22  O   UNL     1      -9.321  11.219  62.493  1.00  0.00    -0.323 OA 
ENDBRANCH  10  14
ENDBRANCH   5   6
ENDBRANCH   4   5
TORSDOF 3
ENDMDL
MODEL       21
REMARK 921   NORMALIZED FREE ENERGY PREDICTED BY IDOCK:   -6.08 KCAL/MOL
REMARK 922        TOTAL FREE ENERGY PREDICTED BY IDOCK:   -7.84 KCAL/MOL
REMARK 923 INTER-LIGAND FREE ENERGY PREDICTED BY IDOCK:   -7.19 KCAL/MOL
REMARK 924 INTRA-LIGAND FREE ENERGY PREDICTED BY IDOCK:   -0.64 KCAL/MOL
REMARK 927      BINDING AFFINITY PREDICTED BY RF-SCORE:    0.00 PKD
ROOT
HETATM    1  C   UNL     1      -5.407  19.674  71.628  1.00  0.00    -0.421 C  
HETATM    2  C   UNL     1      -5.814  19.678  70.156  1.00  0.00    -0.315 C  
HETATM    3  C   UNL     1      -5.340  20.964  69.475  1.00  0.00    -0.410 C  
HETATM    4  C   UNL     1      -5.264  18.432  69.446  1.00  0.00    -0.197 C  
ENDROOT
BRANCH   4   5
HETATM    5  O   UNL     1      -5.633  18.487  68.066  1.00  0.00    -0.170 OA 
BRANCH   5   6
HETATM    6  C   UNL     1      -6.559  17.574  67.643  1.00  0.00    -0.161 A  
HETATM    7  C   UNL     1      -7.799  18.075  67.227  1.00  0.00    -0.224 A  
HETATM    8  C   UNL     1      -8.813  17.193  66.819  1.00  0.00    -0.270 A  
HETATM    9  C   UNL     1      -8.058  19.487  67.185  1.00  0.00    -0.271 C  
HETATM   10  C   UNL     1      -8.616  15.803  66.827  1.00  0.00    -0.306 A  
HETATM   11  N   UNL     1      -8.314  20.618  67.119  1.00  0.00    -0.278 NA 
HETATM   12  C   UNL     1      -6.354  16.192  67.663  1.00  0.00    -0.181 A  
HETATM   13  C   UNL     1      -7.373  15.318  67.261  1.00  0.00    -0.230 A  
BRANCH  10  14
HETATM   14  C   UNL     1      -9.669  14.855  66.419  1.00  0.00    -0.285 A  
HETATM   15  N   UNL     1     -10.000  13.762  67.077  1.00  0.00    -0.246 NA 
HETATM   16  C   UNL     1     -11.037  13.092  66.434  1.00  0.00    -0.289 A  
HETATM   17  C   UNL     1     -11.460  13.678  65.251  1.00  0.00    -0.308 A  
HETATM   18  C   UNL     1     -11.576  11.851  67.058  1.00  0.00    -0.365 C  
HETATM   19  C   UNL     1     -12.493  13.233  64.342  1.00  0.00    -0.290 C  
HETATM   20  S   UNL     1     -10.550  15.100  64.963  1.00  0.00    -0.375 SA 
HETATM   21  O   UNL     1     -13.169  12.223  64.476  1.00  0.00    -0.799 OA 
HETATM   22  O   UNL     1     -12.661  14.060  63.276  1.00  0.00    -0.801 OA 
ENDBRANCH  10  14
ENDBRANCH   5   6
ENDBRANCH   4   5
TORSDOF 3
ENDMDL
MODEL       22
REMARK 921   NORMALIZED FREE ENERGY PREDICTED BY IDOCK:   -6.08 KCAL/MOL
REMARK 922        TOTAL FREE ENERGY PREDICTED BY IDOCK:   -7.83 KCAL/MOL
REMARK 923 INTER-LIGAND FREE ENERGY PREDICTED BY IDOCK:   -7.37 KCAL/MOL
REMARK 924 INTRA-LIGAND FREE ENERGY PREDICTED BY IDOCK:   -0.46 KCAL/MOL
REMARK 927      BINDING AFFINITY PREDICTED BY RF-SCORE:    0.00 PKD
ROOT
HETATM    1  C   UNL     1      -8.338  19.348  67.302  1.00  0.00    -0.324 C  
HETATM    2  C   UNL     1      -9.605  18.521  67.091  1.00  0.00    -0.302 C  
HETATM    3  C   UNL     1     -10.654  19.338  66.334  1.00  0.00    -0.542 C  
HETATM    4  C   UNL     1      -9.273  17.214  66.356  1.00  0.00    -0.258 C  
ENDROOT
BRANCH   4   5
HETATM    5  O   UNL     1     -10.484  16.485  66.145  1.00  0.00    -0.318 OA 
BRANCH   5   6
HETATM    6  C   UNL     1     -10.681  15.384  66.932  1.00  0.00    -0.314 A  
HETATM    7  C   UNL     1     -11.507  14.376  66.419  1.00  0.00    -0.365 A  
HETATM    8  C   UNL     1     -11.787  13.236  67.189  1.00  0.00    -0.424 A  
HETATM    9  C   UNL     1     -12.066  14.469  65.099  1.00  0.00    -0.363 C  
HETATM   10  C   UNL     1     -11.261  13.082  68.481  1.00  0.00    -0.309 A  
HETATM   11  N   UNL     1     -12.531  14.488  64.034  1.00  0.00    -0.811 NA 
HETATM   12  C   UNL     1     -10.158  15.246  68.220  1.00  0.00    -0.225 A  
HETATM   13  C   UNL     1     -10.447  14.108  68.985  1.00  0.00    -0.193 A  
BRANCH  10  14
HETATM   14  C   UNL     1     -11.552  11.902  69.316  1.00  0.00    -0.315 A  
HETATM   15  N   UNL     1     -12.391  11.883  70.333  1.00  0.00    -0.286 NA 
HETATM   16  C   UNL     1     -12.447  10.615  70.903  1.00  0.00    -0.397 A  
HETATM   17  C   UNL     1     -11.603   9.681  70.324  1.00  0.00    -0.198 A  
HETATM   18  C   UNL     1     -13.379  10.390  72.045  1.00  0.00    -0.440 C  
HETATM   19  C   UNL     1     -11.409   8.294  70.685  1.00  0.00    -0.244 C  
HETATM   20  S   UNL     1     -10.747  10.410  69.033  1.00  0.00    -0.244 SA 
HETATM   21  O   UNL     1     -11.973   7.713  71.601  1.00  0.00    -0.278 OA 
HETATM   22  O   UNL     1     -10.508   7.655  69.891  1.00  0.00    -0.220 OA 
ENDBRANCH  10  14
ENDBRANCH   5   6
ENDBRANCH   4   5
TORSDOF 3
ENDMDL
MODEL       23
REMARK 921   NORMALIZED FREE ENERGY PREDICTED BY IDOCK:   -6.03 KCAL/MOL
REMARK 922        TOTAL FREE ENERGY PREDICTED BY IDOCK:   -7.78 KCAL/MOL
REMARK 923 INTER-LIGAND FREE ENERGY PREDICTED BY IDOCK:   -7.48 KCAL/MOL
REMARK 924 INTRA-LIGAND FREE ENERGY PREDICTED BY IDOCK:   -0.30 KCAL/MOL
REMARK 927      BINDING AFFINITY PREDICTED BY RF-SCORE:    0.00 PKD
ROOT
HETATM    1  C   UNL     1     -10.563   4.882  73.997  1.00  0.00    -0.350 C  
HETATM    2  C   UNL     1     -10.378   6.398  74.036  1.00  0.00    -0.340 C  
HETATM    3  C   UNL     1      -8.902   6.749  74.238  1.00  0.00    -0.197 C  
HETATM    4  C   UNL     1     -10.938   7.039  72.758  1.00  0.00    -0.294 C  
ENDROOT
BRANCH   4   5
HETATM    5  O   UNL     1     -10.716   8.449  72.814  1.00  0.00    -0.307 OA 
BRANCH   5   6
HETATM    6  C   UNL     1     -10.791   9.128  71.629  1.00  0.00    -0.372 A  
HETATM    7  C   UNL     1     -12.062   9.551  71.219  1.00  0.00    -0.443 A  
HETATM    8  C   UNL     1     -12.220  10.217  69.993  1.00  0.00    -0.191 A  
HETATM    9  C   UNL     1     -13.221   9.335  72.040  1.00  0.00    -0.447 C  
HETATM   10  C   UNL     1     -11.122  10.466  69.153  1.00  0.00    -0.296 A  
HETATM   11  N   UNL     1     -14.187   9.200  72.670  1.00  0.00    -0.522 NA 
HETATM   12  C   UNL     1      -9.693   9.364  70.798  1.00  0.00    -0.332 A  
HETATM   13  C   UNL     1      -9.859  10.024  69.573  1.00  0.00    -0.249 A  
BRANCH  10  14
HETATM   14  C   UNL     1     -11.263  11.150  67.855  1.00  0.00    -0.302 A  
HETATM   15  N   UNL     1     -12.075  12.162  67.616  1.00  0.00    -0.488 NA 
HETATM   16  C   UNL     1     -11.962  12.586  66.295  1.00  0.00    -0.343 A  
HETATM   17  C   UNL     1     -11.078  11.849  65.524  1.00  0.00    -0.304 A  
HETATM   18  C   UNL     1     -12.776  13.753  65.851  1.00  0.00    -0.452 C  
HETATM   19  C   UNL     1     -10.745  12.014  64.126  1.00  0.00    -0.357 C  
HETATM   20  S   UNL     1     -10.367  10.623  66.486  1.00  0.00    -0.226 SA 
HETATM   21  O   UNL     1     -11.222  12.855  63.378  1.00  0.00    -0.394 OA 
HETATM   22  O   UNL     1      -9.819  11.120  63.686  1.00  0.00    -0.277 OA 
ENDBRANCH  10  14
ENDBRANCH   5   6
ENDBRANCH   4   5
TORSDOF 3
ENDMDL
MODEL       24
REMARK 921   NORMALIZED FREE ENERGY PREDICTED BY IDOCK:   -6.00 KCAL/MOL
REMARK 922        TOTAL FREE ENERGY PREDICTED BY IDOCK:   -7.74 KCAL/MOL
REMARK 923 INTER-LIGAND FREE ENERGY PREDICTED BY IDOCK:   -7.28 KCAL/MOL
REMARK 924 INTRA-LIGAND FREE ENERGY PREDICTED BY IDOCK:   -0.46 KCAL/MOL
REMARK 927      BINDING AFFINITY PREDICTED BY RF-SCORE:    0.00 PKD
ROOT
HETATM    1  C   UNL     1     -11.303   4.786  73.349  1.00  0.00    -0.397 C  
HETATM    2  C   UNL     1     -10.766   6.212  73.454  1.00  0.00    -0.280 C  
HETATM    3  C   UNL     1      -9.238   6.214  73.374  1.00  0.00    -0.132 C  
HETATM    4  C   UNL     1     -11.387   7.098  72.363  1.00  0.00    -0.274 C  
ENDROOT
BRANCH   4   5
HETATM    5  O   UNL     1     -10.836   8.413  72.469  1.00  0.00    -0.344 OA 
BRANCH   5   6
HETATM    6  C   UNL     1     -11.011   9.238  71.392  1.00  0.00    -0.359 A  
HETATM    7  C   UNL     1      -9.904   9.434  70.557  1.00  0.00    -0.331 A  
HETATM    8  C   UNL     1      -9.998  10.300  69.456  1.00  0.00    -0.252 A  
HETATM    9  C   UNL     1      -8.665   8.745  70.786  1.00  0.00    -0.189 C  
HETATM   10  C   UNL     1     -11.187  10.993  69.174  1.00  0.00    -0.318 A  
HETATM   11  N   UNL     1      -7.646   8.204  70.918  1.00  0.00    -0.072 NA 
HETATM   12  C   UNL     1     -12.197   9.928  71.126  1.00  0.00    -0.468 A  
HETATM   13  C   UNL     1     -12.281  10.796  70.029  1.00  0.00    -0.409 A  
BRANCH  10  14
HETATM   14  C   UNL     1     -11.307  11.920  68.034  1.00  0.00    -0.288 A  
HETATM   15  N   UNL     1     -11.815  11.611  66.857  1.00  0.00    -0.547 NA 
HETATM   16  C   UNL     1     -11.794  12.711  66.005  1.00  0.00    -0.436 A  
HETATM   17  C   UNL     1     -11.221  13.851  66.545  1.00  0.00    -0.321 A  
HETATM   18  C   UNL     1     -12.370  12.563  64.638  1.00  0.00    -0.547 C  
HETATM   19  C   UNL     1     -11.029  15.145  65.926  1.00  0.00    -0.339 C  
HETATM   20  S   UNL     1     -10.726  13.533  68.153  1.00  0.00    -0.260 SA 
HETATM   21  O   UNL     1     -11.344  15.438  64.782  1.00  0.00    -0.412 OA 
HETATM   22  O   UNL     1     -10.443  16.052  66.753  1.00  0.00    -0.303 OA 
ENDBRANCH  10  14
ENDBRANCH   5   6
ENDBRANCH   4   5
TORSDOF 3
ENDMDL
MODEL       25
REMARK 921   NORMALIZED FREE ENERGY PREDICTED BY IDOCK:   -5.97 KCAL/MOL
REMARK 922        TOTAL FREE ENERGY PREDICTED BY IDOCK:   -7.71 KCAL/MOL
REMARK 923 INTER-LIGAND FREE ENERGY PREDICTED BY IDOCK:   -7.15 KCAL/MOL
REMARK 924 INTRA-LIGAND FREE ENERGY PREDICTED BY IDOCK:   -0.56 KCAL/MOL
REMARK 927      BINDING AFFINITY PREDICTED BY RF-SCORE:    0.00 PKD
ROOT
HETATM    1  C   UNL     1      -8.763   7.828  66.443  1.00  0.00    -0.167 C  
HETATM    2  C   UNL     1      -9.902   8.842  66.369  1.00  0.00    -0.353 C  
HETATM    3  C   UNL     1     -10.405   9.182  67.774  1.00  0.00    -0.302 C  
HETATM    4  C   UNL     1      -9.450  10.101  65.615  1.00  0.00    -0.220 C  
ENDROOT
BRANCH   4   5
HETATM    5  O   UNL     1     -10.527  11.040  65.596  1.00  0.00    -0.254 OA 
BRANCH   5   6
HETATM    6  C   UNL     1     -10.204  12.348  65.835  1.00  0.00    -0.251 A  
HETATM    7  C   UNL     1     -10.810  13.309  65.016  1.00  0.00    -0.335 A  
HETATM    8  C   UNL     1     -10.494  14.668  65.176  1.00  0.00    -0.440 A  
HETATM    9  C   UNL     1     -11.775  12.940  64.018  1.00  0.00    -0.434 C  
HETATM   10  C   UNL     1      -9.567  15.092  66.142  1.00  0.00    -0.345 A  
HETATM   11  N   UNL     1     -12.570  12.697  63.207  1.00  0.00    -0.663 NA 
HETATM   12  C   UNL     1      -9.275  12.756  66.794  1.00  0.00    -0.225 A  
HETATM   13  C   UNL     1      -8.960  14.114  66.943  1.00  0.00    -0.247 A  
BRANCH  10  14
HETATM   14  C   UNL     1      -9.206  16.510  66.320  1.00  0.00    -0.310 A  
HETATM   15  N   UNL     1     -10.015  17.529  66.106  1.00  0.00    -0.453 NA 
HETATM   16  C   UNL     1      -9.374  18.735  66.375  1.00  0.00    -0.312 A  
HETATM   17  C   UNL     1      -8.048  18.612  66.759  1.00  0.00    -0.265 A  
HETATM   18  C   UNL     1     -10.148  20.000  66.230  1.00  0.00    -0.603 C  
HETATM   19  C   UNL     1      -7.104  19.657  67.090  1.00  0.00    -0.204 C  
HETATM   20  S   UNL     1      -7.617  16.956  66.800  1.00  0.00    -0.275 SA 
HETATM   21  O   UNL     1      -7.337  20.857  67.068  1.00  0.00    -0.319 OA 
HETATM   22  O   UNL     1      -5.879  19.181  67.442  1.00  0.00    -0.174 OA 
ENDBRANCH  10  14
ENDBRANCH   5   6
ENDBRANCH   4   5
TORSDOF 3
ENDMDL
MODEL       26
REMARK 921   NORMALIZED FREE ENERGY PREDICTED BY IDOCK:   -5.91 KCAL/MOL
REMARK 922        TOTAL FREE ENERGY PREDICTED BY IDOCK:   -7.63 KCAL/MOL
REMARK 923 INTER-LIGAND FREE ENERGY PREDICTED BY IDOCK:   -7.10 KCAL/MOL
REMARK 924 INTRA-LIGAND FREE ENERGY PREDICTED BY IDOCK:   -0.53 KCAL/MOL
REMARK 927      BINDING AFFINITY PREDICTED BY RF-SCORE:    0.00 PKD
ROOT
HETATM    1  C   UNL     1     -10.035   4.175  66.222  1.00  0.00    -0.185 C  
HETATM    2  C   UNL     1      -9.751   5.273  67.244  1.00  0.00    -0.163 C  
HETATM    3  C   UNL     1      -8.332   5.817  67.060  1.00  0.00    -0.108 C  
HETATM    4  C   UNL     1     -10.799   6.390  67.134  1.00  0.00    -0.393 C  
ENDROOT
BRANCH   4   5
HETATM    5  O   UNL     1     -10.482   7.415  68.078  1.00  0.00    -0.198 OA 
BRANCH   5   6
HETATM    6  C   UNL     1     -10.425   8.694  67.597  1.00  0.00    -0.244 A  
HETATM    7  C   UNL     1     -10.769   9.721  68.485  1.00  0.00    -0.252 A  
HETATM    8  C   UNL     1     -10.774  11.056  68.049  1.00  0.00    -0.260 A  
HETATM    9  C   UNL     1     -11.102   9.444  69.855  1.00  0.00    -0.200 C  
HETATM   10  C   UNL     1     -10.447  11.391  66.725  1.00  0.00    -0.284 A  
HETATM   11  N   UNL     1     -11.365   9.276  70.974  1.00  0.00    -0.293 NA 
HETATM   12  C   UNL     1     -10.105   9.015  66.276  1.00  0.00    -0.311 A  
HETATM   13  C   UNL     1     -10.118  10.349  65.846  1.00  0.00    -0.326 A  
BRANCH  10  14
HETATM   14  C   UNL     1     -10.459  12.782  66.238  1.00  0.00    -0.257 A  
HETATM   15  N   UNL     1      -9.522  13.678  66.482  1.00  0.00    -0.272 NA 
HETATM   16  C   UNL     1      -9.826  14.891  65.870  1.00  0.00    -0.332 A  
HETATM   17  C   UNL     1     -11.034  14.910  65.192  1.00  0.00    -0.399 A  
HETATM   18  C   UNL     1      -8.856  16.015  66.000  1.00  0.00    -0.314 C  
HETATM   19  C   UNL     1     -11.647  16.005  64.472  1.00  0.00    -0.205 C  
HETATM   20  S   UNL     1     -11.780  13.373  65.310  1.00  0.00    -0.340 SA 
HETATM   21  O   UNL     1     -11.181  17.130  64.359  1.00  0.00    -1.143 OA 
HETATM   22  O   UNL     1     -12.839  15.673  63.906  1.00  0.00    -0.619 OA 
ENDBRANCH  10  14
ENDBRANCH   5   6
ENDBRANCH   4   5
TORSDOF 3
ENDMDL
MODEL       27
REMARK 921   NORMALIZED FREE ENERGY PREDICTED BY IDOCK:   -5.82 KCAL/MOL
REMARK 922        TOTAL FREE ENERGY PREDICTED BY IDOCK:   -7.53 KCAL/MOL
REMARK 923 INTER-LIGAND FREE ENERGY PREDICTED BY IDOCK:   -7.02 KCAL/MOL
REMARK 924 INTRA-LIGAND FREE ENERGY PREDICTED BY IDOCK:   -0.51 KCAL/MOL
REMARK 927      BINDING AFFINITY PREDICTED BY RF-SCORE:    0.00 PKD
ROOT
HETATM    1  C   UNL     1     -10.837  15.433  65.079  1.00  0.00    -0.462 C  
HETATM    2  C   UNL     1     -11.538  14.086  65.244  1.00  0.00    -0.339 C  
HETATM    3  C   UNL     1     -11.073  13.107  64.164  1.00  0.00    -0.426 C  
HETATM    4  C   UNL     1     -11.294  13.526  66.653  1.00  0.00    -0.322 C  
ENDROOT
BRANCH   4   5
HETATM    5  O   UNL     1     -11.934  12.253  66.760  1.00  0.00    -0.586 OA 
BRANCH   5   6
HETATM    6  C   UNL     1     -11.593  11.485  67.840  1.00  0.00    -0.282 A  
HETATM    7  C   UNL     1     -10.778  10.373  67.595  1.00  0.00    -0.335 A  
HETATM    8  C   UNL     1     -10.422   9.516  68.649  1.00  0.00    -0.237 A  
HETATM    9  C   UNL     1     -10.272  10.093  66.280  1.00  0.00    -0.219 C  
HETATM   10  C   UNL     1     -10.877   9.744  69.958  1.00  0.00    -0.319 A  
HETATM   11  N   UNL     1      -9.825   9.829  65.241  1.00  0.00    -0.313 NA 
HETATM   12  C   UNL     1     -12.058  11.718  69.137  1.00  0.00    -0.290 A  
HETATM   13  C   UNL     1     -11.704  10.854  70.182  1.00  0.00    -0.433 A  
BRANCH  10  14
HETATM   14  C   UNL     1     -10.531   8.851  71.079  1.00  0.00    -0.248 A  
HETATM   15  N   UNL     1      -9.500   9.014  71.886  1.00  0.00    -0.344 NA 
HETATM   16  C   UNL     1      -9.460   8.006  72.845  1.00  0.00    -0.277 A  
HETATM   17  C   UNL     1     -10.457   7.052  72.726  1.00  0.00    -0.238 A  
HETATM   18  C   UNL     1      -8.383   8.049  73.875  1.00  0.00    -0.319 C  
HETATM   19  C   UNL     1     -10.686   5.880  73.541  1.00  0.00    -0.259 C  
HETATM   20  S   UNL     1     -11.467   7.446  71.401  1.00  0.00    -0.273 SA 
HETATM   21  O   UNL     1     -10.000   5.529  74.490  1.00  0.00    -0.203 OA 
HETATM   22  O   UNL     1     -11.774   5.161  73.152  1.00  0.00    -0.298 OA 
ENDBRANCH  10  14
ENDBRANCH   5   6
ENDBRANCH   4   5
TORSDOF 3
ENDMDL
MODEL       28
REMARK 921   NORMALIZED FREE ENERGY PREDICTED BY IDOCK:   -5.81 KCAL/MOL
REMARK 922        TOTAL FREE ENERGY PREDICTED BY IDOCK:   -7.51 KCAL/MOL
REMARK 923 INTER-LIGAND FREE ENERGY PREDICTED BY IDOCK:   -6.83 KCAL/MOL
REMARK 924 INTRA-LIGAND FREE ENERGY PREDICTED BY IDOCK:   -0.68 KCAL/MOL
REMARK 927      BINDING AFFINITY PREDICTED BY RF-SCORE:    0.00 PKD
ROOT
HETATM    1  C   UNL     1      -8.774   7.882  73.921  1.00  0.00    -0.332 C  
HETATM    2  C   UNL     1      -9.434   7.696  72.556  1.00  0.00    -0.222 C  
HETATM    3  C   UNL     1      -9.437   6.217  72.162  1.00  0.00    -0.155 C  
HETATM    4  C   UNL     1     -10.856   8.277  72.567  1.00  0.00    -0.351 C  
ENDROOT
BRANCH   4   5
HETATM    5  O   UNL     1     -11.455   8.054  71.289  1.00  0.00    -0.259 OA 
BRANCH   5   6
HETATM    6  C   UNL     1     -11.481   9.119  70.430  1.00  0.00    -0.194 A  
HETATM    7  C   UNL     1     -10.878   8.940  69.179  1.00  0.00    -0.091 A  
HETATM    8  C   UNL     1     -10.830  10.003  68.263  1.00  0.00    -0.286 A  
HETATM    9  C   UNL     1     -10.318   7.674  68.794  1.00  0.00    -0.204 C  
HETATM   10  C   UNL     1     -11.371  11.260  68.577  1.00  0.00    -0.341 A  
HETATM   11  N   UNL     1      -9.864   6.670  68.428  1.00  0.00    -0.136 NA 
HETATM   12  C   UNL     1     -12.015  10.368  70.757  1.00  0.00    -0.462 A  
HETATM   13  C   UNL     1     -11.958  11.426  69.840  1.00  0.00    -0.434 A  
BRANCH  10  14
HETATM   14  C   UNL     1     -11.320  12.396  67.639  1.00  0.00    -0.312 A  
HETATM   15  N   UNL     1     -12.024  12.493  66.528  1.00  0.00    -0.576 NA 
HETATM   16  C   UNL     1     -11.755  13.692  65.875  1.00  0.00    -0.354 A  
HETATM   17  C   UNL     1     -10.800  14.486  66.491  1.00  0.00    -0.314 A  
HETATM   18  C   UNL     1     -12.493  13.997  64.617  1.00  0.00    -0.366 C  
HETATM   19  C   UNL     1     -10.285  15.769  66.068  1.00  0.00    -0.333 C  
HETATM   20  S   UNL     1     -10.257  13.717  67.921  1.00  0.00    -0.251 SA 
HETATM   21  O   UNL     1     -10.615  16.368  65.054  1.00  0.00    -0.651 OA 
HETATM   22  O   UNL     1      -9.359  16.283  66.923  1.00  0.00    -0.211 OA 
ENDBRANCH  10  14
ENDBRANCH   5   6
ENDBRANCH   4   5
TORSDOF 3
ENDMDL
MODEL       29
REMARK 921   NORMALIZED FREE ENERGY PREDICTED BY IDOCK:   -5.77 KCAL/MOL
REMARK 922        TOTAL FREE ENERGY PREDICTED BY IDOCK:   -7.47 KCAL/MOL
REMARK 923 INTER-LIGAND FREE ENERGY PREDICTED BY IDOCK:   -7.06 KCAL/MOL
REMARK 924 INTRA-LIGAND FREE ENERGY PREDICTED BY IDOCK:   -0.42 KCAL/MOL
REMARK 927      BINDING AFFINITY PREDICTED BY RF-SCORE:    0.00 PKD
ROOT
HETATM    1  C   UNL     1      -8.230  19.417  67.248  1.00  0.00    -0.311 C  
HETATM    2  C   UNL     1      -9.460  18.540  67.023  1.00  0.00    -0.292 C  
HETATM    3  C   UNL     1     -10.612  19.374  66.458  1.00  0.00    -0.554 C  
HETATM    4  C   UNL     1      -9.115  17.361  66.101  1.00  0.00    -0.145 C  
ENDROOT
BRANCH   4   5
HETATM    5  O   UNL     1     -10.296  16.585  65.885  1.00  0.00    -0.336 OA 
BRANCH   5   6
HETATM    6  C   UNL     1     -10.435  15.458  66.647  1.00  0.00    -0.293 A  
HETATM    7  C   UNL     1     -11.295  14.465  66.159  1.00  0.00    -0.350 A  
HETATM    8  C   UNL     1     -11.519  13.299  66.908  1.00  0.00    -0.376 A  
HETATM    9  C   UNL     1     -11.946  14.601  64.886  1.00  0.00    -0.400 C  
HETATM   10  C   UNL     1     -10.902  13.104  68.154  1.00  0.00    -0.271 A  
HETATM   11  N   UNL     1     -12.486  14.655  63.859  1.00  0.00    -0.792 NA 
HETATM   12  C   UNL     1      -9.822  15.278  67.889  1.00  0.00    -0.216 A  
HETATM   13  C   UNL     1     -10.056  14.114  68.634  1.00  0.00    -0.229 A  
BRANCH  10  14
HETATM   14  C   UNL     1     -11.133  11.896  68.967  1.00  0.00    -0.246 A  
HETATM   15  N   UNL     1     -10.538  10.734  68.781  1.00  0.00    -0.187 NA 
HETATM   16  C   UNL     1     -10.967   9.803  69.723  1.00  0.00    -0.256 A  
HETATM   17  C   UNL     1     -11.930  10.270  70.603  1.00  0.00    -0.342 A  
HETATM   18  C   UNL     1     -10.369   8.437  69.696  1.00  0.00    -0.218 C  
HETATM   19  C   UNL     1     -12.590   9.561  71.677  1.00  0.00    -0.388 C  
HETATM   20  S   UNL     1     -12.279  11.908  70.248  1.00  0.00    -0.222 SA 
HETATM   21  O   UNL     1     -12.402   8.391  71.977  1.00  0.00    -0.320 OA 
HETATM   22  O   UNL     1     -13.480  10.332  72.359  1.00  0.00    -0.310 OA 
ENDBRANCH  10  14
ENDBRANCH   5   6
ENDBRANCH   4   5
TORSDOF 3
ENDMDL
MODEL       30
REMARK 921   NORMALIZED FREE ENERGY PREDICTED BY IDOCK:   -5.77 KCAL/MOL
REMARK 922        TOTAL FREE ENERGY PREDICTED BY IDOCK:   -7.47 KCAL/MOL
REMARK 923 INTER-LIGAND FREE ENERGY PREDICTED BY IDOCK:   -6.92 KCAL/MOL
REMARK 924 INTRA-LIGAND FREE ENERGY PREDICTED BY IDOCK:   -0.55 KCAL/MOL
REMARK 927      BINDING AFFINITY PREDICTED BY RF-SCORE:    0.00 PKD
ROOT
HETATM    1  C   UNL     1      -7.888  19.470  68.674  1.00  0.00    -0.383 C  
HETATM    2  C   UNL     1      -8.756  18.597  67.770  1.00  0.00    -0.298 C  
HETATM    3  C   UNL     1      -9.951  19.397  67.245  1.00  0.00    -0.470 C  
HETATM    4  C   UNL     1      -7.917  18.019  66.620  1.00  0.00    -0.251 C  
ENDROOT
BRANCH   4   5
HETATM    5  O   UNL     1      -8.768  17.239  65.776  1.00  0.00    -0.531 OA 
BRANCH   5   6
HETATM    6  C   UNL     1      -8.942  15.929  66.127  1.00  0.00    -0.341 A  
HETATM    7  C   UNL     1     -10.080  15.284  65.627  1.00  0.00    -0.401 A  
HETATM    8  C   UNL     1     -10.345  13.951  65.978  1.00  0.00    -0.310 A  
HETATM    9  C   UNL     1     -10.986  15.954  64.735  1.00  0.00    -0.375 C  
HETATM   10  C   UNL     1      -9.491  13.241  66.837  1.00  0.00    -0.249 A  
HETATM   11  N   UNL     1     -11.741  16.443  64.001  1.00  0.00    -1.045 NA 
HETATM   12  C   UNL     1      -8.088  15.234  66.988  1.00  0.00    -0.253 A  
HETATM   13  C   UNL     1      -8.363  13.906  67.340  1.00  0.00    -0.208 A  
BRANCH  10  14
HETATM   14  C   UNL     1      -9.755  11.846  67.234  1.00  0.00    -0.184 A  
HETATM   15  N   UNL     1      -9.544  10.790  66.474  1.00  0.00    -0.179 NA 
HETATM   16  C   UNL     1      -9.884   9.619  67.146  1.00  0.00    -0.186 A  
HETATM   17  C   UNL     1     -10.398   9.811  68.419  1.00  0.00    -0.201 A  
HETATM   18  C   UNL     1      -9.672   8.316  66.456  1.00  0.00    -0.323 C  
HETATM   19  C   UNL     1     -10.859   8.819  69.365  1.00  0.00    -0.110 C  
HETATM   20  S   UNL     1     -10.428  11.486  68.775  1.00  0.00    -0.184 SA 
HETATM   21  O   UNL     1     -10.880   7.612  69.174  1.00  0.00    -0.180 OA 
HETATM   22  O   UNL     1     -11.289   9.357  70.538  1.00  0.00    -0.256 OA 
ENDBRANCH  10  14
ENDBRANCH   5   6
ENDBRANCH   4   5
TORSDOF 3
ENDMDL
MODEL       31
REMARK 921   NORMALIZED FREE ENERGY PREDICTED BY IDOCK:   -5.77 KCAL/MOL
REMARK 922        TOTAL FREE ENERGY PREDICTED BY IDOCK:   -7.47 KCAL/MOL
REMARK 923 INTER-LIGAND FREE ENERGY PREDICTED BY IDOCK:   -6.96 KCAL/MOL
REMARK 924 INTRA-LIGAND FREE ENERGY PREDICTED BY IDOCK:   -0.51 KCAL/MOL
REMARK 927      BINDING AFFINITY PREDICTED BY RF-SCORE:    0.00 PKD
ROOT
HETATM    1  C   UNL     1     -10.575  15.764  66.633  1.00  0.00    -0.307 C  
HETATM    2  C   UNL     1     -10.810  15.235  68.046  1.00  0.00    -0.288 C  
HETATM    3  C   UNL     1     -11.118  16.390  69.003  1.00  0.00    -0.315 C  
HETATM    4  C   UNL     1     -11.936  14.190  68.046  1.00  0.00    -0.337 C  
ENDROOT
BRANCH   4   5
HETATM    5  O   UNL     1     -12.152  13.745  69.387  1.00  0.00    -0.326 OA 
BRANCH   5   6
HETATM    6  C   UNL     1     -11.916  12.422  69.639  1.00  0.00    -0.274 A  
HETATM    7  C   UNL     1     -12.388  11.913  70.855  1.00  0.00    -0.400 A  
HETATM    8  C   UNL     1     -12.146  10.573  71.199  1.00  0.00    -0.473 A  
HETATM    9  C   UNL     1     -13.142  12.732  71.764  1.00  0.00    -0.356 C  
HETATM   10  C   UNL     1     -11.426   9.722  70.346  1.00  0.00    -0.347 A  
HETATM   11  N   UNL     1     -13.767  13.345  72.527  1.00  0.00    -0.698 NA 
HETATM   12  C   UNL     1     -11.191  11.586  68.786  1.00  0.00    -0.309 A  
HETATM   13  C   UNL     1     -10.948  10.251  69.139  1.00  0.00    -0.280 A  
BRANCH  10  14
HETATM   14  C   UNL     1     -11.145   8.316  70.690  1.00  0.00    -0.253 A  
HETATM   15  N   UNL     1     -10.802   7.379  69.828  1.00  0.00    -0.247 NA 
HETATM   16  C   UNL     1     -10.597   6.163  70.473  1.00  0.00    -0.253 A  
HETATM   17  C   UNL     1     -10.832   6.186  71.839  1.00  0.00    -0.249 A  
HETATM   18  C   UNL     1     -10.160   4.992  69.661  1.00  0.00    -0.321 C  
HETATM   19  C   UNL     1     -10.730   5.101  72.790  1.00  0.00    -0.241 C  
HETATM   20  S   UNL     1     -11.294   7.765  72.312  1.00  0.00    -0.346 SA 
HETATM   21  O   UNL     1     -10.421   3.949  72.522  1.00  0.00    -0.167 OA 
HETATM   22  O   UNL     1     -11.019   5.477  74.065  1.00  0.00    -0.170 OA 
ENDBRANCH  10  14
ENDBRANCH   5   6
ENDBRANCH   4   5
TORSDOF 3
ENDMDL
MODEL       32
REMARK 921   NORMALIZED FREE ENERGY PREDICTED BY IDOCK:   -5.74 KCAL/MOL
REMARK 922        TOTAL FREE ENERGY PREDICTED BY IDOCK:   -7.44 KCAL/MOL
REMARK 923 INTER-LIGAND FREE ENERGY PREDICTED BY IDOCK:   -6.73 KCAL/MOL
REMARK 924 INTRA-LIGAND FREE ENERGY PREDICTED BY IDOCK:   -0.71 KCAL/MOL
REMARK 927      BINDING AFFINITY PREDICTED BY RF-SCORE:    0.00 PKD
ROOT
HETATM    1  C   UNL     1      -8.934  16.382  66.279  1.00  0.00    -0.368 C  
HETATM    2  C   UNL     1      -9.993  15.798  67.211  1.00  0.00    -0.238 C  
HETATM    3  C   UNL     1     -10.657  16.910  68.026  1.00  0.00    -0.367 C  
HETATM    4  C   UNL     1     -11.028  14.996  66.408  1.00  0.00    -0.336 C  
ENDROOT
BRANCH   4   5
HETATM    5  O   UNL     1     -12.021  14.495  67.306  1.00  0.00    -0.405 OA 
BRANCH   5   6
HETATM    6  C   UNL     1     -11.822  13.234  67.797  1.00  0.00    -0.353 A  
HETATM    7  C   UNL     1     -11.869  13.081  69.188  1.00  0.00    -0.360 A  
HETATM    8  C   UNL     1     -11.633  11.822  69.766  1.00  0.00    -0.372 A  
HETATM    9  C   UNL     1     -12.176  14.187  70.052  1.00  0.00    -0.357 C  
HETATM   10  C   UNL     1     -11.340  10.701  68.973  1.00  0.00    -0.340 A  
HETATM   11  N   UNL     1     -12.433  15.044  70.793  1.00  0.00    -0.325 NA 
HETATM   12  C   UNL     1     -11.523  12.127  66.999  1.00  0.00    -0.415 A  
HETATM   13  C   UNL     1     -11.283  10.876  67.583  1.00  0.00    -0.379 A  
BRANCH  10  14
HETATM   14  C   UNL     1     -11.073   9.373  69.555  1.00  0.00    -0.112 A  
HETATM   15  N   UNL     1     -10.785   8.288  68.864  1.00  0.00    -0.127 NA 
HETATM   16  C   UNL     1     -10.578   7.203  69.710  1.00  0.00    -0.234 A  
HETATM   17  C   UNL     1     -10.757   7.476  71.057  1.00  0.00    -0.231 A  
HETATM   18  C   UNL     1     -10.198   5.893  69.107  1.00  0.00    -0.275 C  
HETATM   19  C   UNL     1     -10.637   6.577  72.184  1.00  0.00    -0.214 C  
HETATM   20  S   UNL     1     -11.167   9.127  71.254  1.00  0.00    -0.368 SA 
HETATM   21  O   UNL     1     -10.363   5.388  72.117  1.00  0.00    -0.199 OA 
HETATM   22  O   UNL     1     -10.866   7.184  73.380  1.00  0.00    -0.351 OA 
ENDBRANCH  10  14
ENDBRANCH   5   6
ENDBRANCH   4   5
TORSDOF 3
ENDMDL
MODEL       33
REMARK 921   NORMALIZED FREE ENERGY PREDICTED BY IDOCK:   -5.74 KCAL/MOL
REMARK 922        TOTAL FREE ENERGY PREDICTED BY IDOCK:   -7.43 KCAL/MOL
REMARK 923 INTER-LIGAND FREE ENERGY PREDICTED BY IDOCK:   -6.86 KCAL/MOL
REMARK 924 INTRA-LIGAND FREE ENERGY PREDICTED BY IDOCK:   -0.57 KCAL/MOL
REMARK 927      BINDING AFFINITY PREDICTED BY RF-SCORE:    0.00 PKD
ROOT
HETATM    1  C   UNL     1     -10.049   8.207  68.193  1.00  0.00    -0.237 C  
HETATM    2  C   UNL     1     -10.900   9.382  68.671  1.00  0.00    -0.149 C  
HETATM    3  C   UNL     1     -10.230  10.076  69.859  1.00  0.00    -0.304 C  
HETATM    4  C   UNL     1     -11.152  10.363  67.516  1.00  0.00    -0.267 C  
ENDROOT
BRANCH   4   5
HETATM    5  O   UNL     1     -11.919  11.465  68.008  1.00  0.00    -0.613 OA 
BRANCH   5   6
HETATM    6  C   UNL     1     -11.390  12.712  67.817  1.00  0.00    -0.297 A  
HETATM    7  C   UNL     1     -11.541  13.631  68.863  1.00  0.00    -0.362 A  
HETATM    8  C   UNL     1     -11.060  14.943  68.722  1.00  0.00    -0.274 A  
HETATM    9  C   UNL     1     -12.165  13.257  70.102  1.00  0.00    -0.306 C  
HETATM   10  C   UNL     1     -10.431  15.364  67.539  1.00  0.00    -0.275 A  
HETATM   11  N   UNL     1     -12.648  13.003  71.127  1.00  0.00    -0.353 NA 
HETATM   12  C   UNL     1     -10.773  13.122  66.633  1.00  0.00    -0.286 A  
HETATM   13  C   UNL     1     -10.301  14.435  66.497  1.00  0.00    -0.281 A  
BRANCH  10  14
HETATM   14  C   UNL     1      -9.931  16.739  67.360  1.00  0.00    -0.267 A  
HETATM   15  N   UNL     1     -10.475  17.646  66.572  1.00  0.00    -0.318 NA 
HETATM   16  C   UNL     1      -9.770  18.845  66.637  1.00  0.00    -0.347 A  
HETATM   17  C   UNL     1      -8.655  18.817  67.458  1.00  0.00    -0.274 A  
HETATM   18  C   UNL     1     -10.266  20.004  65.842  1.00  0.00    -0.527 C  
HETATM   19  C   UNL     1      -7.708  19.876  67.730  1.00  0.00    -0.292 C  
HETATM   20  S   UNL     1      -8.510  17.267  68.172  1.00  0.00    -0.245 SA 
HETATM   21  O   UNL     1      -7.740  20.998  67.246  1.00  0.00    -0.313 OA 
HETATM   22  O   UNL     1      -6.731  19.511  68.603  1.00  0.00    -0.271 OA 
ENDBRANCH  10  14
ENDBRANCH   5   6
ENDBRANCH   4   5
TORSDOF 3
ENDMDL
MODEL       34
REMARK 921   NORMALIZED FREE ENERGY PREDICTED BY IDOCK:   -5.70 KCAL/MOL
REMARK 922        TOTAL FREE ENERGY PREDICTED BY IDOCK:   -7.39 KCAL/MOL
REMARK 923 INTER-LIGAND FREE ENERGY PREDICTED BY IDOCK:   -7.00 KCAL/MOL
REMARK 924 INTRA-LIGAND FREE ENERGY PREDICTED BY IDOCK:   -0.39 KCAL/MOL
REMARK 927      BINDING AFFINITY PREDICTED BY RF-SCORE:    0.00 PKD
ROOT
HETATM    1  C   UNL     1     -12.246  13.430  63.469  1.00  0.00    -0.468 C  
HETATM    2  C   UNL     1     -11.550  13.514  64.826  1.00  0.00    -0.372 C  
HETATM    3  C   UNL     1     -10.585  14.702  64.857  1.00  0.00    -0.446 C  
HETATM    4  C   UNL     1     -12.587  13.604  65.955  1.00  0.00    -0.425 C  
ENDROOT
BRANCH   4   5
HETATM    5  O   UNL     1     -11.901  13.717  67.203  1.00  0.00    -0.357 OA 
BRANCH   5   6
HETATM    6  C   UNL     1     -11.718  12.559  67.908  1.00  0.00    -0.359 A  
HETATM    7  C   UNL     1     -11.894  12.627  69.296  1.00  0.00    -0.358 A  
HETATM    8  C   UNL     1     -11.682  11.487  70.089  1.00  0.00    -0.395 A  
HETATM    9  C   UNL     1     -12.311  13.843  69.937  1.00  0.00    -0.300 C  
HETATM   10  C   UNL     1     -11.284  10.268  69.518  1.00  0.00    -0.314 A  
HETATM   11  N   UNL     1     -12.660  14.795  70.503  1.00  0.00    -0.350 NA 
HETATM   12  C   UNL     1     -11.315  11.353  67.330  1.00  0.00    -0.359 A  
HETATM   13  C   UNL     1     -11.099  10.221  68.129  1.00  0.00    -0.324 A  
BRANCH  10  14
HETATM   14  C   UNL     1     -11.040   9.061  70.329  1.00  0.00    -0.235 A  
HETATM   15  N   UNL     1     -10.961   9.037  71.645  1.00  0.00    -0.342 NA 
HETATM   16  C   UNL     1     -10.734   7.742  72.104  1.00  0.00    -0.248 A  
HETATM   17  C   UNL     1     -10.602   6.789  71.106  1.00  0.00    -0.224 A  
HETATM   18  C   UNL     1     -10.658   7.512  73.574  1.00  0.00    -0.347 C  
HETATM   19  C   UNL     1     -10.346   5.372  71.240  1.00  0.00    -0.228 C  
HETATM   20  S   UNL     1     -10.788   7.536  69.576  1.00  0.00    -0.120 SA 
HETATM   21  O   UNL     1     -10.188   4.776  72.296  1.00  0.00    -0.181 OA 
HETATM   22  O   UNL     1     -10.290   4.722  70.046  1.00  0.00    -0.249 OA 
ENDBRANCH  10  14
ENDBRANCH   5   6
ENDBRANCH   4   5
TORSDOF 3
ENDMDL
MODEL       35
REMARK 921   NORMALIZED FREE ENERGY PREDICTED BY IDOCK:   -5.70 KCAL/MOL
REMARK 922        TOTAL FREE ENERGY PREDICTED BY IDOCK:   -7.39 KCAL/MOL
REMARK 923 INTER-LIGAND FREE ENERGY PREDICTED BY IDOCK:   -6.84 KCAL/MOL
REMARK 924 INTRA-LIGAND FREE ENERGY PREDICTED BY IDOCK:   -0.54 KCAL/MOL
REMARK 927      BINDING AFFINITY PREDICTED BY RF-SCORE:    0.00 PKD
ROOT
HETATM    1  C   UNL     1      -9.164   7.520  66.803  1.00  0.00    -0.192 C  
HETATM    2  C   UNL     1     -10.263   8.579  66.865  1.00  0.00    -0.375 C  
HETATM    3  C   UNL     1     -10.516   9.001  68.314  1.00  0.00    -0.247 C  
HETATM    4  C   UNL     1      -9.895   9.784  65.985  1.00  0.00    -0.274 C  
ENDROOT
BRANCH   4   5
HETATM    5  O   UNL     1     -10.927  10.766  66.095  1.00  0.00    -0.115 OA 
BRANCH   5   6
HETATM    6  C   UNL     1     -10.522  12.061  66.276  1.00  0.00    -0.238 A  
HETATM    7  C   UNL     1     -11.098  13.027  65.442  1.00  0.00    -0.300 A  
HETATM    8  C   UNL     1     -10.701  14.370  65.543  1.00  0.00    -0.344 A  
HETATM    9  C   UNL     1     -12.114  12.681  64.488  1.00  0.00    -0.417 C  
HETATM   10  C   UNL     1      -9.721  14.772  66.465  1.00  0.00    -0.295 A  
HETATM   11  N   UNL     1     -12.948  12.457  63.710  1.00  0.00    -0.775 NA 
HETATM   12  C   UNL     1      -9.541  12.447  67.191  1.00  0.00    -0.206 A  
HETATM   13  C   UNL     1      -9.145  13.789  67.282  1.00  0.00    -0.232 A  
BRANCH  10  14
HETATM   14  C   UNL     1      -9.275  16.173  66.581  1.00  0.00    -0.246 A  
HETATM   15  N   UNL     1      -8.207  16.678  65.995  1.00  0.00    -0.408 NA 
HETATM   16  C   UNL     1      -8.071  18.030  66.296  1.00  0.00    -0.224 A  
HETATM   17  C   UNL     1      -9.034  18.532  67.156  1.00  0.00    -0.277 A  
HETATM   18  C   UNL     1      -6.939  18.783  65.685  1.00  0.00    -0.260 C  
HETATM   19  C   UNL     1      -9.168  19.875  67.675  1.00  0.00    -0.347 C  
HETATM   20  S   UNL     1     -10.134  17.286  67.569  1.00  0.00    -0.326 SA 
HETATM   21  O   UNL     1      -8.414  20.807  67.436  1.00  0.00    -0.300 OA 
HETATM   22  O   UNL     1     -10.246  20.029  68.491  1.00  0.00    -0.442 OA 
ENDBRANCH  10  14
ENDBRANCH   5   6
ENDBRANCH   4   5
TORSDOF 3
ENDMDL
MODEL       36
REMARK 921   NORMALIZED FREE ENERGY PREDICTED BY IDOCK:   -5.69 KCAL/MOL
REMARK 922        TOTAL FREE ENERGY PREDICTED BY IDOCK:   -7.38 KCAL/MOL
REMARK 923 INTER-LIGAND FREE ENERGY PREDICTED BY IDOCK:   -6.92 KCAL/MOL
REMARK 924 INTRA-LIGAND FREE ENERGY PREDICTED BY IDOCK:   -0.45 KCAL/MOL
REMARK 927      BINDING AFFINITY PREDICTED BY RF-SCORE:    0.00 PKD
ROOT
HETATM    1  C   UNL     1     -12.115  13.341  63.461  1.00  0.00    -0.550 C  
HETATM    2  C   UNL     1     -11.338  13.348  64.776  1.00  0.00    -0.356 C  
HETATM    3  C   UNL     1     -10.449  14.591  64.863  1.00  0.00    -0.435 C  
HETATM    4  C   UNL     1     -12.303  13.263  65.967  1.00  0.00    -0.386 C  
ENDROOT
BRANCH   4   5
HETATM    5  O   UNL     1     -11.546  13.307  67.178  1.00  0.00    -0.319 OA 
BRANCH   5   6
HETATM    6  C   UNL     1     -11.374  12.121  67.837  1.00  0.00    -0.300 A  
HETATM    7  C   UNL     1     -11.619  12.120  69.216  1.00  0.00    -0.377 A  
HETATM    8  C   UNL     1     -11.424  10.948  69.964  1.00  0.00    -0.411 A  
HETATM    9  C   UNL     1     -12.093  13.297  69.891  1.00  0.00    -0.308 C  
HETATM   10  C   UNL     1     -10.973   9.764  69.359  1.00  0.00    -0.241 A  
HETATM   11  N   UNL     1     -12.489  14.214  70.482  1.00  0.00    -0.345 NA 
HETATM   12  C   UNL     1     -10.918  10.951  67.225  1.00  0.00    -0.355 A  
HETATM   13  C   UNL     1     -10.719   9.787  67.980  1.00  0.00    -0.298 A  
BRANCH  10  14
HETATM   14  C   UNL     1     -10.745   8.525  70.124  1.00  0.00    -0.235 A  
HETATM   15  N   UNL     1     -10.600   7.325  69.597  1.00  0.00    -0.231 NA 
HETATM   16  C   UNL     1     -10.389   6.371  70.588  1.00  0.00    -0.198 A  
HETATM   17  C   UNL     1     -10.417   6.865  71.883  1.00  0.00    -0.201 A  
HETATM   18  C   UNL     1     -10.160   4.957  70.177  1.00  0.00    -0.332 C  
HETATM   19  C   UNL     1     -10.252   6.146  73.127  1.00  0.00    -0.199 C  
HETATM   20  S   UNL     1     -10.691   8.555  71.843  1.00  0.00    -0.350 SA 
HETATM   21  O   UNL     1     -10.069   4.942  73.232  1.00  0.00    -0.151 OA 
HETATM   22  O   UNL     1     -10.322   6.949  74.223  1.00  0.00    -0.346 OA 
ENDBRANCH  10  14
ENDBRANCH   5   6
ENDBRANCH   4   5
TORSDOF 3
ENDMDL
MODEL       37
REMARK 921   NORMALIZED FREE ENERGY PREDICTED BY IDOCK:   -5.68 KCAL/MOL
REMARK 922        TOTAL FREE ENERGY PREDICTED BY IDOCK:   -7.37 KCAL/MOL
REMARK 923 INTER-LIGAND FREE ENERGY PREDICTED BY IDOCK:   -7.08 KCAL/MOL
REMARK 924 INTRA-LIGAND FREE ENERGY PREDICTED BY IDOCK:   -0.29 KCAL/MOL
REMARK 927      BINDING AFFINITY PREDICTED BY RF-SCORE:    0.00 PKD
ROOT
HETATM    1  C   UNL     1     -10.685   7.543  72.817  1.00  0.00    -0.382 C  
HETATM    2  C   UNL     1     -11.512   8.105  71.663  1.00  0.00    -0.323 C  
HETATM    3  C   UNL     1     -12.758   7.246  71.434  1.00  0.00    -0.427 C  
HETATM    4  C   UNL     1     -11.882   9.571  71.934  1.00  0.00    -0.279 C  
ENDROOT
BRANCH   4   5
HETATM    5  O   UNL     1     -12.684  10.051  70.853  1.00  0.00    -0.329 OA 
BRANCH   5   6
HETATM    6  C   UNL     1     -12.157  11.066  70.103  1.00  0.00    -0.356 A  
HETATM    7  C   UNL     1     -12.392  12.373  70.551  1.00  0.00    -0.346 A  
HETATM    8  C   UNL     1     -11.917  13.466  69.810  1.00  0.00    -0.396 A  
HETATM    9  C   UNL     1     -13.099  12.626  71.776  1.00  0.00    -0.360 C  
HETATM   10  C   UNL     1     -11.210  13.281  68.611  1.00  0.00    -0.311 A  
HETATM   11  N   UNL     1     -13.650  12.886  72.764  1.00  0.00    -0.460 NA 
HETATM   12  C   UNL     1     -11.462  10.870  68.908  1.00  0.00    -0.369 A  
HETATM   13  C   UNL     1     -10.996  11.967  68.170  1.00  0.00    -0.273 A  
BRANCH  10  14
HETATM   14  C   UNL     1     -10.713  14.413  67.806  1.00  0.00    -0.248 A  
HETATM   15  N   UNL     1     -11.239  14.820  66.668  1.00  0.00    -0.341 NA 
HETATM   16  C   UNL     1     -10.544  15.917  66.167  1.00  0.00    -0.305 A  
HETATM   17  C   UNL     1      -9.455  16.309  66.927  1.00  0.00    -0.230 A  
HETATM   18  C   UNL     1     -11.022  16.544  64.902  1.00  0.00    -0.223 C  
HETATM   19  C   UNL     1      -8.524  17.389  66.681  1.00  0.00    -0.261 C  
HETATM   20  S   UNL     1      -9.322  15.294  68.300  1.00  0.00    -0.198 SA 
HETATM   21  O   UNL     1      -8.548  18.141  65.718  1.00  0.00    -0.472 OA 
HETATM   22  O   UNL     1      -7.572  17.507  67.646  1.00  0.00    -0.189 OA 
ENDBRANCH  10  14
ENDBRANCH   5   6
ENDBRANCH   4   5
TORSDOF 3
ENDMDL
MODEL       38
REMARK 921   NORMALIZED FREE ENERGY PREDICTED BY IDOCK:   -5.65 KCAL/MOL
REMARK 922        TOTAL FREE ENERGY PREDICTED BY IDOCK:   -7.32 KCAL/MOL
REMARK 923 INTER-LIGAND FREE ENERGY PREDICTED BY IDOCK:   -6.85 KCAL/MOL
REMARK 924 INTRA-LIGAND FREE ENERGY PREDICTED BY IDOCK:   -0.48 KCAL/MOL
REMARK 927      BINDING AFFINITY PREDICTED BY RF-SCORE:    0.00 PKD
ROOT
HETATM    1  C   UNL     1      -7.371   8.225  63.979  1.00  0.00    -0.103 C  
HETATM    2  C   UNL     1      -7.750   9.701  64.066  1.00  0.00    -0.128 C  
HETATM    3  C   UNL     1      -7.222  10.460  62.846  1.00  0.00    -0.102 C  
HETATM    4  C   UNL     1      -9.271   9.856  64.209  1.00  0.00    -0.265 C  
ENDROOT
BRANCH   4   5
HETATM    5  O   UNL     1      -9.591  11.248  64.252  1.00  0.00    -0.234 OA 
BRANCH   5   6
HETATM    6  C   UNL     1     -10.029  11.739  65.451  1.00  0.00    -0.253 A  
HETATM    7  C   UNL     1     -11.149  12.579  65.421  1.00  0.00    -0.337 A  
HETATM    8  C   UNL     1     -11.630  13.153  66.609  1.00  0.00    -0.403 A  
HETATM    9  C   UNL     1     -11.843  12.856  64.194  1.00  0.00    -0.414 C  
HETATM   10  C   UNL     1     -11.001  12.910  67.841  1.00  0.00    -0.266 A  
HETATM   11  N   UNL     1     -12.448  13.100  63.233  1.00  0.00    -0.709 NA 
HETATM   12  C   UNL     1      -9.391  11.497  66.670  1.00  0.00    -0.201 A  
HETATM   13  C   UNL     1      -9.872  12.079  67.850  1.00  0.00    -0.196 A  
BRANCH  10  14
HETATM   14  C   UNL     1     -11.476  13.513  69.100  1.00  0.00    -0.295 A  
HETATM   15  N   UNL     1     -11.144  14.711  69.539  1.00  0.00    -0.262 NA 
HETATM   16  C   UNL     1     -11.769  14.986  70.751  1.00  0.00    -0.320 A  
HETATM   17  C   UNL     1     -12.552  13.954  71.246  1.00  0.00    -0.371 A  
HETATM   18  C   UNL     1     -11.545  16.318  71.381  1.00  0.00    -0.424 C  
HETATM   19  C   UNL     1     -13.314  13.909  72.474  1.00  0.00    -0.554 C  
HETATM   20  S   UNL     1     -12.512  12.635  70.155  1.00  0.00     0.057 SA 
HETATM   21  O   UNL     1     -13.377  14.805  73.304  1.00  0.00    -0.564 OA 
HETATM   22  O   UNL     1     -13.987  12.739  72.645  1.00  0.00    -0.503 OA 
ENDBRANCH  10  14
ENDBRANCH   5   6
ENDBRANCH   4   5
TORSDOF 3
ENDMDL
MODEL       39
REMARK 921   NORMALIZED FREE ENERGY PREDICTED BY IDOCK:   -5.61 KCAL/MOL
REMARK 922        TOTAL FREE ENERGY PREDICTED BY IDOCK:   -7.28 KCAL/MOL
REMARK 923 INTER-LIGAND FREE ENERGY PREDICTED BY IDOCK:   -6.78 KCAL/MOL
REMARK 924 INTRA-LIGAND FREE ENERGY PREDICTED BY IDOCK:   -0.50 KCAL/MOL
REMARK 927      BINDING AFFINITY PREDICTED BY RF-SCORE:    0.00 PKD
ROOT
HETATM    1  C   UNL     1     -10.755   5.111  74.077  1.00  0.00    -0.320 C  
HETATM    2  C   UNL     1     -10.147   6.495  73.856  1.00  0.00    -0.329 C  
HETATM    3  C   UNL     1      -8.687   6.371  73.414  1.00  0.00    -0.129 C  
HETATM    4  C   UNL     1     -10.978   7.287  72.835  1.00  0.00    -0.337 C  
ENDROOT
BRANCH   4   5
HETATM    5  O   UNL     1     -10.362   8.559  72.627  1.00  0.00    -0.297 OA 
BRANCH   5   6
HETATM    6  C   UNL     1     -10.608   9.170  71.428  1.00  0.00    -0.341 A  
HETATM    7  C   UNL     1      -9.505   9.395  70.594  1.00  0.00    -0.325 A  
HETATM    8  C   UNL     1      -9.676  10.055  69.366  1.00  0.00    -0.240 A  
HETATM    9  C   UNL     1      -8.190   8.946  70.957  1.00  0.00    -0.179 C  
HETATM   10  C   UNL     1     -10.939  10.507  68.952  1.00  0.00    -0.291 A  
HETATM   11  N   UNL     1      -7.110   8.591  71.195  1.00  0.00    -0.065 NA 
HETATM   12  C   UNL     1     -11.868   9.622  71.030  1.00  0.00    -0.428 A  
HETATM   13  C   UNL     1     -12.029  10.285  69.806  1.00  0.00    -0.176 A  
BRANCH  10  14
HETATM   14  C   UNL     1     -11.143  11.215  67.674  1.00  0.00    -0.287 A  
HETATM   15  N   UNL     1     -11.853  12.315  67.524  1.00  0.00    -0.519 NA 
HETATM   16  C   UNL     1     -11.838  12.736  66.197  1.00  0.00    -0.425 A  
HETATM   17  C   UNL     1     -11.135  11.910  65.335  1.00  0.00    -0.306 A  
HETATM   18  C   UNL     1     -12.556  13.993  65.842  1.00  0.00    -0.484 C  
HETATM   19  C   UNL     1     -10.942  12.049  63.909  1.00  0.00    -0.401 C  
HETATM   20  S   UNL     1     -10.470  10.601  66.216  1.00  0.00    -0.164 SA 
HETATM   21  O   UNL     1     -11.398  12.946  63.215  1.00  0.00    -0.392 OA 
HETATM   22  O   UNL     1     -10.179  11.059  63.372  1.00  0.00    -0.339 OA 
ENDBRANCH  10  14
ENDBRANCH   5   6
ENDBRANCH   4   5
TORSDOF 3
ENDMDL
MODEL       40
REMARK 921   NORMALIZED FREE ENERGY PREDICTED BY IDOCK:   -5.59 KCAL/MOL
REMARK 922        TOTAL FREE ENERGY PREDICTED BY IDOCK:   -7.26 KCAL/MOL
REMARK 923 INTER-LIGAND FREE ENERGY PREDICTED BY IDOCK:   -6.82 KCAL/MOL
REMARK 924 INTRA-LIGAND FREE ENERGY PREDICTED BY IDOCK:   -0.44 KCAL/MOL
REMARK 927      BINDING AFFINITY PREDICTED BY RF-SCORE:    0.00 PKD
ROOT
HETATM    1  C   UNL     1      -9.172  19.270  68.332  1.00  0.00    -0.409 C  
HETATM    2  C   UNL     1     -10.383  18.432  67.930  1.00  0.00    -0.425 C  
HETATM    3  C   UNL     1     -10.463  18.308  66.407  1.00  0.00    -0.387 C  
HETATM    4  C   UNL     1     -10.328  17.053  68.604  1.00  0.00    -0.351 C  
ENDROOT
BRANCH   4   5
HETATM    5  O   UNL     1     -11.455  16.286  68.178  1.00  0.00    -0.309 OA 
BRANCH   5   6
HETATM    6  C   UNL     1     -11.351  14.927  68.296  1.00  0.00    -0.310 A  
HETATM    7  C   UNL     1     -11.952  14.341  69.417  1.00  0.00    -0.381 A  
HETATM    8  C   UNL     1     -11.850  12.956  69.626  1.00  0.00    -0.387 A  
HETATM    9  C   UNL     1     -12.698  15.126  70.362  1.00  0.00    -0.333 C  
HETATM   10  C   UNL     1     -11.145  12.135  68.732  1.00  0.00    -0.297 A  
HETATM   11  N   UNL     1     -13.322  15.711  71.146  1.00  0.00    -0.565 NA 
HETATM   12  C   UNL     1     -10.640  14.121  67.404  1.00  0.00    -0.279 A  
HETATM   13  C   UNL     1     -10.537  12.741  67.623  1.00  0.00    -0.230 A  
BRANCH  10  14
HETATM   14  C   UNL     1     -11.010  10.681  68.936  1.00  0.00    -0.249 A  
HETATM   15  N   UNL     1     -10.655   9.816  68.007  1.00  0.00    -0.230 NA 
HETATM   16  C   UNL     1     -10.611   8.524  68.524  1.00  0.00    -0.111 A  
HETATM   17  C   UNL     1     -10.981   8.421  69.856  1.00  0.00    -0.166 A  
HETATM   18  C   UNL     1     -10.186   7.413  67.626  1.00  0.00    -0.261 C  
HETATM   19  C   UNL     1     -11.059   7.235  70.681  1.00  0.00    -0.264 C  
HETATM   20  S   UNL     1     -11.365   9.975  70.463  1.00  0.00    -0.355 SA 
HETATM   21  O   UNL     1     -10.815   6.096  70.312  1.00  0.00    -0.264 OA 
HETATM   22  O   UNL     1     -11.446   7.497  71.959  1.00  0.00    -0.260 OA 
ENDBRANCH  10  14
ENDBRANCH   5   6
ENDBRANCH   4   5
TORSDOF 3
ENDMDL
MODEL       41
REMARK 921   NORMALIZED FREE ENERGY PREDICTED BY IDOCK:   -5.58 KCAL/MOL
REMARK 922        TOTAL FREE ENERGY PREDICTED BY IDOCK:   -7.24 KCAL/MOL
REMARK 923 INTER-LIGAND FREE ENERGY PREDICTED BY IDOCK:   -6.71 KCAL/MOL
REMARK 924 INTRA-LIGAND FREE ENERGY PREDICTED BY IDOCK:   -0.54 KCAL/MOL
REMARK 927      BINDING AFFINITY PREDICTED BY RF-SCORE:    0.00 PKD
ROOT
HETATM    1  C   UNL     1     -10.380  16.339  67.737  1.00  0.00    -0.287 C  
HETATM    2  C   UNL     1     -11.556  15.385  67.935  1.00  0.00    -0.267 C  
HETATM    3  C   UNL     1     -11.678  14.435  66.742  1.00  0.00    -0.415 C  
HETATM    4  C   UNL     1     -11.402  14.613  69.254  1.00  0.00    -0.286 C  
ENDROOT
BRANCH   4   5
HETATM    5  O   UNL     1     -12.499  13.706  69.389  1.00  0.00    -0.233 OA 
BRANCH   5   6
HETATM    6  C   UNL     1     -12.192  12.425  69.758  1.00  0.00    -0.131 A  
HETATM    7  C   UNL     1     -12.644  12.003  71.015  1.00  0.00    -0.370 A  
HETATM    8  C   UNL     1     -12.331  10.715  71.478  1.00  0.00    -0.414 A  
HETATM    9  C   UNL     1     -13.447  12.857  71.846  1.00  0.00    -0.387 C  
HETATM   10  C   UNL     1     -11.560   9.831  70.706  1.00  0.00    -0.417 A  
HETATM   11  N   UNL     1     -14.109  13.501  72.549  1.00  0.00    -0.758 NA 
HETATM   12  C   UNL     1     -11.418  11.557  68.985  1.00  0.00    -0.355 A  
HETATM   13  C   UNL     1     -11.105  10.275  69.457  1.00  0.00    -0.310 A  
BRANCH  10  14
HETATM   14  C   UNL     1     -11.205   8.479  71.176  1.00  0.00    -0.267 A  
HETATM   15  N   UNL     1     -11.032   8.137  72.437  1.00  0.00    -0.320 NA 
HETATM   16  C   UNL     1     -10.716   6.786  72.545  1.00  0.00    -0.230 A  
HETATM   17  C   UNL     1     -10.611   6.118  71.335  1.00  0.00    -0.243 A  
HETATM   18  C   UNL     1     -10.525   6.206  73.905  1.00  0.00    -0.287 C  
HETATM   19  C   UNL     1     -10.284   4.729  71.097  1.00  0.00    -0.158 C  
HETATM   20  S   UNL     1     -10.939   7.204  70.053  1.00  0.00    -0.253 SA 
HETATM   21  O   UNL     1     -10.025   3.903  71.960  1.00  0.00    -0.167 OA 
HETATM   22  O   UNL     1     -10.283   4.398  69.777  1.00  0.00    -0.151 OA 
ENDBRANCH  10  14
ENDBRANCH   5   6
ENDBRANCH   4   5
TORSDOF 3
ENDMDL
MODEL       42
REMARK 921   NORMALIZED FREE ENERGY PREDICTED BY IDOCK:   -5.57 KCAL/MOL
REMARK 922        TOTAL FREE ENERGY PREDICTED BY IDOCK:   -7.24 KCAL/MOL
REMARK 923 INTER-LIGAND FREE ENERGY PREDICTED BY IDOCK:   -6.68 KCAL/MOL
REMARK 924 INTRA-LIGAND FREE ENERGY PREDICTED BY IDOCK:   -0.55 KCAL/MOL
REMARK 927      BINDING AFFINITY PREDICTED BY RF-SCORE:    0.00 PKD
ROOT
HETATM    1  C   UNL     1      -9.010  18.533  67.508  1.00  0.00    -0.286 C  
HETATM    2  C   UNL     1     -10.323  17.758  67.422  1.00  0.00    -0.370 C  
HETATM    3  C   UNL     1     -10.406  16.995  66.098  1.00  0.00    -0.326 C  
HETATM    4  C   UNL     1     -10.467  16.814  68.625  1.00  0.00    -0.333 C  
ENDROOT
BRANCH   4   5
HETATM    5  O   UNL     1     -11.687  16.081  68.493  1.00  0.00    -0.375 OA 
BRANCH   5   6
HETATM    6  C   UNL     1     -11.624  14.738  68.743  1.00  0.00    -0.320 A  
HETATM    7  C   UNL     1     -12.314  14.269  69.868  1.00  0.00    -0.377 A  
HETATM    8  C   UNL     1     -12.260  12.908  70.209  1.00  0.00    -0.362 A  
HETATM    9  C   UNL     1     -13.103  15.152  70.682  1.00  0.00    -0.337 C  
HETATM   10  C   UNL     1     -11.515  11.995  69.446  1.00  0.00    -0.361 A  
HETATM   11  N   UNL     1     -13.765  15.819  71.364  1.00  0.00    -0.477 NA 
HETATM   12  C   UNL     1     -10.873  13.840  67.980  1.00  0.00    -0.263 A  
HETATM   13  C   UNL     1     -10.819  12.484  68.331  1.00  0.00    -0.266 A  
BRANCH  10  14
HETATM   14  C   UNL     1     -11.430  10.564  69.791  1.00  0.00    -0.294 A  
HETATM   15  N   UNL     1     -12.037   9.995  70.814  1.00  0.00    -0.309 NA 
HETATM   16  C   UNL     1     -11.762   8.631  70.856  1.00  0.00    -0.252 A  
HETATM   17  C   UNL     1     -10.899   8.184  69.868  1.00  0.00    -0.215 A  
HETATM   18  C   UNL     1     -12.399   7.810  71.924  1.00  0.00    -0.342 C  
HETATM   19  C   UNL     1     -10.403   6.844  69.643  1.00  0.00    -0.206 C  
HETATM   20  S   UNL     1     -10.451   9.497  68.865  1.00  0.00    -0.215 SA 
HETATM   21  O   UNL     1     -10.668   5.865  70.325  1.00  0.00    -0.263 OA 
HETATM   22  O   UNL     1      -9.578   6.752  68.565  1.00  0.00    -0.131 OA 
ENDBRANCH  10  14
ENDBRANCH   5   6
ENDBRANCH   4   5
TORSDOF 3
ENDMDL
MODEL       43
REMARK 921   NORMALIZED FREE ENERGY PREDICTED BY IDOCK:   -5.55 KCAL/MOL
REMARK 922        TOTAL FREE ENERGY PREDICTED BY IDOCK:   -7.21 KCAL/MOL
REMARK 923 INTER-LIGAND FREE ENERGY PREDICTED BY IDOCK:   -6.73 KCAL/MOL
REMARK 924 INTRA-LIGAND FREE ENERGY PREDICTED BY IDOCK:   -0.48 KCAL/MOL
REMARK 927      BINDING AFFINITY PREDICTED BY RF-SCORE:    0.00 PKD
ROOT
HETATM    1  C   UNL     1     -10.172  19.481  68.488  1.00  0.00    -0.517 C  
HETATM    2  C   UNL     1     -10.438  18.480  67.367  1.00  0.00    -0.455 C  
HETATM    3  C   UNL     1      -9.262  18.450  66.388  1.00  0.00    -0.280 C  
HETATM    4  C   UNL     1     -10.720  17.086  67.949  1.00  0.00    -0.348 C  
ENDROOT
BRANCH   4   5
HETATM    5  O   UNL     1     -10.928  16.170  66.872  1.00  0.00    -0.237 OA 
BRANCH   5   6
HETATM    6  C   UNL     1     -10.800  14.841  67.166  1.00  0.00    -0.311 A  
HETATM    7  C   UNL     1     -11.439  13.937  66.308  1.00  0.00    -0.347 A  
HETATM    8  C   UNL     1     -11.385  12.559  66.571  1.00  0.00    -0.387 A  
HETATM    9  C   UNL     1     -12.142  14.387  65.138  1.00  0.00    -0.395 C  
HETATM   10  C   UNL     1     -10.704  12.058  67.692  1.00  0.00    -0.252 A  
HETATM   11  N   UNL     1     -12.710  14.696  64.174  1.00  0.00    -0.718 NA 
HETATM   12  C   UNL     1     -10.126  14.354  68.289  1.00  0.00    -0.239 A  
HETATM   13  C   UNL     1     -10.081  12.978  68.548  1.00  0.00    -0.195 A  
BRANCH  10  14
HETATM   14  C   UNL     1     -10.645  10.617  67.999  1.00  0.00    -0.211 A  
HETATM   15  N   UNL     1     -10.289   9.676  67.148  1.00  0.00    -0.245 NA 
HETATM   16  C   UNL     1     -10.327   8.422  67.752  1.00  0.00    -0.235 A  
HETATM   17  C   UNL     1     -10.761   8.426  69.068  1.00  0.00    -0.080 A  
HETATM   18  C   UNL     1      -9.913   7.235  66.951  1.00  0.00    -0.302 C  
HETATM   19  C   UNL     1     -10.930   7.305  69.965  1.00  0.00    -0.253 C  
HETATM   20  S   UNL     1     -11.101  10.033  69.551  1.00  0.00    -0.220 SA 
HETATM   21  O   UNL     1     -10.722   6.133  69.685  1.00  0.00    -0.250 OA 
HETATM   22  O   UNL     1     -11.362   7.670  71.203  1.00  0.00    -0.257 OA 
ENDBRANCH  10  14
ENDBRANCH   5   6
ENDBRANCH   4   5
TORSDOF 3
ENDMDL
MODEL       44
REMARK 921   NORMALIZED FREE ENERGY PREDICTED BY IDOCK:   -5.52 KCAL/MOL
REMARK 922        TOTAL FREE ENERGY PREDICTED BY IDOCK:   -7.17 KCAL/MOL
REMARK 923 INTER-LIGAND FREE ENERGY PREDICTED BY IDOCK:   -6.56 KCAL/MOL
REMARK 924 INTRA-LIGAND FREE ENERGY PREDICTED BY IDOCK:   -0.61 KCAL/MOL
REMARK 927      BINDING AFFINITY PREDICTED BY RF-SCORE:    0.00 PKD
ROOT
HETATM    1  C   UNL     1      -7.418   9.393  64.532  1.00  0.00    -0.105 C  
HETATM    2  C   UNL     1      -8.531  10.438  64.477  1.00  0.00    -0.172 C  
HETATM    3  C   UNL     1      -9.314  10.314  63.167  1.00  0.00    -0.343 C  
HETATM    4  C   UNL     1      -9.453  10.302  65.697  1.00  0.00    -0.221 C  
ENDROOT
BRANCH   4   5
HETATM    5  O   UNL     1     -10.500  11.269  65.594  1.00  0.00    -0.253 OA 
BRANCH   5   6
HETATM    6  C   UNL     1     -10.163  12.567  65.862  1.00  0.00    -0.261 A  
HETATM    7  C   UNL     1     -10.774  13.556  65.080  1.00  0.00    -0.349 A  
HETATM    8  C   UNL     1     -10.444  14.907  65.271  1.00  0.00    -0.427 A  
HETATM    9  C   UNL     1     -11.758  13.221  64.088  1.00  0.00    -0.420 C  
HETATM   10  C   UNL     1      -9.498  15.297  66.233  1.00  0.00    -0.341 A  
HETATM   11  N   UNL     1     -12.568  13.006  63.285  1.00  0.00    -0.669 NA 
HETATM   12  C   UNL     1      -9.214  12.943  66.816  1.00  0.00    -0.230 A  
HETATM   13  C   UNL     1      -8.886  14.293  66.997  1.00  0.00    -0.243 A  
BRANCH  10  14
HETATM   14  C   UNL     1      -9.124  16.708  66.442  1.00  0.00    -0.292 A  
HETATM   15  N   UNL     1      -8.108  17.315  65.862  1.00  0.00    -0.536 NA 
HETATM   16  C   UNL     1      -8.032  18.646  66.263  1.00  0.00    -0.252 A  
HETATM   17  C   UNL     1      -8.987  19.026  67.193  1.00  0.00    -0.287 A  
HETATM   18  C   UNL     1      -6.967  19.506  65.675  1.00  0.00    -0.317 C  
HETATM   19  C   UNL     1      -9.172  20.316  67.820  1.00  0.00    -0.276 C  
HETATM   20  S   UNL     1     -10.002  17.692  67.544  1.00  0.00    -0.336 SA 
HETATM   21  O   UNL     1      -8.479  21.304  67.629  1.00  0.00     0.028 OA 
HETATM   22  O   UNL     1     -10.225  20.346  68.682  1.00  0.00    -0.257 OA 
ENDBRANCH  10  14
ENDBRANCH   5   6
ENDBRANCH   4   5
TORSDOF 3
ENDMDL
MODEL       45
REMARK 921   NORMALIZED FREE ENERGY PREDICTED BY IDOCK:   -5.51 KCAL/MOL
REMARK 922        TOTAL FREE ENERGY PREDICTED BY IDOCK:   -7.17 KCAL/MOL
REMARK 923 INTER-LIGAND FREE ENERGY PREDICTED BY IDOCK:   -6.69 KCAL/MOL
REMARK 924 INTRA-LIGAND FREE ENERGY PREDICTED BY IDOCK:   -0.48 KCAL/MOL
REMARK 927      BINDING AFFINITY PREDICTED BY RF-SCORE:    0.00 PKD
ROOT
HETATM    1  C   UNL     1     -10.397  18.118  66.531  1.00  0.00    -0.397 C  
HETATM    2  C   UNL     1      -9.876  16.804  65.955  1.00  0.00    -0.311 C  
HETATM    3  C   UNL     1      -8.424  16.573  66.383  1.00  0.00    -0.357 C  
HETATM    4  C   UNL     1     -10.779  15.637  66.382  1.00  0.00    -0.291 C  
ENDROOT
BRANCH   4   5
HETATM    5  O   UNL     1     -10.242  14.422  65.856  1.00  0.00    -0.296 OA 
BRANCH   5   6
HETATM    6  C   UNL     1     -10.323  13.318  66.660  1.00  0.00    -0.274 A  
HETATM    7  C   UNL     1     -11.369  12.423  66.404  1.00  0.00    -0.392 A  
HETATM    8  C   UNL     1     -11.539  11.289  67.215  1.00  0.00    -0.171 A  
HETATM    9  C   UNL     1     -12.273  12.625  65.306  1.00  0.00    -0.475 C  
HETATM   10  C   UNL     1     -10.680  11.032  68.296  1.00  0.00    -0.235 A  
HETATM   11  N   UNL     1     -13.022  12.733  64.425  1.00  0.00    -0.737 NA 
HETATM   12  C   UNL     1      -9.467  13.077  67.737  1.00  0.00    -0.209 A  
HETATM   13  C   UNL     1      -9.647  11.946  68.546  1.00  0.00    -0.160 A  
BRANCH  10  14
HETATM   14  C   UNL     1     -10.846   9.858  69.172  1.00  0.00    -0.221 A  
HETATM   15  N   UNL     1     -11.280   9.897  70.417  1.00  0.00    -0.289 NA 
HETATM   16  C   UNL     1     -11.332   8.618  70.963  1.00  0.00    -0.274 A  
HETATM   17  C   UNL     1     -10.890   7.610  70.121  1.00  0.00    -0.248 A  
HETATM   18  C   UNL     1     -11.840   8.460  72.355  1.00  0.00    -0.452 C  
HETATM   19  C   UNL     1     -10.800   6.191  70.383  1.00  0.00    -0.310 C  
HETATM   20  S   UNL     1     -10.426   8.286  68.618  1.00  0.00    -0.122 SA 
HETATM   21  O   UNL     1     -11.098   5.642  71.434  1.00  0.00    -0.239 OA 
HETATM   22  O   UNL     1     -10.333   5.479  69.322  1.00  0.00    -0.225 OA 
ENDBRANCH  10  14
ENDBRANCH   5   6
ENDBRANCH   4   5
TORSDOF 3
ENDMDL
MODEL       46
REMARK 921   NORMALIZED FREE ENERGY PREDICTED BY IDOCK:   -5.47 KCAL/MOL
REMARK 922        TOTAL FREE ENERGY PREDICTED BY IDOCK:   -7.12 KCAL/MOL
REMARK 923 INTER-LIGAND FREE ENERGY PREDICTED BY IDOCK:   -6.67 KCAL/MOL
REMARK 924 INTRA-LIGAND FREE ENERGY PREDICTED BY IDOCK:   -0.46 KCAL/MOL
REMARK 927      BINDING AFFINITY PREDICTED BY RF-SCORE:    0.00 PKD
ROOT
HETATM    1  C   UNL     1     -12.193  16.566  73.784  1.00  0.00    -0.480 C  
HETATM    2  C   UNL     1     -12.904  15.362  73.170  1.00  0.00    -0.606 C  
HETATM    3  C   UNL     1     -14.300  15.760  72.683  1.00  0.00    -0.189 C  
HETATM    4  C   UNL     1     -12.062  14.765  72.033  1.00  0.00    -0.325 C  
ENDROOT
BRANCH   4   5
HETATM    5  O   UNL     1     -12.773  13.666  71.460  1.00  0.00    -0.346 OA 
BRANCH   5   6
HETATM    6  C   UNL     1     -12.193  13.057  70.381  1.00  0.00    -0.310 A  
HETATM    7  C   UNL     1     -12.133  11.658  70.400  1.00  0.00    -0.462 A  
HETATM    8  C   UNL     1     -11.514  10.966  69.346  1.00  0.00    -0.373 A  
HETATM    9  C   UNL     1     -12.712  10.900  71.474  1.00  0.00    -0.428 C  
HETATM   10  C   UNL     1     -10.940  11.652  68.264  1.00  0.00    -0.273 A  
HETATM   11  N   UNL     1     -13.176  10.239  72.309  1.00  0.00    -0.342 NA 
HETATM   12  C   UNL     1     -11.619  13.750  69.313  1.00  0.00    -0.362 A  
HETATM   13  C   UNL     1     -10.997  13.053  68.268  1.00  0.00    -0.285 A  
BRANCH  10  14
HETATM   14  C   UNL     1     -10.271  10.951  67.152  1.00  0.00    -0.210 A  
HETATM   15  N   UNL     1      -9.375   9.994  67.291  1.00  0.00    -0.147 NA 
HETATM   16  C   UNL     1      -8.947   9.533  66.049  1.00  0.00    -0.163 A  
HETATM   17  C   UNL     1      -9.506  10.189  64.964  1.00  0.00    -0.271 A  
HETATM   18  C   UNL     1      -7.960   8.417  66.007  1.00  0.00    -0.101 C  
HETATM   19  C   UNL     1      -9.265   9.969  63.555  1.00  0.00    -0.277 C  
HETATM   20  S   UNL     1     -10.599  11.383  65.521  1.00  0.00    -0.253 SA 
HETATM   21  O   UNL     1      -8.490   9.148  63.087  1.00  0.00    -0.189 OA 
HETATM   22  O   UNL     1      -9.999  10.786  62.752  1.00  0.00    -0.274 OA 
ENDBRANCH  10  14
ENDBRANCH   5   6
ENDBRANCH   4   5
TORSDOF 3
ENDMDL
MODEL       47
REMARK 921   NORMALIZED FREE ENERGY PREDICTED BY IDOCK:   -5.46 KCAL/MOL
REMARK 922        TOTAL FREE ENERGY PREDICTED BY IDOCK:   -7.11 KCAL/MOL
REMARK 923 INTER-LIGAND FREE ENERGY PREDICTED BY IDOCK:   -6.53 KCAL/MOL
REMARK 924 INTRA-LIGAND FREE ENERGY PREDICTED BY IDOCK:   -0.58 KCAL/MOL
REMARK 927      BINDING AFFINITY PREDICTED BY RF-SCORE:    0.00 PKD
ROOT
HETATM    1  C   UNL     1     -10.775   5.330  73.954  1.00  0.00    -0.320 C  
HETATM    2  C   UNL     1      -9.840   6.418  73.430  1.00  0.00    -0.190 C  
HETATM    3  C   UNL     1      -9.018   5.891  72.252  1.00  0.00    -0.142 C  
HETATM    4  C   UNL     1     -10.640   7.670  73.041  1.00  0.00    -0.375 C  
ENDROOT
BRANCH   4   5
HETATM    5  O   UNL     1      -9.739   8.651  72.524  1.00  0.00    -0.276 OA 
BRANCH   5   6
HETATM    6  C   UNL     1     -10.040   9.171  71.295  1.00  0.00    -0.318 A  
HETATM    7  C   UNL     1      -8.974   9.357  70.407  1.00  0.00    -0.294 A  
HETATM    8  C   UNL     1      -9.202   9.926  69.143  1.00  0.00    -0.184 A  
HETATM    9  C   UNL     1      -7.637   8.958  70.750  1.00  0.00    -0.103 C  
HETATM   10  C   UNL     1     -10.489  10.325  68.746  1.00  0.00    -0.222 A  
HETATM   11  N   UNL     1      -6.542   8.641  70.972  1.00  0.00    -0.047 NA 
HETATM   12  C   UNL     1     -11.323   9.572  70.914  1.00  0.00    -0.410 A  
HETATM   13  C   UNL     1     -11.542  10.144  69.654  1.00  0.00    -0.216 A  
BRANCH  10  14
HETATM   14  C   UNL     1     -10.753  10.938  67.431  1.00  0.00    -0.257 A  
HETATM   15  N   UNL     1     -10.182  10.577  66.299  1.00  0.00    -0.237 NA 
HETATM   16  C   UNL     1     -10.655  11.344  65.239  1.00  0.00    -0.277 A  
HETATM   17  C   UNL     1     -11.567  12.325  65.596  1.00  0.00    -0.380 A  
HETATM   18  C   UNL     1     -10.152  11.049  63.867  1.00  0.00    -0.414 C  
HETATM   19  C   UNL     1     -12.230  13.292  64.749  1.00  0.00    -0.417 C  
HETATM   20  S   UNL     1     -11.844  12.258  67.284  1.00  0.00    -0.156 SA 
HETATM   21  O   UNL     1     -12.070  13.406  63.542  1.00  0.00    -0.549 OA 
HETATM   22  O   UNL     1     -13.083  14.104  65.429  1.00  0.00    -0.743 OA 
ENDBRANCH  10  14
ENDBRANCH   5   6
ENDBRANCH   4   5
TORSDOF 3
ENDMDL
MODEL       48
REMARK 921   NORMALIZED FREE ENERGY PREDICTED BY IDOCK:   -5.44 KCAL/MOL
REMARK 922        TOTAL FREE ENERGY PREDICTED BY IDOCK:   -7.09 KCAL/MOL
REMARK 923 INTER-LIGAND FREE ENERGY PREDICTED BY IDOCK:   -6.65 KCAL/MOL
REMARK 924 INTRA-LIGAND FREE ENERGY PREDICTED BY IDOCK:   -0.44 KCAL/MOL
REMARK 927      BINDING AFFINITY PREDICTED BY RF-SCORE:    0.00 PKD
ROOT
HETATM    1  C   UNL     1     -12.188  16.044  73.367  1.00  0.00    -0.630 C  
HETATM    2  C   UNL     1     -12.852  15.115  72.353  1.00  0.00    -0.443 C  
HETATM    3  C   UNL     1     -14.323  15.494  72.165  1.00  0.00    -0.598 C  
HETATM    4  C   UNL     1     -12.089  15.146  71.020  1.00  0.00    -0.333 C  
ENDROOT
BRANCH   4   5
HETATM    5  O   UNL     1     -12.757  14.295  70.087  1.00  0.00    -0.331 OA 
BRANCH   5   6
HETATM    6  C   UNL     1     -12.277  13.019  69.969  1.00  0.00    -0.236 A  
HETATM    7  C   UNL     1     -11.671  12.680  68.752  1.00  0.00    -0.364 A  
HETATM    8  C   UNL     1     -11.192  11.376  68.545  1.00  0.00    -0.309 A  
HETATM    9  C   UNL     1     -11.506  13.649  67.705  1.00  0.00    -0.325 C  
HETATM   10  C   UNL     1     -11.315  10.389  69.536  1.00  0.00    -0.325 A  
HETATM   11  N   UNL     1     -11.335  14.396  66.832  1.00  0.00    -0.335 NA 
HETATM   12  C   UNL     1     -12.412  12.043  70.959  1.00  0.00    -0.376 A  
HETATM   13  C   UNL     1     -11.937  10.743  70.742  1.00  0.00    -0.464 A  
BRANCH  10  14
HETATM   14  C   UNL     1     -10.835   9.009  69.337  1.00  0.00    -0.138 A  
HETATM   15  N   UNL     1     -10.735   8.099  70.286  1.00  0.00    -0.233 NA 
HETATM   16  C   UNL     1     -10.259   6.897  69.769  1.00  0.00    -0.196 A  
HETATM   17  C   UNL     1      -9.961   6.926  68.417  1.00  0.00    -0.147 A  
HETATM   18  C   UNL     1     -10.120   5.733  70.690  1.00  0.00    -0.263 C  
HETATM   19  C   UNL     1      -9.438   5.864  67.585  1.00  0.00    -0.110 C  
HETATM   20  S   UNL     1     -10.306   8.481  67.789  1.00  0.00    -0.226 SA 
HETATM   21  O   UNL     1      -9.155   4.737  67.967  1.00  0.00    -0.109 OA 
HETATM   22  O   UNL     1      -9.275   6.231  66.286  1.00  0.00    -0.157 OA 
ENDBRANCH  10  14
ENDBRANCH   5   6
ENDBRANCH   4   5
TORSDOF 3
ENDMDL
MODEL       49
REMARK 921   NORMALIZED FREE ENERGY PREDICTED BY IDOCK:   -5.42 KCAL/MOL
REMARK 922        TOTAL FREE ENERGY PREDICTED BY IDOCK:   -7.05 KCAL/MOL
REMARK 923 INTER-LIGAND FREE ENERGY PREDICTED BY IDOCK:   -6.65 KCAL/MOL
REMARK 924 INTRA-LIGAND FREE ENERGY PREDICTED BY IDOCK:   -0.41 KCAL/MOL
REMARK 927      BINDING AFFINITY PREDICTED BY RF-SCORE:    0.00 PKD
ROOT
HETATM    1  C   UNL     1      -6.967  19.041  68.997  1.00  0.00    -0.354 C  
HETATM    2  C   UNL     1      -7.912  18.252  68.093  1.00  0.00    -0.295 C  
HETATM    3  C   UNL     1      -9.224  19.015  67.899  1.00  0.00    -0.345 C  
HETATM    4  C   UNL     1      -7.236  17.945  66.749  1.00  0.00    -0.203 C  
ENDROOT
BRANCH   4   5
HETATM    5  O   UNL     1      -8.160  17.239  65.919  1.00  0.00    -0.529 OA 
BRANCH   5   6
HETATM    6  C   UNL     1      -8.479  15.965  66.303  1.00  0.00    -0.267 A  
HETATM    7  C   UNL     1      -9.736  15.482  65.918  1.00  0.00    -0.392 A  
HETATM    8  C   UNL     1     -10.147  14.199  66.312  1.00  0.00    -0.308 A  
HETATM    9  C   UNL     1     -10.620  16.268  65.103  1.00  0.00    -0.304 C  
HETATM   10  C   UNL     1      -9.322  13.380  67.100  1.00  0.00    -0.240 A  
HETATM   11  N   UNL     1     -11.366  16.856  64.433  1.00  0.00    -1.090 NA 
HETATM   12  C   UNL     1      -7.653  15.162  67.093  1.00  0.00    -0.204 A  
HETATM   13  C   UNL     1      -8.073  13.884  67.487  1.00  0.00    -0.191 A  
BRANCH  10  14
HETATM   14  C   UNL     1      -9.737  12.035  67.539  1.00  0.00    -0.187 A  
HETATM   15  N   UNL     1     -10.304  11.758  68.697  1.00  0.00    -0.220 NA 
HETATM   16  C   UNL     1     -10.581  10.398  68.799  1.00  0.00    -0.208 A  
HETATM   17  C   UNL     1     -10.175   9.640  67.713  1.00  0.00    -0.205 A  
HETATM   18  C   UNL     1     -11.265   9.903  70.028  1.00  0.00    -0.327 C  
HETATM   19  C   UNL     1     -10.296   8.213  67.512  1.00  0.00    -0.261 C  
HETATM   20  S   UNL     1      -9.456  10.663  66.542  1.00  0.00    -0.174 SA 
HETATM   21  O   UNL     1     -10.782   7.423  68.308  1.00  0.00    -0.180 OA 
HETATM   22  O   UNL     1      -9.802   7.797  66.314  1.00  0.00    -0.164 OA 
ENDBRANCH  10  14
ENDBRANCH   5   6
ENDBRANCH   4   5
TORSDOF 3
ENDMDL
MODEL       50
REMARK 921   NORMALIZED FREE ENERGY PREDICTED BY IDOCK:   -5.39 KCAL/MOL
REMARK 922        TOTAL FREE ENERGY PREDICTED BY IDOCK:   -7.02 KCAL/MOL
REMARK 923 INTER-LIGAND FREE ENERGY PREDICTED BY IDOCK:   -6.55 KCAL/MOL
REMARK 924 INTRA-LIGAND FREE ENERGY PREDICTED BY IDOCK:   -0.47 KCAL/MOL
REMARK 927      BINDING AFFINITY PREDICTED BY RF-SCORE:    0.00 PKD
ROOT
HETATM    1  C   UNL     1     -11.746  12.336  63.681  1.00  0.00    -0.591 C  
HETATM    2  C   UNL     1     -11.001  12.762  64.944  1.00  0.00    -0.324 C  
HETATM    3  C   UNL     1     -10.759  14.273  64.935  1.00  0.00    -0.448 C  
HETATM    4  C   UNL     1     -11.778  12.325  66.195  1.00  0.00    -0.376 C  
ENDROOT
BRANCH   4   5
HETATM    5  O   UNL     1     -11.071  12.771  67.355  1.00  0.00    -0.255 OA 
BRANCH   5   6
HETATM    6  C   UNL     1     -10.923  11.864  68.368  1.00  0.00    -0.232 A  
HETATM    7  C   UNL     1      -9.701  11.184  68.437  1.00  0.00    -0.191 A  
HETATM    8  C   UNL     1      -9.493  10.209  69.426  1.00  0.00    -0.240 A  
HETATM    9  C   UNL     1      -8.631  11.477  67.524  1.00  0.00    -0.143 C  
HETATM   10  C   UNL     1     -10.496   9.887  70.354  1.00  0.00    -0.347 A  
HETATM   11  N   UNL     1      -7.730  11.685  66.821  1.00  0.00    -0.145 NA 
HETATM   12  C   UNL     1     -11.932  11.547  69.281  1.00  0.00    -0.397 A  
HETATM   13  C   UNL     1     -11.719  10.568  70.261  1.00  0.00    -0.420 A  
BRANCH  10  14
HETATM   14  C   UNL     1     -10.309   8.857  71.391  1.00  0.00    -0.307 A  
HETATM   15  N   UNL     1      -9.329   8.840  72.273  1.00  0.00    -0.360 NA 
HETATM   16  C   UNL     1      -9.444   7.741  73.119  1.00  0.00    -0.264 A  
HETATM   17  C   UNL     1     -10.508   6.901  72.836  1.00  0.00    -0.244 A  
HETATM   18  C   UNL     1      -8.443   7.578  74.212  1.00  0.00    -0.267 C  
HETATM   19  C   UNL     1     -10.895   5.678  73.505  1.00  0.00    -0.255 C  
HETATM   20  S   UNL     1     -11.384   7.520  71.501  1.00  0.00    -0.262 SA 
HETATM   21  O   UNL     1     -10.311   5.170  74.451  1.00  0.00    -0.251 OA 
HETATM   22  O   UNL     1     -12.010   5.106  72.974  1.00  0.00    -0.231 OA 
ENDBRANCH  10  14
ENDBRANCH   5   6
ENDBRANCH   4   5
TORSDOF 3
ENDMDL
MODEL       51
REMARK 921   NORMALIZED FREE ENERGY PREDICTED BY IDOCK:   -5.36 KCAL/MOL
REMARK 922        TOTAL FREE ENERGY PREDICTED BY IDOCK:   -6.98 KCAL/MOL
REMARK 923 INTER-LIGAND FREE ENERGY PREDICTED BY IDOCK:   -6.60 KCAL/MOL
REMARK 924 INTRA-LIGAND FREE ENERGY PREDICTED BY IDOCK:   -0.38 KCAL/MOL
REMARK 927      BINDING AFFINITY PREDICTED BY RF-SCORE:    0.00 PKD
ROOT
HETATM    1  C   UNL     1     -10.287  19.989  68.224  1.00  0.00    -0.494 C  
HETATM    2  C   UNL     1     -10.526  18.747  67.368  1.00  0.00    -0.490 C  
HETATM    3  C   UNL     1     -10.661  19.133  65.893  1.00  0.00    -0.495 C  
HETATM    4  C   UNL     1      -9.398  17.726  67.581  1.00  0.00    -0.250 C  
ENDROOT
BRANCH   4   5
HETATM    5  O   UNL     1      -9.635  16.595  66.740  1.00  0.00    -0.238 OA 
BRANCH   5   6
HETATM    6  C   UNL     1      -9.998  15.434  67.365  1.00  0.00    -0.229 A  
HETATM    7  C   UNL     1      -8.969  14.547  67.703  1.00  0.00    -0.193 A  
HETATM    8  C   UNL     1      -9.271  13.316  68.309  1.00  0.00    -0.197 A  
HETATM    9  C   UNL     1      -7.591  14.875  67.463  1.00  0.00    -0.195 C  
HETATM   10  C   UNL     1     -10.597  12.944  68.579  1.00  0.00    -0.270 A  
HETATM   11  N   UNL     1      -6.462  15.098  67.304  1.00  0.00    -0.298 NA 
HETATM   12  C   UNL     1     -11.323  15.071  67.622  1.00  0.00    -0.342 A  
HETATM   13  C   UNL     1     -11.617  13.838  68.221  1.00  0.00    -0.373 A  
BRANCH  10  14
HETATM   14  C   UNL     1     -10.942  11.652  69.200  1.00  0.00    -0.219 A  
HETATM   15  N   UNL     1     -10.430  10.487  68.857  1.00  0.00    -0.193 NA 
HETATM   16  C   UNL     1     -10.956   9.465  69.643  1.00  0.00    -0.197 A  
HETATM   17  C   UNL     1     -11.909   9.873  70.561  1.00  0.00    -0.270 A  
HETATM   18  C   UNL     1     -10.460   8.076  69.427  1.00  0.00    -0.223 C  
HETATM   19  C   UNL     1     -12.654   9.069  71.506  1.00  0.00    -0.338 C  
HETATM   20  S   UNL     1     -12.125  11.568  70.445  1.00  0.00    -0.357 SA 
HETATM   21  O   UNL     1     -12.563   7.857  71.634  1.00  0.00    -0.305 OA 
HETATM   22  O   UNL     1     -13.506   9.799  72.276  1.00  0.00    -0.434 OA 
ENDBRANCH  10  14
ENDBRANCH   5   6
ENDBRANCH   4   5
TORSDOF 3
ENDMDL
MODEL       52
REMARK 921   NORMALIZED FREE ENERGY PREDICTED BY IDOCK:   -5.35 KCAL/MOL
REMARK 922        TOTAL FREE ENERGY PREDICTED BY IDOCK:   -6.98 KCAL/MOL
REMARK 923 INTER-LIGAND FREE ENERGY PREDICTED BY IDOCK:   -6.53 KCAL/MOL
REMARK 924 INTRA-LIGAND FREE ENERGY PREDICTED BY IDOCK:   -0.44 KCAL/MOL
REMARK 927      BINDING AFFINITY PREDICTED BY RF-SCORE:    0.00 PKD
ROOT
HETATM    1  C   UNL     1     -12.281  16.248  72.897  1.00  0.00    -0.610 C  
HETATM    2  C   UNL     1     -12.884  14.989  72.277  1.00  0.00    -0.414 C  
HETATM    3  C   UNL     1     -14.392  15.163  72.077  1.00  0.00    -0.682 C  
HETATM    4  C   UNL     1     -12.177  14.653  70.955  1.00  0.00    -0.332 C  
ENDROOT
BRANCH   4   5
HETATM    5  O   UNL     1     -12.790  13.493  70.388  1.00  0.00    -0.152 OA 
BRANCH   5   6
HETATM    6  C   UNL     1     -12.134  12.905  69.340  1.00  0.00    -0.198 A  
HETATM    7  C   UNL     1     -11.876  11.533  69.444  1.00  0.00    -0.417 A  
HETATM    8  C   UNL     1     -11.171  10.871  68.426  1.00  0.00    -0.347 A  
HETATM    9  C   UNL     1     -12.337  10.769  70.570  1.00  0.00    -0.369 C  
HETATM   10  C   UNL     1     -10.704  11.561  67.296  1.00  0.00    -0.286 A  
HETATM   11  N   UNL     1     -12.699  10.103  71.451  1.00  0.00    -0.388 NA 
HETATM   12  C   UNL     1     -11.669  13.604  68.224  1.00  0.00    -0.398 A  
HETATM   13  C   UNL     1     -10.960  12.938  67.215  1.00  0.00    -0.289 A  
BRANCH  10  14
HETATM   14  C   UNL     1      -9.949  10.893  66.221  1.00  0.00    -0.227 A  
HETATM   15  N   UNL     1     -10.202  11.010  64.932  1.00  0.00    -0.290 NA 
HETATM   16  C   UNL     1      -9.300  10.262  64.181  1.00  0.00    -0.287 A  
HETATM   17  C   UNL     1      -8.382   9.541  64.927  1.00  0.00    -0.146 A  
HETATM   18  C   UNL     1      -9.405  10.306  62.695  1.00  0.00    -0.335 C  
HETATM   19  C   UNL     1      -7.334   8.660  64.462  1.00  0.00    -0.099 C  
HETATM   20  S   UNL     1      -8.650   9.831  66.594  1.00  0.00    -0.128 SA 
HETATM   21  O   UNL     1      -7.095   8.396  63.292  1.00  0.00    -0.088 OA 
HETATM   22  O   UNL     1      -6.599   8.121  65.472  1.00  0.00    -0.048 OA 
ENDBRANCH  10  14
ENDBRANCH   5   6
ENDBRANCH   4   5
TORSDOF 3
ENDMDL
MODEL       53
REMARK 921   NORMALIZED FREE ENERGY PREDICTED BY IDOCK:   -5.34 KCAL/MOL
REMARK 922        TOTAL FREE ENERGY PREDICTED BY IDOCK:   -6.96 KCAL/MOL
REMARK 923 INTER-LIGAND FREE ENERGY PREDICTED BY IDOCK:   -6.37 KCAL/MOL
REMARK 924 INTRA-LIGAND FREE ENERGY PREDICTED BY IDOCK:   -0.59 KCAL/MOL
REMARK 927      BINDING AFFINITY PREDICTED BY RF-SCORE:    0.00 PKD
ROOT
HETATM    1  C   UNL     1      -9.943  18.137  68.525  1.00  0.00    -0.408 C  
HETATM    2  C   UNL     1     -10.648  17.106  67.646  1.00  0.00    -0.343 C  
HETATM    3  C   UNL     1      -9.671  16.522  66.622  1.00  0.00    -0.275 C  
HETATM    4  C   UNL     1     -11.277  16.005  68.512  1.00  0.00    -0.374 C  
ENDROOT
BRANCH   4   5
HETATM    5  O   UNL     1     -11.895  15.042  67.657  1.00  0.00    -0.328 OA 
BRANCH   5   6
HETATM    6  C   UNL     1     -11.597  13.729  67.897  1.00  0.00    -0.341 A  
HETATM    7  C   UNL     1     -11.472  12.892  66.780  1.00  0.00    -0.391 A  
HETATM    8  C   UNL     1     -11.207  11.524  66.952  1.00  0.00    -0.363 A  
HETATM    9  C   UNL     1     -11.588  13.408  65.444  1.00  0.00    -0.314 C  
HETATM   10  C   UNL     1     -11.072  10.964  68.233  1.00  0.00    -0.324 A  
HETATM   11  N   UNL     1     -11.658  13.776  64.345  1.00  0.00    -0.393 NA 
HETATM   12  C   UNL     1     -11.472  13.181  69.176  1.00  0.00    -0.358 A  
HETATM   13  C   UNL     1     -11.214  11.813  69.340  1.00  0.00    -0.300 A  
BRANCH  10  14
HETATM   14  C   UNL     1     -10.810   9.528  68.441  1.00  0.00    -0.137 A  
HETATM   15  N   UNL     1     -10.755   8.622  67.485  1.00  0.00    -0.211 NA 
HETATM   16  C   UNL     1     -10.479   7.364  68.011  1.00  0.00    -0.199 A  
HETATM   17  C   UNL     1     -10.365   7.325  69.391  1.00  0.00    -0.208 A  
HETATM   18  C   UNL     1     -10.336   6.216  67.071  1.00  0.00    -0.295 C  
HETATM   19  C   UNL     1     -10.103   6.186  70.244  1.00  0.00    -0.188 C  
HETATM   20  S   UNL     1     -10.588   8.900  70.026  1.00  0.00    -0.223 SA 
HETATM   21  O   UNL     1      -9.948   5.035  69.863  1.00  0.00    -0.209 OA 
HETATM   22  O   UNL     1     -10.040   6.508  71.564  1.00  0.00    -0.189 OA 
ENDBRANCH  10  14
ENDBRANCH   5   6
ENDBRANCH   4   5
TORSDOF 3
ENDMDL
MODEL       54
REMARK 921   NORMALIZED FREE ENERGY PREDICTED BY IDOCK:   -5.32 KCAL/MOL
REMARK 922        TOTAL FREE ENERGY PREDICTED BY IDOCK:   -6.94 KCAL/MOL
REMARK 923 INTER-LIGAND FREE ENERGY PREDICTED BY IDOCK:   -6.47 KCAL/MOL
REMARK 924 INTRA-LIGAND FREE ENERGY PREDICTED BY IDOCK:   -0.48 KCAL/MOL
REMARK 927      BINDING AFFINITY PREDICTED BY RF-SCORE:    0.00 PKD
ROOT
HETATM    1  C   UNL     1     -12.529  15.347  73.906  1.00  0.00    -0.763 C  
HETATM    2  C   UNL     1     -13.211  14.542  72.801  1.00  0.00    -0.600 C  
HETATM    3  C   UNL     1     -14.302  15.377  72.128  1.00  0.00    -0.642 C  
HETATM    4  C   UNL     1     -12.173  14.047  71.782  1.00  0.00    -0.080 C  
ENDROOT
BRANCH   4   5
HETATM    5  O   UNL     1     -12.850  13.329  70.748  1.00  0.00    -0.228 OA 
BRANCH   5   6
HETATM    6  C   UNL     1     -12.269  12.163  70.332  1.00  0.00    -0.294 A  
HETATM    7  C   UNL     1     -11.854  12.102  68.996  1.00  0.00    -0.361 A  
HETATM    8  C   UNL     1     -11.287  10.921  68.488  1.00  0.00    -0.367 A  
HETATM    9  C   UNL     1     -11.973  13.238  68.125  1.00  0.00    -0.304 C  
HETATM   10  C   UNL     1     -11.134   9.782  69.295  1.00  0.00    -0.184 A  
HETATM   11  N   UNL     1     -12.033  14.129  67.383  1.00  0.00    -0.412 NA 
HETATM   12  C   UNL     1     -12.129  11.033  71.142  1.00  0.00    -0.349 A  
HETATM   13  C   UNL     1     -11.569   9.856  70.626  1.00  0.00    -0.413 A  
BRANCH  10  14
HETATM   14  C   UNL     1     -10.557   8.526  68.782  1.00  0.00    -0.133 A  
HETATM   15  N   UNL     1      -9.947   8.391  67.621  1.00  0.00    -0.177 NA 
HETATM   16  C   UNL     1      -9.509   7.083  67.442  1.00  0.00    -0.133 A  
HETATM   17  C   UNL     1      -9.835   6.216  68.472  1.00  0.00    -0.137 A  
HETATM   18  C   UNL     1      -8.756   6.750  66.199  1.00  0.00    -0.156 C  
HETATM   19  C   UNL     1      -9.547   4.803  68.588  1.00  0.00    -0.160 C  
HETATM   20  S   UNL     1     -10.685   7.070  69.689  1.00  0.00    -0.245 SA 
HETATM   21  O   UNL     1      -8.961   4.127  67.755  1.00  0.00    -0.108 OA 
HETATM   22  O   UNL     1     -10.003   4.257  69.748  1.00  0.00    -0.222 OA 
ENDBRANCH  10  14
ENDBRANCH   5   6
ENDBRANCH   4   5
TORSDOF 3
ENDMDL
MODEL       55
REMARK 921   NORMALIZED FREE ENERGY PREDICTED BY IDOCK:   -5.32 KCAL/MOL
REMARK 922        TOTAL FREE ENERGY PREDICTED BY IDOCK:   -6.94 KCAL/MOL
REMARK 923 INTER-LIGAND FREE ENERGY PREDICTED BY IDOCK:   -6.49 KCAL/MOL
REMARK 924 INTRA-LIGAND FREE ENERGY PREDICTED BY IDOCK:   -0.46 KCAL/MOL
REMARK 927      BINDING AFFINITY PREDICTED BY RF-SCORE:    0.00 PKD
ROOT
HETATM    1  C   UNL     1     -10.302   4.253  65.092  1.00  0.00    -0.215 C  
HETATM    2  C   UNL     1     -10.235   4.610  66.576  1.00  0.00    -0.273 C  
HETATM    3  C   UNL     1      -9.225   3.712  67.295  1.00  0.00    -0.215 C  
HETATM    4  C   UNL     1      -9.891   6.096  66.753  1.00  0.00    -0.164 C  
ENDROOT
BRANCH   4   5
HETATM    5  O   UNL     1      -9.802   6.385  68.150  1.00  0.00    -0.124 OA 
BRANCH   5   6
HETATM    6  C   UNL     1     -10.212   7.629  68.546  1.00  0.00    -0.199 A  
HETATM    7  C   UNL     1     -10.515   7.795  69.903  1.00  0.00    -0.232 A  
HETATM    8  C   UNL     1     -10.982   9.033  70.373  1.00  0.00    -0.283 A  
HETATM    9  C   UNL     1     -10.338   6.723  70.844  1.00  0.00    -0.199 C  
HETATM   10  C   UNL     1     -11.164  10.120  69.504  1.00  0.00    -0.288 A  
HETATM   11  N   UNL     1     -10.199   5.896  71.647  1.00  0.00    -0.196 NA 
HETATM   12  C   UNL     1     -10.397   8.701  67.670  1.00  0.00    -0.317 A  
HETATM   13  C   UNL     1     -10.870   9.932  68.146  1.00  0.00    -0.282 A  
BRANCH  10  14
HETATM   14  C   UNL     1     -11.668  11.425  69.969  1.00  0.00    -0.334 A  
HETATM   15  N   UNL     1     -12.445  11.606  71.019  1.00  0.00    -0.374 NA 
HETATM   16  C   UNL     1     -12.732  12.956  71.195  1.00  0.00    -0.276 A  
HETATM   17  C   UNL     1     -12.192  13.794  70.232  1.00  0.00    -0.359 A  
HETATM   18  C   UNL     1     -13.567  13.359  72.362  1.00  0.00    -0.708 C  
HETATM   19  C   UNL     1     -12.313  15.230  70.115  1.00  0.00    -0.353 C  
HETATM   20  S   UNL     1     -11.294  12.865  69.108  1.00  0.00    -0.257 SA 
HETATM   21  O   UNL     1     -12.949  15.953  70.869  1.00  0.00    -0.480 OA 
HETATM   22  O   UNL     1     -11.638  15.740  69.050  1.00  0.00    -0.360 OA 
ENDBRANCH  10  14
ENDBRANCH   5   6
ENDBRANCH   4   5
TORSDOF 3
ENDMDL
MODEL       56
REMARK 921   NORMALIZED FREE ENERGY PREDICTED BY IDOCK:   -5.30 KCAL/MOL
REMARK 922        TOTAL FREE ENERGY PREDICTED BY IDOCK:   -6.92 KCAL/MOL
REMARK 923 INTER-LIGAND FREE ENERGY PREDICTED BY IDOCK:   -6.42 KCAL/MOL
REMARK 924 INTRA-LIGAND FREE ENERGY PREDICTED BY IDOCK:   -0.50 KCAL/MOL
REMARK 927      BINDING AFFINITY PREDICTED BY RF-SCORE:    0.00 PKD
ROOT
HETATM    1  C   UNL     1     -11.769  15.461  72.617  1.00  0.00    -0.556 C  
HETATM    2  C   UNL     1     -12.516  14.630  71.576  1.00  0.00    -0.411 C  
HETATM    3  C   UNL     1     -13.875  15.262  71.265  1.00  0.00    -0.562 C  
HETATM    4  C   UNL     1     -11.666  14.472  70.306  1.00  0.00    -0.293 C  
ENDROOT
BRANCH   4   5
HETATM    5  O   UNL     1     -12.409  13.722  69.344  1.00  0.00    -0.310 OA 
BRANCH   5   6
HETATM    6  C   UNL     1     -11.845  12.554  68.910  1.00  0.00    -0.301 A  
HETATM    7  C   UNL     1     -11.778  12.358  67.525  1.00  0.00    -0.425 A  
HETATM    8  C   UNL     1     -11.250  11.164  67.008  1.00  0.00    -0.291 A  
HETATM    9  C   UNL     1     -12.223  13.368  66.606  1.00  0.00    -0.334 C  
HETATM   10  C   UNL     1     -10.789  10.144  67.857  1.00  0.00    -0.336 A  
HETATM   11  N   UNL     1     -12.554  14.156  65.820  1.00  0.00    -0.486 NA 
HETATM   12  C   UNL     1     -11.397  11.543  69.764  1.00  0.00    -0.303 A  
HETATM   13  C   UNL     1     -10.877  10.351  69.241  1.00  0.00    -0.280 A  
BRANCH  10  14
HETATM   14  C   UNL     1     -10.244   8.875  67.340  1.00  0.00    -0.249 A  
HETATM   15  N   UNL     1     -10.564   7.677  67.786  1.00  0.00    -0.219 NA 
HETATM   16  C   UNL     1      -9.884   6.688  67.081  1.00  0.00    -0.151 A  
HETATM   17  C   UNL     1      -9.009   7.163  66.117  1.00  0.00    -0.140 A  
HETATM   18  C   UNL     1     -10.152   5.262  67.418  1.00  0.00    -0.228 C  
HETATM   19  C   UNL     1      -8.147   6.411  65.231  1.00  0.00    -0.133 C  
HETATM   20  S   UNL     1      -9.065   8.874  66.089  1.00  0.00    -0.218 SA 
HETATM   21  O   UNL     1      -8.045   5.193  65.206  1.00  0.00    -0.110 OA 
HETATM   22  O   UNL     1      -7.424   7.199  64.391  1.00  0.00    -0.082 OA 
ENDBRANCH  10  14
ENDBRANCH   5   6
ENDBRANCH   4   5
TORSDOF 3
ENDMDL
MODEL       57
REMARK 921   NORMALIZED FREE ENERGY PREDICTED BY IDOCK:   -5.30 KCAL/MOL
REMARK 922        TOTAL FREE ENERGY PREDICTED BY IDOCK:   -6.92 KCAL/MOL
REMARK 923 INTER-LIGAND FREE ENERGY PREDICTED BY IDOCK:   -6.37 KCAL/MOL
REMARK 924 INTRA-LIGAND FREE ENERGY PREDICTED BY IDOCK:   -0.55 KCAL/MOL
REMARK 927      BINDING AFFINITY PREDICTED BY RF-SCORE:    0.00 PKD
ROOT
HETATM    1  C   UNL     1     -12.535  12.506  63.335  1.00  0.00    -0.514 C  
HETATM    2  C   UNL     1     -11.746  12.949  64.565  1.00  0.00    -0.416 C  
HETATM    3  C   UNL     1     -12.561  13.950  65.388  1.00  0.00    -0.538 C  
HETATM    4  C   UNL     1     -11.338  11.731  65.406  1.00  0.00    -0.222 C  
ENDROOT
BRANCH   4   5
HETATM    5  O   UNL     1     -10.634  12.186  66.564  1.00  0.00    -0.227 OA 
BRANCH   5   6
HETATM    6  C   UNL     1     -10.543  11.308  67.609  1.00  0.00    -0.213 A  
HETATM    7  C   UNL     1     -11.031  11.743  68.848  1.00  0.00    -0.288 A  
HETATM    8  C   UNL     1     -10.932  10.910  69.974  1.00  0.00    -0.221 A  
HETATM    9  C   UNL     1     -11.657  13.027  68.994  1.00  0.00    -0.318 C  
HETATM   10  C   UNL     1     -10.341   9.639  69.891  1.00  0.00    -0.282 A  
HETATM   11  N   UNL     1     -12.184  14.048  69.164  1.00  0.00    -0.323 NA 
HETATM   12  C   UNL     1      -9.945  10.048  67.516  1.00  0.00    -0.232 A  
HETATM   13  C   UNL     1      -9.845   9.226  68.646  1.00  0.00    -0.173 A  
BRANCH  10  14
HETATM   14  C   UNL     1     -10.211   8.752  71.061  1.00  0.00    -0.237 A  
HETATM   15  N   UNL     1      -9.289   8.864  71.997  1.00  0.00    -0.370 NA 
HETATM   16  C   UNL     1      -9.448   7.880  72.969  1.00  0.00    -0.271 A  
HETATM   17  C   UNL     1     -10.485   6.992  72.729  1.00  0.00    -0.238 A  
HETATM   18  C   UNL     1      -8.519   7.874  74.134  1.00  0.00    -0.312 C  
HETATM   19  C   UNL     1     -10.902   5.857  73.523  1.00  0.00    -0.216 C  
HETATM   20  S   UNL     1     -11.278   7.421  71.274  1.00  0.00    -0.258 SA 
HETATM   21  O   UNL     1     -10.375   5.484  74.561  1.00  0.00    -0.269 OA 
HETATM   22  O   UNL     1     -11.975   5.204  73.001  1.00  0.00    -0.231 OA 
ENDBRANCH  10  14
ENDBRANCH   5   6
ENDBRANCH   4   5
TORSDOF 3
ENDMDL
MODEL       58
REMARK 921   NORMALIZED FREE ENERGY PREDICTED BY IDOCK:   -5.29 KCAL/MOL
REMARK 922        TOTAL FREE ENERGY PREDICTED BY IDOCK:   -6.90 KCAL/MOL
REMARK 923 INTER-LIGAND FREE ENERGY PREDICTED BY IDOCK:   -6.38 KCAL/MOL
REMARK 924 INTRA-LIGAND FREE ENERGY PREDICTED BY IDOCK:   -0.52 KCAL/MOL
REMARK 927      BINDING AFFINITY PREDICTED BY RF-SCORE:    0.00 PKD
ROOT
HETATM    1  C   UNL     1      -9.524   5.665  70.853  1.00  0.00    -0.202 C  
HETATM    2  C   UNL     1      -9.116   6.155  69.466  1.00  0.00    -0.140 C  
HETATM    3  C   UNL     1      -8.267   5.098  68.755  1.00  0.00    -0.085 C  
HETATM    4  C   UNL     1     -10.358   6.525  68.642  1.00  0.00    -0.191 C  
ENDROOT
BRANCH   4   5
HETATM    5  O   UNL     1      -9.941   6.945  67.341  1.00  0.00    -0.145 OA 
BRANCH   5   6
HETATM    6  C   UNL     1     -10.103   8.270  67.043  1.00  0.00    -0.283 A  
HETATM    7  C   UNL     1      -9.404   8.761  65.934  1.00  0.00    -0.284 A  
HETATM    8  C   UNL     1      -9.491  10.121  65.593  1.00  0.00    -0.275 A  
HETATM    9  C   UNL     1      -8.607   7.895  65.110  1.00  0.00    -0.027 C  
HETATM   10  C   UNL     1     -10.264  11.013  66.353  1.00  0.00    -0.284 A  
HETATM   11  N   UNL     1      -7.961   7.237  64.405  1.00  0.00    -0.128 NA 
HETATM   12  C   UNL     1     -10.869   9.151  67.811  1.00  0.00    -0.159 A  
HETATM   13  C   UNL     1     -10.946  10.507  67.469  1.00  0.00    -0.365 A  
BRANCH  10  14
HETATM   14  C   UNL     1     -10.359  12.448  66.026  1.00  0.00    -0.251 A  
HETATM   15  N   UNL     1      -9.544  13.382  66.474  1.00  0.00    -0.272 NA 
HETATM   16  C   UNL     1      -9.898  14.631  65.971  1.00  0.00    -0.322 A  
HETATM   17  C   UNL     1     -11.024  14.632  65.164  1.00  0.00    -0.386 A  
HETATM   18  C   UNL     1      -9.060  15.808  66.336  1.00  0.00    -0.357 C  
HETATM   19  C   UNL     1     -11.661  15.751  64.505  1.00  0.00    -0.247 C  
HETATM   20  S   UNL     1     -11.626  13.035  65.023  1.00  0.00    -0.343 SA 
HETATM   21  O   UNL     1     -11.296  16.916  64.572  1.00  0.00    -1.006 OA 
HETATM   22  O   UNL     1     -12.749  15.392  63.771  1.00  0.00    -0.628 OA 
ENDBRANCH  10  14
ENDBRANCH   5   6
ENDBRANCH   4   5
TORSDOF 3
ENDMDL
MODEL       59
REMARK 921   NORMALIZED FREE ENERGY PREDICTED BY IDOCK:   -5.28 KCAL/MOL
REMARK 922        TOTAL FREE ENERGY PREDICTED BY IDOCK:   -6.90 KCAL/MOL
REMARK 923 INTER-LIGAND FREE ENERGY PREDICTED BY IDOCK:   -6.39 KCAL/MOL
REMARK 924 INTRA-LIGAND FREE ENERGY PREDICTED BY IDOCK:   -0.51 KCAL/MOL
REMARK 927      BINDING AFFINITY PREDICTED BY RF-SCORE:    0.00 PKD
ROOT
HETATM    1  C   UNL     1     -10.696   5.815  69.596  1.00  0.00    -0.416 C  
HETATM    2  C   UNL     1      -9.831   6.643  68.648  1.00  0.00    -0.138 C  
HETATM    3  C   UNL     1      -8.617   5.832  68.190  1.00  0.00    -0.108 C  
HETATM    4  C   UNL     1     -10.664   7.132  67.453  1.00  0.00    -0.298 C  
ENDROOT
BRANCH   4   5
HETATM    5  O   UNL     1      -9.816   7.871  66.572  1.00  0.00    -0.228 OA 
BRANCH   5   6
HETATM    6  C   UNL     1      -9.947   9.232  66.594  1.00  0.00    -0.264 A  
HETATM    7  C   UNL     1      -9.143   9.961  65.709  1.00  0.00    -0.208 A  
HETATM    8  C   UNL     1      -9.194  11.365  65.705  1.00  0.00    -0.223 A  
HETATM    9  C   UNL     1      -8.270   9.302  64.777  1.00  0.00    -0.149 C  
HETATM   10  C   UNL     1     -10.036  12.064  66.585  1.00  0.00    -0.219 A  
HETATM   11  N   UNL     1      -7.559   8.820  63.996  1.00  0.00    -0.117 NA 
HETATM   12  C   UNL     1     -10.783   9.918  67.479  1.00  0.00    -0.333 A  
HETATM   13  C   UNL     1     -10.824  11.319  67.474  1.00  0.00    -0.292 A  
BRANCH  10  14
HETATM   14  C   UNL     1     -10.097  13.537  66.612  1.00  0.00    -0.277 A  
HETATM   15  N   UNL     1      -9.741  14.291  67.633  1.00  0.00    -0.217 NA 
HETATM   16  C   UNL     1      -9.909  15.640  67.335  1.00  0.00    -0.225 A  
HETATM   17  C   UNL     1     -10.440  15.894  66.080  1.00  0.00    -0.326 A  
HETATM   18  C   UNL     1      -9.516  16.649  68.359  1.00  0.00    -0.231 C  
HETATM   19  C   UNL     1     -10.752  17.170  65.473  1.00  0.00    -0.117 C  
HETATM   20  S   UNL     1     -10.707  14.413  65.264  1.00  0.00    -0.402 SA 
HETATM   21  O   UNL     1     -10.602  18.262  66.001  1.00  0.00    -0.419 OA 
HETATM   22  O   UNL     1     -11.251  17.056  64.213  1.00  0.00    -1.186 OA 
ENDBRANCH  10  14
ENDBRANCH   5   6
ENDBRANCH   4   5
TORSDOF 3
ENDMDL
MODEL       60
REMARK 921   NORMALIZED FREE ENERGY PREDICTED BY IDOCK:   -5.26 KCAL/MOL
REMARK 922        TOTAL FREE ENERGY PREDICTED BY IDOCK:   -6.87 KCAL/MOL
REMARK 923 INTER-LIGAND FREE ENERGY PREDICTED BY IDOCK:   -6.41 KCAL/MOL
REMARK 924 INTRA-LIGAND FREE ENERGY PREDICTED BY IDOCK:   -0.47 KCAL/MOL
REMARK 927      BINDING AFFINITY PREDICTED BY RF-SCORE:    0.00 PKD
ROOT
HETATM    1  C   UNL     1     -12.584  16.111  73.559  1.00  0.00    -0.678 C  
HETATM    2  C   UNL     1     -13.234  14.957  72.799  1.00  0.00    -0.568 C  
HETATM    3  C   UNL     1     -14.405  15.466  71.955  1.00  0.00    -0.653 C  
HETATM    4  C   UNL     1     -12.192  14.232  71.934  1.00  0.00    -0.182 C  
ENDROOT
BRANCH   4   5
HETATM    5  O   UNL     1     -12.841  13.183  71.212  1.00  0.00    -0.353 OA 
BRANCH   5   6
HETATM    6  C   UNL     1     -12.086  12.522  70.283  1.00  0.00    -0.294 A  
HETATM    7  C   UNL     1     -12.038  11.126  70.382  1.00  0.00    -0.475 A  
HETATM    8  C   UNL     1     -11.250  10.383  69.488  1.00  0.00    -0.325 A  
HETATM    9  C   UNL     1     -12.800  10.421  71.376  1.00  0.00    -0.452 C  
HETATM   10  C   UNL     1     -10.492  11.015  68.489  1.00  0.00    -0.210 A  
HETATM   11  N   UNL     1     -13.407   9.803  72.149  1.00  0.00    -0.451 NA 
HETATM   12  C   UNL     1     -11.330  13.161  69.297  1.00  0.00    -0.312 A  
HETATM   13  C   UNL     1     -10.541  12.414  68.412  1.00  0.00    -0.251 A  
BRANCH  10  14
HETATM   14  C   UNL     1      -9.645  10.260  67.547  1.00  0.00    -0.156 A  
HETATM   15  N   UNL     1      -8.749  10.793  66.740  1.00  0.00    -0.141 NA 
HETATM   16  C   UNL     1      -8.112   9.809  65.989  1.00  0.00    -0.114 A  
HETATM   17  C   UNL     1      -8.571   8.521  66.213  1.00  0.00    -0.129 A  
HETATM   18  C   UNL     1      -7.033  10.222  65.047  1.00  0.00    -0.112 C  
HETATM   19  C   UNL     1      -8.139   7.289  65.592  1.00  0.00    -0.133 C  
HETATM   20  S   UNL     1      -9.804   8.554  67.400  1.00  0.00    -0.206 SA 
HETATM   21  O   UNL     1      -7.278   7.192  64.729  1.00  0.00    -0.064 OA 
HETATM   22  O   UNL     1      -8.797   6.193  66.060  1.00  0.00    -0.150 OA 
ENDBRANCH  10  14
ENDBRANCH   5   6
ENDBRANCH   4   5
TORSDOF 3
ENDMDL
MODEL       61
REMARK 921   NORMALIZED FREE ENERGY PREDICTED BY IDOCK:   -5.25 KCAL/MOL
REMARK 922        TOTAL FREE ENERGY PREDICTED BY IDOCK:   -6.86 KCAL/MOL
REMARK 923 INTER-LIGAND FREE ENERGY PREDICTED BY IDOCK:   -6.29 KCAL/MOL
REMARK 924 INTRA-LIGAND FREE ENERGY PREDICTED BY IDOCK:   -0.57 KCAL/MOL
REMARK 927      BINDING AFFINITY PREDICTED BY RF-SCORE:    0.00 PKD
ROOT
HETATM    1  C   UNL     1     -10.285  17.375  68.633  1.00  0.00    -0.361 C  
HETATM    2  C   UNL     1     -10.623  16.111  67.845  1.00  0.00    -0.309 C  
HETATM    3  C   UNL     1      -9.344  15.356  67.475  1.00  0.00    -0.204 C  
HETATM    4  C   UNL     1     -11.587  15.223  68.646  1.00  0.00    -0.354 C  
ENDROOT
BRANCH   4   5
HETATM    5  O   UNL     1     -11.852  14.036  67.896  1.00  0.00    -0.344 OA 
BRANCH   5   6
HETATM    6  C   UNL     1     -11.595  12.847  68.521  1.00  0.00    -0.323 A  
HETATM    7  C   UNL     1     -11.152  11.790  67.716  1.00  0.00    -0.302 A  
HETATM    8  C   UNL     1     -10.909  10.528  68.282  1.00  0.00    -0.293 A  
HETATM    9  C   UNL     1     -10.917  11.970  66.310  1.00  0.00    -0.299 C  
HETATM   10  C   UNL     1     -11.110  10.294  69.652  1.00  0.00    -0.323 A  
HETATM   11  N   UNL     1     -10.698  12.065  65.174  1.00  0.00    -0.278 NA 
HETATM   12  C   UNL     1     -11.806  12.623  69.884  1.00  0.00    -0.364 A  
HETATM   13  C   UNL     1     -11.567  11.360  70.441  1.00  0.00    -0.267 A  
BRANCH  10  14
HETATM   14  C   UNL     1     -10.877   8.975  70.269  1.00  0.00    -0.238 A  
HETATM   15  N   UNL     1     -10.660   7.857  69.605  1.00  0.00    -0.237 NA 
HETATM   16  C   UNL     1     -10.466   6.792  70.479  1.00  0.00    -0.209 A  
HETATM   17  C   UNL     1     -10.581   7.116  71.821  1.00  0.00    -0.206 A  
HETATM   18  C   UNL     1     -10.165   5.449  69.908  1.00  0.00    -0.351 C  
HETATM   19  C   UNL     1     -10.455   6.250  72.973  1.00  0.00    -0.228 C  
HETATM   20  S   UNL     1     -10.915   8.789  71.977  1.00  0.00    -0.336 SA 
HETATM   21  O   UNL     1     -10.233   5.049  72.937  1.00  0.00    -0.165 OA 
HETATM   22  O   UNL     1     -10.612   6.905  74.155  1.00  0.00    -0.299 OA 
ENDBRANCH  10  14
ENDBRANCH   5   6
ENDBRANCH   4   5
TORSDOF 3
ENDMDL
MODEL       62
REMARK 921   NORMALIZED FREE ENERGY PREDICTED BY IDOCK:   -5.21 KCAL/MOL
REMARK 922        TOTAL FREE ENERGY PREDICTED BY IDOCK:   -6.82 KCAL/MOL
REMARK 923 INTER-LIGAND FREE ENERGY PREDICTED BY IDOCK:   -6.30 KCAL/MOL
REMARK 924 INTRA-LIGAND FREE ENERGY PREDICTED BY IDOCK:   -0.51 KCAL/MOL
REMARK 927      BINDING AFFINITY PREDICTED BY RF-SCORE:    0.00 PKD
ROOT
HETATM    1  C   UNL     1     -10.076  19.608  67.787  1.00  0.00    -0.538 C  
HETATM    2  C   UNL     1      -9.845  18.465  66.800  1.00  0.00    -0.351 C  
HETATM    3  C   UNL     1      -8.347  18.249  66.574  1.00  0.00    -0.287 C  
HETATM    4  C   UNL     1     -10.529  17.183  67.297  1.00  0.00    -0.313 C  
ENDROOT
BRANCH   4   5
HETATM    5  O   UNL     1     -10.263  16.129  66.369  1.00  0.00    -0.280 OA 
BRANCH   5   6
HETATM    6  C   UNL     1     -10.294  14.854  66.865  1.00  0.00    -0.264 A  
HETATM    7  C   UNL     1     -11.171  13.954  66.247  1.00  0.00    -0.310 A  
HETATM    8  C   UNL     1     -11.286  12.641  66.730  1.00  0.00    -0.347 A  
HETATM    9  C   UNL     1     -11.953  14.339  65.105  1.00  0.00    -0.395 C  
HETATM   10  C   UNL     1     -10.540  12.203  67.836  1.00  0.00    -0.230 A  
HETATM   11  N   UNL     1     -12.595  14.593  64.172  1.00  0.00    -0.790 NA 
HETATM   12  C   UNL     1      -9.552  14.433  67.971  1.00  0.00    -0.216 A  
HETATM   13  C   UNL     1      -9.676  13.121  68.451  1.00  0.00    -0.196 A  
BRANCH  10  14
HETATM   14  C   UNL     1     -10.653  10.834  68.371  1.00  0.00    -0.197 A  
HETATM   15  N   UNL     1     -11.121  10.524  69.564  1.00  0.00    -0.249 NA 
HETATM   16  C   UNL     1     -11.106   9.146  69.758  1.00  0.00    -0.125 A  
HETATM   17  C   UNL     1     -10.577   8.418  68.704  1.00  0.00    -0.113 A  
HETATM   18  C   UNL     1     -11.641   8.603  71.039  1.00  0.00    -0.325 C  
HETATM   19  C   UNL     1     -10.402   6.986  68.595  1.00  0.00    -0.186 C  
HETATM   20  S   UNL     1     -10.117   9.486  67.448  1.00  0.00    -0.223 SA 
HETATM   21  O   UNL     1     -10.693   6.168  69.455  1.00  0.00    -0.248 OA 
HETATM   22  O   UNL     1      -9.862   6.602  67.407  1.00  0.00    -0.122 OA 
ENDBRANCH  10  14
ENDBRANCH   5   6
ENDBRANCH   4   5
TORSDOF 3
ENDMDL
MODEL       63
REMARK 921   NORMALIZED FREE ENERGY PREDICTED BY IDOCK:   -5.19 KCAL/MOL
REMARK 922        TOTAL FREE ENERGY PREDICTED BY IDOCK:   -6.79 KCAL/MOL
REMARK 923 INTER-LIGAND FREE ENERGY PREDICTED BY IDOCK:   -6.08 KCAL/MOL
REMARK 924 INTRA-LIGAND FREE ENERGY PREDICTED BY IDOCK:   -0.70 KCAL/MOL
REMARK 927      BINDING AFFINITY PREDICTED BY RF-SCORE:    0.00 PKD
ROOT
HETATM    1  C   UNL     1      -8.030   8.019  74.430  1.00  0.00    -0.299 C  
HETATM    2  C   UNL     1      -8.780   7.547  73.187  1.00  0.00    -0.202 C  
HETATM    3  C   UNL     1      -8.277   6.169  72.752  1.00  0.00    -0.117 C  
HETATM    4  C   UNL     1     -10.294   7.536  73.448  1.00  0.00    -0.350 C  
ENDROOT
BRANCH   4   5
HETATM    5  O   UNL     1     -10.960   7.057  72.278  1.00  0.00    -0.229 OA 
BRANCH   5   6
HETATM    6  C   UNL     1     -11.077   7.936  71.236  1.00  0.00    -0.250 A  
HETATM    7  C   UNL     1     -10.821   7.436  69.953  1.00  0.00    -0.259 A  
HETATM    8  C   UNL     1     -10.881   8.290  68.840  1.00  0.00     0.002 A  
HETATM    9  C   UNL     1     -10.515   6.048  69.740  1.00  0.00    -0.255 C  
HETATM   10  C   UNL     1     -11.186   9.653  68.985  1.00  0.00    -0.030 A  
HETATM   11  N   UNL     1     -10.278   4.935  69.510  1.00  0.00    -0.222 NA 
HETATM   12  C   UNL     1     -11.373   9.292  71.393  1.00  0.00    -0.434 A  
HETATM   13  C   UNL     1     -11.425  10.140  70.278  1.00  0.00    -0.381 A  
BRANCH  10  14
HETATM   14  C   UNL     1     -11.240  10.574  67.835  1.00  0.00    -0.289 A  
HETATM   15  N   UNL     1     -11.886  11.723  67.815  1.00  0.00    -0.592 NA 
HETATM   16  C   UNL     1     -11.731  12.357  66.586  1.00  0.00    -0.372 A  
HETATM   17  C   UNL     1     -10.987  11.647  65.657  1.00  0.00    -0.266 A  
HETATM   18  C   UNL     1     -12.359  13.695  66.392  1.00  0.00    -0.441 C  
HETATM   19  C   UNL     1     -10.657  12.010  64.297  1.00  0.00    -0.334 C  
HETATM   20  S   UNL     1     -10.462  10.174  66.355  1.00  0.00    -0.090 SA 
HETATM   21  O   UNL     1     -11.009  13.035  63.731  1.00  0.00    -0.392 OA 
HETATM   22  O   UNL     1      -9.891  11.081  63.665  1.00  0.00    -0.283 OA 
ENDBRANCH  10  14
ENDBRANCH   5   6
ENDBRANCH   4   5
TORSDOF 3
ENDMDL
MODEL       64
REMARK 921   NORMALIZED FREE ENERGY PREDICTED BY IDOCK:   -5.10 KCAL/MOL
REMARK 922        TOTAL FREE ENERGY PREDICTED BY IDOCK:   -6.68 KCAL/MOL
REMARK 923 INTER-LIGAND FREE ENERGY PREDICTED BY IDOCK:   -5.99 KCAL/MOL
REMARK 924 INTRA-LIGAND FREE ENERGY PREDICTED BY IDOCK:   -0.69 KCAL/MOL
REMARK 927      BINDING AFFINITY PREDICTED BY RF-SCORE:    0.00 PKD
ROOT
HETATM    1  C   UNL     1     -12.700  13.859  64.748  1.00  0.00    -0.248 C  
HETATM    2  C   UNL     1     -11.584  13.596  65.757  1.00  0.00    -0.349 C  
HETATM    3  C   UNL     1     -10.277  14.238  65.285  1.00  0.00    -0.408 C  
HETATM    4  C   UNL     1     -11.990  14.106  67.148  1.00  0.00    -0.426 C  
ENDROOT
BRANCH   4   5
HETATM    5  O   UNL     1     -10.911  13.876  68.056  1.00  0.00    -0.239 OA 
BRANCH   5   6
HETATM    6  C   UNL     1     -10.863  12.645  68.651  1.00  0.00    -0.249 A  
HETATM    7  C   UNL     1      -9.668  11.926  68.526  1.00  0.00    -0.173 A  
HETATM    8  C   UNL     1      -9.561  10.639  69.076  1.00  0.00    -0.207 A  
HETATM    9  C   UNL     1      -8.526  12.487  67.859  1.00  0.00    -0.171 C  
HETATM   10  C   UNL     1     -10.639  10.042  69.749  1.00  0.00    -0.301 A  
HETATM   11  N   UNL     1      -7.570  12.898  67.343  1.00  0.00    -0.162 NA 
HETATM   12  C   UNL     1     -11.945  12.059  69.312  1.00  0.00    -0.329 A  
HETATM   13  C   UNL     1     -11.833  10.771  69.853  1.00  0.00    -0.413 A  
BRANCH  10  14
HETATM   14  C   UNL     1     -10.558   8.686  70.322  1.00  0.00    -0.223 A  
HETATM   15  N   UNL     1     -10.489   7.572  69.621  1.00  0.00    -0.229 NA 
HETATM   16  C   UNL     1     -10.412   6.464  70.460  1.00  0.00    -0.220 A  
HETATM   17  C   UNL     1     -10.465   6.757  71.813  1.00  0.00    -0.207 A  
HETATM   18  C   UNL     1     -10.284   5.113  69.844  1.00  0.00    -0.361 C  
HETATM   19  C   UNL     1     -10.427   5.846  72.936  1.00  0.00    -0.222 C  
HETATM   20  S   UNL     1     -10.592   8.452  72.025  1.00  0.00    -0.343 SA 
HETATM   21  O   UNL     1     -10.353   4.629  72.860  1.00  0.00    -0.170 OA 
HETATM   22  O   UNL     1     -10.485   6.477  74.140  1.00  0.00    -0.337 OA 
ENDBRANCH  10  14
ENDBRANCH   5   6
ENDBRANCH   4   5
TORSDOF 3
ENDMDL
MODEL       65
REMARK 921   NORMALIZED FREE ENERGY PREDICTED BY IDOCK:   -5.08 KCAL/MOL
REMARK 922        TOTAL FREE ENERGY PREDICTED BY IDOCK:   -6.66 KCAL/MOL
REMARK 923 INTER-LIGAND FREE ENERGY PREDICTED BY IDOCK:   -6.13 KCAL/MOL
REMARK 924 INTRA-LIGAND FREE ENERGY PREDICTED BY IDOCK:   -0.52 KCAL/MOL
REMARK 927      BINDING AFFINITY PREDICTED BY RF-SCORE:    0.00 PKD
ROOT
HETATM    1  C   UNL     1     -10.557  19.911  67.218  1.00  0.00    -0.519 C  
HETATM    2  C   UNL     1     -10.004  18.910  66.207  1.00  0.00    -0.429 C  
HETATM    3  C   UNL     1      -8.479  18.830  66.314  1.00  0.00    -0.256 C  
HETATM    4  C   UNL     1     -10.654  17.532  66.407  1.00  0.00    -0.195 C  
ENDROOT
BRANCH   4   5
HETATM    5  O   UNL     1     -10.088  16.615  65.469  1.00  0.00    -0.553 OA 
BRANCH   5   6
HETATM    6  C   UNL     1      -9.763  15.375  65.946  1.00  0.00    -0.357 A  
HETATM    7  C   UNL     1     -10.591  14.312  65.566  1.00  0.00    -0.351 A  
HETATM    8  C   UNL     1     -10.342  13.017  66.051  1.00  0.00    -0.293 A  
HETATM    9  C   UNL     1     -11.692  14.509  64.664  1.00  0.00    -0.431 C  
HETATM   10  C   UNL     1      -9.275  12.761  66.926  1.00  0.00    -0.229 A  
HETATM   11  N   UNL     1     -12.584  14.610  63.927  1.00  0.00    -0.782 NA 
HETATM   12  C   UNL     1      -8.702  15.132  66.823  1.00  0.00    -0.307 A  
HETATM   13  C   UNL     1      -8.464  13.839  67.308  1.00  0.00    -0.204 A  
BRANCH  10  14
HETATM   14  C   UNL     1      -9.002  11.414  67.462  1.00  0.00    -0.150 A  
HETATM   15  N   UNL     1      -7.833  10.805  67.418  1.00  0.00    -0.109 NA 
HETATM   16  C   UNL     1      -7.906   9.552  68.019  1.00  0.00    -0.087 A  
HETATM   17  C   UNL     1      -9.164   9.204  68.483  1.00  0.00    -0.136 A  
HETATM   18  C   UNL     1      -6.665   8.730  68.102  1.00  0.00    -0.065 C  
HETATM   19  C   UNL     1      -9.580   7.981  69.134  1.00  0.00    -0.156 C  
HETATM   20  S   UNL     1     -10.259  10.485  68.176  1.00  0.00    -0.171 SA 
HETATM   21  O   UNL     1      -8.859   7.023  69.371  1.00  0.00    -0.136 OA 
HETATM   22  O   UNL     1     -10.897   7.977  69.476  1.00  0.00    -0.218 OA 
ENDBRANCH  10  14
ENDBRANCH   5   6
ENDBRANCH   4   5
TORSDOF 3
ENDMDL
MODEL       66
REMARK 921   NORMALIZED FREE ENERGY PREDICTED BY IDOCK:   -5.07 KCAL/MOL
REMARK 922        TOTAL FREE ENERGY PREDICTED BY IDOCK:   -6.65 KCAL/MOL
REMARK 923 INTER-LIGAND FREE ENERGY PREDICTED BY IDOCK:   -6.17 KCAL/MOL
REMARK 924 INTRA-LIGAND FREE ENERGY PREDICTED BY IDOCK:   -0.48 KCAL/MOL
REMARK 927      BINDING AFFINITY PREDICTED BY RF-SCORE:    0.00 PKD
ROOT
HETATM    1  C   UNL     1      -9.962   4.328  65.314  1.00  0.00    -0.229 C  
HETATM    2  C   UNL     1      -9.482   4.890  66.651  1.00  0.00    -0.153 C  
HETATM    3  C   UNL     1      -7.985   5.199  66.592  1.00  0.00    -0.104 C  
HETATM    4  C   UNL     1     -10.299   6.134  67.031  1.00  0.00    -0.237 C  
ENDROOT
BRANCH   4   5
HETATM    5  O   UNL     1      -9.800   6.653  68.266  1.00  0.00    -0.134 OA 
BRANCH   5   6
HETATM    6  C   UNL     1     -10.211   7.911  68.613  1.00  0.00    -0.205 A  
HETATM    7  C   UNL     1     -10.833   8.053  69.859  1.00  0.00    -0.217 A  
HETATM    8  C   UNL     1     -11.318   9.308  70.264  1.00  0.00    -0.238 A  
HETATM    9  C   UNL     1     -10.971   6.940  70.757  1.00  0.00    -0.259 C  
HETATM   10  C   UNL     1     -11.202  10.435  69.435  1.00  0.00    -0.314 A  
HETATM   11  N   UNL     1     -11.095   6.078  71.525  1.00  0.00    -0.278 NA 
HETATM   12  C   UNL     1     -10.097   9.024  67.776  1.00  0.00    -0.260 A  
HETATM   13  C   UNL     1     -10.590  10.271  68.184  1.00  0.00    -0.258 A  
BRANCH  10  14
HETATM   14  C   UNL     1     -11.717  11.759  69.829  1.00  0.00    -0.335 A  
HETATM   15  N   UNL     1     -11.426  12.895  69.226  1.00  0.00    -0.282 NA 
HETATM   16  C   UNL     1     -12.081  13.961  69.835  1.00  0.00    -0.344 A  
HETATM   17  C   UNL     1     -12.844  13.617  70.940  1.00  0.00    -0.251 A  
HETATM   18  C   UNL     1     -11.906  15.325  69.261  1.00  0.00    -0.353 C  
HETATM   19  C   UNL     1     -13.627  14.477  71.799  1.00  0.00    -0.391 C  
HETATM   20  S   UNL     1     -12.748  11.926  71.195  1.00  0.00    -0.191 SA 
HETATM   21  O   UNL     1     -13.730  15.690  71.686  1.00  0.00    -0.485 OA 
HETATM   22  O   UNL     1     -14.270  13.803  72.791  1.00  0.00    -0.650 OA 
ENDBRANCH  10  14
ENDBRANCH   5   6
ENDBRANCH   4   5
TORSDOF 3
ENDMDL
MODEL       67
REMARK 921   NORMALIZED FREE ENERGY PREDICTED BY IDOCK:   -5.06 KCAL/MOL
REMARK 922        TOTAL FREE ENERGY PREDICTED BY IDOCK:   -6.64 KCAL/MOL
REMARK 923 INTER-LIGAND FREE ENERGY PREDICTED BY IDOCK:   -6.18 KCAL/MOL
REMARK 924 INTRA-LIGAND FREE ENERGY PREDICTED BY IDOCK:   -0.46 KCAL/MOL
REMARK 927      BINDING AFFINITY PREDICTED BY RF-SCORE:    0.00 PKD
ROOT
HETATM    1  C   UNL     1      -7.423   4.728  67.495  1.00  0.00    -0.079 C  
HETATM    2  C   UNL     1      -7.859   5.957  66.700  1.00  0.00    -0.101 C  
HETATM    3  C   UNL     1      -8.045   5.598  65.224  1.00  0.00    -0.125 C  
HETATM    4  C   UNL     1      -9.142   6.555  67.299  1.00  0.00    -0.117 C  
ENDROOT
BRANCH   4   5
HETATM    5  O   UNL     1      -9.539   7.678  66.510  1.00  0.00    -0.197 OA 
BRANCH   5   6
HETATM    6  C   UNL     1     -10.066   8.744  67.185  1.00  0.00    -0.252 A  
HETATM    7  C   UNL     1     -10.194   9.944  66.474  1.00  0.00    -0.292 A  
HETATM    8  C   UNL     1     -10.689  11.092  67.115  1.00  0.00    -0.313 A  
HETATM    9  C   UNL     1      -9.846  10.029  65.083  1.00  0.00    -0.318 C  
HETATM   10  C   UNL     1     -11.057  11.068  68.470  1.00  0.00    -0.297 A  
HETATM   11  N   UNL     1      -9.593  10.148  63.956  1.00  0.00    -0.291 NA 
HETATM   12  C   UNL     1     -10.422   8.710  68.535  1.00  0.00    -0.209 A  
HETATM   13  C   UNL     1     -10.909   9.861  69.169  1.00  0.00    -0.248 A  
BRANCH  10  14
HETATM   14  C   UNL     1     -11.565  12.262  69.169  1.00  0.00    -0.318 A  
HETATM   15  N   UNL     1     -11.332  13.508  68.807  1.00  0.00    -0.271 NA 
HETATM   16  C   UNL     1     -11.963  14.400  69.669  1.00  0.00    -0.336 A  
HETATM   17  C   UNL     1     -12.645  13.807  70.719  1.00  0.00    -0.340 A  
HETATM   18  C   UNL     1     -11.847  15.860  69.391  1.00  0.00    -0.325 C  
HETATM   19  C   UNL     1     -13.384  14.441  71.789  1.00  0.00    -0.366 C  
HETATM   20  S   UNL     1     -12.506  12.104  70.600  1.00  0.00    -0.163 SA 
HETATM   21  O   UNL     1     -13.512  15.647  71.945  1.00  0.00    -0.469 OA 
HETATM   22  O   UNL     1     -13.949  13.553  72.650  1.00  0.00    -0.752 OA 
ENDBRANCH  10  14
ENDBRANCH   5   6
ENDBRANCH   4   5
TORSDOF 3
ENDMDL
MODEL       68
REMARK 921   NORMALIZED FREE ENERGY PREDICTED BY IDOCK:   -5.04 KCAL/MOL
REMARK 922        TOTAL FREE ENERGY PREDICTED BY IDOCK:   -6.61 KCAL/MOL
REMARK 923 INTER-LIGAND FREE ENERGY PREDICTED BY IDOCK:   -6.13 KCAL/MOL
REMARK 924 INTRA-LIGAND FREE ENERGY PREDICTED BY IDOCK:   -0.49 KCAL/MOL
REMARK 927      BINDING AFFINITY PREDICTED BY RF-SCORE:    0.00 PKD
ROOT
HETATM    1  C   UNL     1     -12.227  13.143  63.345  1.00  0.00    -0.521 C  
HETATM    2  C   UNL     1     -11.730  13.208  64.787  1.00  0.00    -0.387 C  
HETATM    3  C   UNL     1     -12.783  13.863  65.685  1.00  0.00    -0.534 C  
HETATM    4  C   UNL     1     -11.359  11.804  65.288  1.00  0.00    -0.222 C  
ENDROOT
BRANCH   4   5
HETATM    5  O   UNL     1     -10.934  11.898  66.649  1.00  0.00    -0.263 OA 
BRANCH   5   6
HETATM    6  C   UNL     1     -10.831  10.723  67.341  1.00  0.00    -0.290 A  
HETATM    7  C   UNL     1     -11.154  10.759  68.704  1.00  0.00    -0.312 A  
HETATM    8  C   UNL     1     -11.032   9.599  69.487  1.00  0.00    -0.233 A  
HETATM    9  C   UNL     1     -11.632  11.962  69.326  1.00  0.00    -0.315 C  
HETATM   10  C   UNL     1     -10.580   8.391  68.932  1.00  0.00    -0.162 A  
HETATM   11  N   UNL     1     -12.037  12.902  69.875  1.00  0.00    -0.296 NA 
HETATM   12  C   UNL     1     -10.373   9.528  66.781  1.00  0.00    -0.298 A  
HETATM   13  C   UNL     1     -10.248   8.376  67.570  1.00  0.00    -0.308 A  
BRANCH  10  14
HETATM   14  C   UNL     1     -10.429   7.164  69.735  1.00  0.00    -0.225 A  
HETATM   15  N   UNL     1      -9.980   6.011  69.279  1.00  0.00    -0.154 NA 
HETATM   16  C   UNL     1      -9.949   5.056  70.291  1.00  0.00    -0.255 A  
HETATM   17  C   UNL     1     -10.421   5.497  71.517  1.00  0.00    -0.235 A  
HETATM   18  C   UNL     1      -9.428   3.697  69.971  1.00  0.00    -0.260 C  
HETATM   19  C   UNL     1     -10.538   4.760  72.757  1.00  0.00    -0.211 C  
HETATM   20  S   UNL     1     -10.889   7.139  71.392  1.00  0.00    -0.233 SA 
HETATM   21  O   UNL     1     -10.239   3.585  72.915  1.00  0.00    -0.150 OA 
HETATM   22  O   UNL     1     -11.032   5.508  73.780  1.00  0.00    -0.263 OA 
ENDBRANCH  10  14
ENDBRANCH   5   6
ENDBRANCH   4   5
TORSDOF 3
ENDMDL
MODEL       69
REMARK 921   NORMALIZED FREE ENERGY PREDICTED BY IDOCK:   -5.03 KCAL/MOL
REMARK 922        TOTAL FREE ENERGY PREDICTED BY IDOCK:   -6.60 KCAL/MOL
REMARK 923 INTER-LIGAND FREE ENERGY PREDICTED BY IDOCK:   -6.05 KCAL/MOL
REMARK 924 INTRA-LIGAND FREE ENERGY PREDICTED BY IDOCK:   -0.55 KCAL/MOL
REMARK 927      BINDING AFFINITY PREDICTED BY RF-SCORE:    0.00 PKD
ROOT
HETATM    1  C   UNL     1     -10.027  17.720  68.397  1.00  0.00    -0.362 C  
HETATM    2  C   UNL     1     -10.974  16.726  67.729  1.00  0.00    -0.217 C  
HETATM    3  C   UNL     1     -10.407  16.271  66.383  1.00  0.00    -0.319 C  
HETATM    4  C   UNL     1     -11.240  15.533  68.659  1.00  0.00    -0.325 C  
ENDROOT
BRANCH   4   5
HETATM    5  O   UNL     1     -12.100  14.609  67.989  1.00  0.00    -0.286 OA 
BRANCH   5   6
HETATM    6  C   UNL     1     -11.648  13.323  67.875  1.00  0.00    -0.334 A  
HETATM    7  C   UNL     1     -11.827  12.695  66.637  1.00  0.00    -0.449 A  
HETATM    8  C   UNL     1     -11.424  11.362  66.459  1.00  0.00    -0.093 A  
HETATM    9  C   UNL     1     -12.400  13.395  65.521  1.00  0.00    -0.480 C  
HETATM   10  C   UNL     1     -10.848  10.630  67.510  1.00  0.00    -0.351 A  
HETATM   11  N   UNL     1     -12.844  13.918  64.584  1.00  0.00    -0.656 NA 
HETATM   12  C   UNL     1     -11.082  12.602  68.930  1.00  0.00    -0.307 A  
HETATM   13  C   UNL     1     -10.689  11.270  68.747  1.00  0.00    -0.240 A  
BRANCH  10  14
HETATM   14  C   UNL     1     -10.431   9.224  67.354  1.00  0.00    -0.273 A  
HETATM   15  N   UNL     1     -10.765   8.241  68.167  1.00  0.00    -0.100 NA 
HETATM   16  C   UNL     1     -10.219   7.035  67.736  1.00  0.00    -0.180 A  
HETATM   17  C   UNL     1      -9.429   7.130  66.602  1.00  0.00    -0.170 A  
HETATM   18  C   UNL     1     -10.526   5.799  68.510  1.00  0.00    -0.290 C  
HETATM   19  C   UNL     1      -8.710   6.081  65.913  1.00  0.00    -0.154 C  
HETATM   20  S   UNL     1      -9.396   8.755  66.064  1.00  0.00    -0.218 SA 
HETATM   21  O   UNL     1      -8.677   4.905  66.247  1.00  0.00    -0.114 OA 
HETATM   22  O   UNL     1      -8.040   6.523  64.814  1.00  0.00    -0.128 OA 
ENDBRANCH  10  14
ENDBRANCH   5   6
ENDBRANCH   4   5
TORSDOF 3
ENDMDL
MODEL       70
REMARK 921   NORMALIZED FREE ENERGY PREDICTED BY IDOCK:   -5.00 KCAL/MOL
REMARK 922        TOTAL FREE ENERGY PREDICTED BY IDOCK:   -6.57 KCAL/MOL
REMARK 923 INTER-LIGAND FREE ENERGY PREDICTED BY IDOCK:   -6.05 KCAL/MOL
REMARK 924 INTRA-LIGAND FREE ENERGY PREDICTED BY IDOCK:   -0.52 KCAL/MOL
REMARK 927      BINDING AFFINITY PREDICTED BY RF-SCORE:    0.00 PKD
ROOT
HETATM    1  C   UNL     1     -10.140  17.769  68.617  1.00  0.00    -0.384 C  
HETATM    2  C   UNL     1     -10.742  16.785  67.616  1.00  0.00    -0.305 C  
HETATM    3  C   UNL     1      -9.674  16.310  66.628  1.00  0.00    -0.266 C  
HETATM    4  C   UNL     1     -11.392  15.604  68.351  1.00  0.00    -0.364 C  
ENDROOT
BRANCH   4   5
HETATM    5  O   UNL     1     -11.913  14.689  67.384  1.00  0.00    -0.384 OA 
BRANCH   5   6
HETATM    6  C   UNL     1     -11.423  13.413  67.424  1.00  0.00    -0.333 A  
HETATM    7  C   UNL     1     -11.558  12.646  66.260  1.00  0.00    -0.440 A  
HETATM    8  C   UNL     1     -11.115  11.313  66.241  1.00  0.00    -0.229 A  
HETATM    9  C   UNL     1     -12.125  13.200  65.062  1.00  0.00    -0.415 C  
HETATM   10  C   UNL     1     -10.542  10.720  67.378  1.00  0.00    -0.287 A  
HETATM   11  N   UNL     1     -12.562  13.602  64.064  1.00  0.00    -0.686 NA 
HETATM   12  C   UNL     1     -10.861  12.831  68.563  1.00  0.00    -0.279 A  
HETATM   13  C   UNL     1     -10.428  11.498  68.539  1.00  0.00    -0.228 A  
BRANCH  10  14
HETATM   14  C   UNL     1     -10.084   9.318  67.388  1.00  0.00    -0.223 A  
HETATM   15  N   UNL     1      -9.592   8.675  66.348  1.00  0.00    -0.229 NA 
HETATM   16  C   UNL     1      -9.244   7.372  66.692  1.00  0.00    -0.158 A  
HETATM   17  C   UNL     1      -9.519   7.026  68.005  1.00  0.00    -0.125 A  
HETATM   18  C   UNL     1      -8.629   6.502  65.650  1.00  0.00    -0.132 C  
HETATM   19  C   UNL     1      -9.298   5.761  68.671  1.00  0.00    -0.122 C  
HETATM   20  S   UNL     1     -10.204   8.369  68.817  1.00  0.00    -0.204 SA 
HETATM   21  O   UNL     1      -8.829   4.758  68.152  1.00  0.00    -0.102 OA 
HETATM   22  O   UNL     1      -9.673   5.771  69.979  1.00  0.00    -0.158 OA 
ENDBRANCH  10  14
ENDBRANCH   5   6
ENDBRANCH   4   5
TORSDOF 3
ENDMDL
MODEL       71
REMARK 921   NORMALIZED FREE ENERGY PREDICTED BY IDOCK:   -5.00 KCAL/MOL
REMARK 922        TOTAL FREE ENERGY PREDICTED BY IDOCK:   -6.56 KCAL/MOL
REMARK 923 INTER-LIGAND FREE ENERGY PREDICTED BY IDOCK:   -5.97 KCAL/MOL
REMARK 924 INTRA-LIGAND FREE ENERGY PREDICTED BY IDOCK:   -0.59 KCAL/MOL
REMARK 927      BINDING AFFINITY PREDICTED BY RF-SCORE:    0.00 PKD
ROOT
HETATM    1  C   UNL     1      -9.353   3.736  67.004  1.00  0.00    -0.219 C  
HETATM    2  C   UNL     1      -8.717   4.928  67.716  1.00  0.00    -0.105 C  
HETATM    3  C   UNL     1      -7.389   5.299  67.051  1.00  0.00    -0.083 C  
HETATM    4  C   UNL     1      -9.686   6.119  67.735  1.00  0.00    -0.116 C  
ENDROOT
BRANCH   4   5
HETATM    5  O   UNL     1      -9.046   7.225  68.375  1.00  0.00    -0.136 OA 
BRANCH   5   6
HETATM    6  C   UNL     1      -9.305   8.465  67.860  1.00  0.00    -0.135 A  
HETATM    7  C   UNL     1      -8.210   9.319  67.681  1.00  0.00    -0.115 A  
HETATM    8  C   UNL     1      -8.406  10.622  67.195  1.00  0.00    -0.125 A  
HETATM    9  C   UNL     1      -6.870   8.885  67.965  1.00  0.00    -0.070 C  
HETATM   10  C   UNL     1      -9.691  11.099  66.889  1.00  0.00    -0.216 A  
HETATM   11  N   UNL     1      -5.768   8.580  68.165  1.00  0.00    -0.035 NA 
HETATM   12  C   UNL     1     -10.589   8.931  67.566  1.00  0.00    -0.307 A  
HETATM   13  C   UNL     1     -10.777  10.235  67.088  1.00  0.00    -0.303 A  
BRANCH  10  14
HETATM   14  C   UNL     1      -9.925  12.467  66.393  1.00  0.00    -0.252 A  
HETATM   15  N   UNL     1      -9.223  13.528  66.737  1.00  0.00    -0.251 NA 
HETATM   16  C   UNL     1      -9.691  14.665  66.084  1.00  0.00    -0.319 A  
HETATM   17  C   UNL     1     -10.791  14.453  65.269  1.00  0.00    -0.361 A  
HETATM   18  C   UNL     1      -8.988  15.959  66.318  1.00  0.00    -0.381 C  
HETATM   19  C   UNL     1     -11.523  15.414  64.473  1.00  0.00    -0.311 C  
HETATM   20  S   UNL     1     -11.221  12.796  65.311  1.00  0.00    -0.303 SA 
HETATM   21  O   UNL     1     -11.282  16.610  64.406  1.00  0.00    -1.033 OA 
HETATM   22  O   UNL     1     -12.549  14.859  63.773  1.00  0.00    -0.791 OA 
ENDBRANCH  10  14
ENDBRANCH   5   6
ENDBRANCH   4   5
TORSDOF 3
ENDMDL
MODEL       72
REMARK 921   NORMALIZED FREE ENERGY PREDICTED BY IDOCK:   -4.95 KCAL/MOL
REMARK 922        TOTAL FREE ENERGY PREDICTED BY IDOCK:   -6.51 KCAL/MOL
REMARK 923 INTER-LIGAND FREE ENERGY PREDICTED BY IDOCK:   -6.01 KCAL/MOL
REMARK 924 INTRA-LIGAND FREE ENERGY PREDICTED BY IDOCK:   -0.50 KCAL/MOL
REMARK 927      BINDING AFFINITY PREDICTED BY RF-SCORE:    0.00 PKD
ROOT
HETATM    1  C   UNL     1     -11.772  15.456  72.617  1.00  0.00    -0.556 C  
HETATM    2  C   UNL     1     -12.456  14.540  71.605  1.00  0.00    -0.422 C  
HETATM    3  C   UNL     1     -13.829  15.099  71.224  1.00  0.00    -0.553 C  
HETATM    4  C   UNL     1     -11.565  14.348  70.369  1.00  0.00    -0.226 C  
ENDROOT
BRANCH   4   5
HETATM    5  O   UNL     1     -12.250  13.517  69.431  1.00  0.00    -0.307 OA 
BRANCH   5   6
HETATM    6  C   UNL     1     -11.637  12.343  69.090  1.00  0.00    -0.314 A  
HETATM    7  C   UNL     1     -11.517  12.063  67.723  1.00  0.00    -0.394 A  
HETATM    8  C   UNL     1     -10.935  10.857  67.300  1.00  0.00    -0.355 A  
HETATM    9  C   UNL     1     -11.961  12.999  66.728  1.00  0.00    -0.369 C  
HETATM   10  C   UNL     1     -10.473   9.908  68.226  1.00  0.00    -0.246 A  
HETATM   11  N   UNL     1     -12.290  13.725  65.884  1.00  0.00    -0.462 NA 
HETATM   12  C   UNL     1     -11.187  11.402  70.020  1.00  0.00    -0.160 A  
HETATM   13  C   UNL     1     -10.613  10.198  69.591  1.00  0.00    -0.286 A  
BRANCH  10  14
HETATM   14  C   UNL     1      -9.872   8.627  67.808  1.00  0.00    -0.175 A  
HETATM   15  N   UNL     1      -8.593   8.323  67.908  1.00  0.00    -0.131 NA 
HETATM   16  C   UNL     1      -8.353   7.036  67.436  1.00  0.00    -0.122 A  
HETATM   17  C   UNL     1      -9.469   6.383  66.938  1.00  0.00    -0.143 A  
HETATM   18  C   UNL     1      -6.964   6.500  67.509  1.00  0.00    -0.078 C  
HETATM   19  C   UNL     1      -9.560   5.059  66.365  1.00  0.00    -0.164 C  
HETATM   20  S   UNL     1     -10.839   7.401  67.089  1.00  0.00    -0.145 SA 
HETATM   21  O   UNL     1      -8.624   4.286  66.213  1.00  0.00    -0.112 OA 
HETATM   22  O   UNL     1     -10.823   4.723  65.988  1.00  0.00    -0.287 OA 
ENDBRANCH  10  14
ENDBRANCH   5   6
ENDBRANCH   4   5
TORSDOF 3
ENDMDL
MODEL       73
REMARK 921   NORMALIZED FREE ENERGY PREDICTED BY IDOCK:   -4.92 KCAL/MOL
REMARK 922        TOTAL FREE ENERGY PREDICTED BY IDOCK:   -6.47 KCAL/MOL
REMARK 923 INTER-LIGAND FREE ENERGY PREDICTED BY IDOCK:   -6.30 KCAL/MOL
REMARK 924 INTRA-LIGAND FREE ENERGY PREDICTED BY IDOCK:   -0.17 KCAL/MOL
REMARK 927      BINDING AFFINITY PREDICTED BY RF-SCORE:    0.00 PKD
ROOT
HETATM    1  C   UNL     1      -9.404   3.021  68.688  1.00  0.00    -0.237 C  
HETATM    2  C   UNL     1      -9.574   3.815  69.981  1.00  0.00    -0.259 C  
HETATM    3  C   UNL     1      -8.212   4.081  70.627  1.00  0.00    -0.076 C  
HETATM    4  C   UNL     1     -10.332   5.124  69.709  1.00  0.00    -0.262 C  
ENDROOT
BRANCH   4   5
HETATM    5  O   UNL     1     -10.441   5.856  70.932  1.00  0.00    -0.220 OA 
BRANCH   5   6
HETATM    6  C   UNL     1     -10.864   7.153  70.833  1.00  0.00    -0.244 A  
HETATM    7  C   UNL     1      -9.921   8.097  70.407  1.00  0.00    -0.190 A  
HETATM    8  C   UNL     1     -10.274   9.453  70.322  1.00  0.00    -0.295 A  
HETATM    9  C   UNL     1      -8.592   7.706  70.029  1.00  0.00    -0.138 C  
HETATM   10  C   UNL     1     -11.561   9.894  70.667  1.00  0.00    -0.413 A  
HETATM   11  N   UNL     1      -7.510   7.442  69.698  1.00  0.00    -0.091 NA 
HETATM   12  C   UNL     1     -12.146   7.581  71.187  1.00  0.00    -0.335 A  
HETATM   13  C   UNL     1     -12.488   8.938  71.106  1.00  0.00    -0.260 A  
BRANCH  10  14
HETATM   14  C   UNL     1     -11.952  11.315  70.602  1.00  0.00    -0.336 A  
HETATM   15  N   UNL     1     -11.558  12.166  69.675  1.00  0.00    -0.303 NA 
HETATM   16  C   UNL     1     -12.112  13.424  69.891  1.00  0.00    -0.322 A  
HETATM   17  C   UNL     1     -12.902  13.522  71.025  1.00  0.00    -0.267 A  
HETATM   18  C   UNL     1     -11.812  14.510  68.916  1.00  0.00    -0.359 C  
HETATM   19  C   UNL     1     -13.603  14.678  71.540  1.00  0.00    -0.405 C  
HETATM   20  S   UNL     1     -12.962  12.002  71.811  1.00  0.00    -0.234 SA 
HETATM   21  O   UNL     1     -13.593  15.794  71.042  1.00  0.00    -0.568 OA 
HETATM   22  O   UNL     1     -14.304  14.417  72.677  1.00  0.00    -0.480 OA 
ENDBRANCH  10  14
ENDBRANCH   5   6
ENDBRANCH   4   5
TORSDOF 3
ENDMDL
MODEL       74
REMARK 921   NORMALIZED FREE ENERGY PREDICTED BY IDOCK:   -4.91 KCAL/MOL
REMARK 922        TOTAL FREE ENERGY PREDICTED BY IDOCK:   -6.46 KCAL/MOL
REMARK 923 INTER-LIGAND FREE ENERGY PREDICTED BY IDOCK:   -6.03 KCAL/MOL
REMARK 924 INTRA-LIGAND FREE ENERGY PREDICTED BY IDOCK:   -0.43 KCAL/MOL
REMARK 927      BINDING AFFINITY PREDICTED BY RF-SCORE:    0.00 PKD
ROOT
HETATM    1  C   UNL     1     -10.381  19.591  68.151  1.00  0.00    -0.550 C  
HETATM    2  C   UNL     1     -10.462  18.410  67.186  1.00  0.00    -0.434 C  
HETATM    3  C   UNL     1      -9.189  18.323  66.341  1.00  0.00    -0.272 C  
HETATM    4  C   UNL     1     -10.714  17.105  67.957  1.00  0.00    -0.372 C  
ENDROOT
BRANCH   4   5
HETATM    5  O   UNL     1     -10.749  16.020  67.028  1.00  0.00    -0.319 OA 
BRANCH   5   6
HETATM    6  C   UNL     1     -10.760  14.760  67.560  1.00  0.00    -0.269 A  
HETATM    7  C   UNL     1      -9.527  14.105  67.666  1.00  0.00    -0.213 A  
HETATM    8  C   UNL     1      -9.468  12.793  68.164  1.00  0.00    -0.219 A  
HETATM    9  C   UNL     1      -8.302  14.755  67.294  1.00  0.00    -0.212 C  
HETATM   10  C   UNL     1     -10.631  12.109  68.554  1.00  0.00    -0.252 A  
HETATM   11  N   UNL     1      -7.282  15.239  67.021  1.00  0.00    -0.187 NA 
HETATM   12  C   UNL     1     -11.925  14.086  67.938  1.00  0.00    -0.387 A  
HETATM   13  C   UNL     1     -11.858  12.775  68.428  1.00  0.00    -0.353 A  
BRANCH  10  14
HETATM   14  C   UNL     1     -10.597  10.727  69.065  1.00  0.00    -0.219 A  
HETATM   15  N   UNL     1     -10.592  10.391  70.340  1.00  0.00    -0.155 NA 
HETATM   16  C   UNL     1     -10.569   9.007  70.487  1.00  0.00    -0.227 A  
HETATM   17  C   UNL     1     -10.516   8.299  69.297  1.00  0.00    -0.210 A  
HETATM   18  C   UNL     1     -10.603   8.438  71.864  1.00  0.00    -0.370 C  
HETATM   19  C   UNL     1     -10.464   6.867  69.101  1.00  0.00    -0.207 C  
HETATM   20  S   UNL     1     -10.517   9.394  67.981  1.00  0.00    -0.219 SA 
HETATM   21  O   UNL     1     -10.445   6.028  69.991  1.00  0.00    -0.206 OA 
HETATM   22  O   UNL     1     -10.435   6.506  67.789  1.00  0.00    -0.174 OA 
ENDBRANCH  10  14
ENDBRANCH   5   6
ENDBRANCH   4   5
TORSDOF 3
ENDMDL
MODEL       75
REMARK 921   NORMALIZED FREE ENERGY PREDICTED BY IDOCK:   -4.90 KCAL/MOL
REMARK 922        TOTAL FREE ENERGY PREDICTED BY IDOCK:   -6.45 KCAL/MOL
REMARK 923 INTER-LIGAND FREE ENERGY PREDICTED BY IDOCK:   -6.20 KCAL/MOL
REMARK 924 INTRA-LIGAND FREE ENERGY PREDICTED BY IDOCK:   -0.25 KCAL/MOL
REMARK 927      BINDING AFFINITY PREDICTED BY RF-SCORE:    0.00 PKD
ROOT
HETATM    1  C   UNL     1     -10.143  20.403  68.070  1.00  0.00    -0.367 C  
HETATM    2  C   UNL     1     -10.248  19.260  67.062  1.00  0.00    -0.495 C  
HETATM    3  C   UNL     1     -10.772  19.779  65.721  1.00  0.00    -0.474 C  
HETATM    4  C   UNL     1      -8.891  18.560  66.903  1.00  0.00    -0.283 C  
ENDROOT
BRANCH   4   5
HETATM    5  O   UNL     1      -9.019  17.522  65.930  1.00  0.00    -0.517 OA 
BRANCH   5   6
HETATM    6  C   UNL     1      -9.350  16.280  66.398  1.00  0.00    -0.292 A  
HETATM    7  C   UNL     1      -8.310  15.501  66.919  1.00  0.00    -0.290 A  
HETATM    8  C   UNL     1      -8.568  14.200  67.381  1.00  0.00    -0.219 A  
HETATM    9  C   UNL     1      -6.970  16.011  67.015  1.00  0.00    -0.174 C  
HETATM   10  C   UNL     1      -9.859  13.651  67.323  1.00  0.00    -0.241 A  
HETATM   11  N   UNL     1      -5.874  16.379  67.128  1.00  0.00    -0.268 NA 
HETATM   12  C   UNL     1     -10.637  15.742  66.329  1.00  0.00    -0.313 A  
HETATM   13  C   UNL     1     -10.886  14.440  66.786  1.00  0.00    -0.301 A  
BRANCH  10  14
HETATM   14  C   UNL     1     -10.155  12.282  67.787  1.00  0.00    -0.201 A  
HETATM   15  N   UNL     1     -10.555  11.965  69.002  1.00  0.00    -0.164 NA 
HETATM   16  C   UNL     1     -10.757  10.592  69.113  1.00  0.00    -0.228 A  
HETATM   17  C   UNL     1     -10.462   9.869  67.969  1.00  0.00    -0.222 A  
HETATM   18  C   UNL     1     -11.255  10.050  70.409  1.00  0.00    -0.393 C  
HETATM   19  C   UNL     1     -10.546   8.440  67.758  1.00  0.00    -0.171 C  
HETATM   20  S   UNL     1      -9.946  10.938  66.735  1.00  0.00    -0.212 SA 
HETATM   21  O   UNL     1     -10.890   7.618  68.594  1.00  0.00    -0.113 OA 
HETATM   22  O   UNL     1     -10.193   8.063  66.499  1.00  0.00    -0.264 OA 
ENDBRANCH  10  14
ENDBRANCH   5   6
ENDBRANCH   4   5
TORSDOF 3
ENDMDL
MODEL       76
REMARK 921   NORMALIZED FREE ENERGY PREDICTED BY IDOCK:   -4.90 KCAL/MOL
REMARK 922        TOTAL FREE ENERGY PREDICTED BY IDOCK:   -6.45 KCAL/MOL
REMARK 923 INTER-LIGAND FREE ENERGY PREDICTED BY IDOCK:   -5.99 KCAL/MOL
REMARK 924 INTRA-LIGAND FREE ENERGY PREDICTED BY IDOCK:   -0.46 KCAL/MOL
REMARK 927      BINDING AFFINITY PREDICTED BY RF-SCORE:    0.00 PKD
ROOT
HETATM    1  C   UNL     1      -7.500   7.983  74.412  1.00  0.00    -0.236 C  
HETATM    2  C   UNL     1      -8.428   7.391  73.354  1.00  0.00    -0.177 C  
HETATM    3  C   UNL     1      -9.769   7.001  73.979  1.00  0.00    -0.332 C  
HETATM    4  C   UNL     1      -8.616   8.380  72.194  1.00  0.00    -0.192 C  
ENDROOT
BRANCH   4   5
HETATM    5  O   UNL     1      -9.516   7.809  71.242  1.00  0.00    -0.152 OA 
BRANCH   5   6
HETATM    6  C   UNL     1      -9.847   8.589  70.168  1.00  0.00    -0.178 A  
HETATM    7  C   UNL     1      -9.961   7.946  68.929  1.00  0.00    -0.194 A  
HETATM    8  C   UNL     1     -10.258   8.690  67.776  1.00  0.00    -0.282 A  
HETATM    9  C   UNL     1      -9.801   6.524  68.808  1.00  0.00    -0.140 C  
HETATM   10  C   UNL     1     -10.437  10.081  67.833  1.00  0.00    -0.276 A  
HETATM   11  N   UNL     1      -9.695   5.377  68.657  1.00  0.00    -0.130 NA 
HETATM   12  C   UNL     1     -10.016   9.974  70.236  1.00  0.00    -0.184 A  
HETATM   13  C   UNL     1     -10.306  10.710  69.079  1.00  0.00    -0.237 A  
BRANCH  10  14
HETATM   14  C   UNL     1     -10.735  10.887  66.635  1.00  0.00    -0.230 A  
HETATM   15  N   UNL     1     -10.237  10.670  65.433  1.00  0.00    -0.281 NA 
HETATM   16  C   UNL     1     -10.724  11.600  64.520  1.00  0.00    -0.322 A  
HETATM   17  C   UNL     1     -11.569  12.555  65.061  1.00  0.00    -0.349 A  
HETATM   18  C   UNL     1     -10.302  11.485  63.095  1.00  0.00    -0.376 C  
HETATM   19  C   UNL     1     -12.225  13.660  64.397  1.00  0.00    -0.390 C  
HETATM   20  S   UNL     1     -11.767  12.258  66.736  1.00  0.00    -0.285 SA 
HETATM   21  O   UNL     1     -12.118  13.941  63.212  1.00  0.00    -0.441 OA 
HETATM   22  O   UNL     1     -13.004  14.401  65.231  1.00  0.00    -0.608 OA 
ENDBRANCH  10  14
ENDBRANCH   5   6
ENDBRANCH   4   5
TORSDOF 3
ENDMDL
MODEL       77
REMARK 921   NORMALIZED FREE ENERGY PREDICTED BY IDOCK:   -4.88 KCAL/MOL
REMARK 922        TOTAL FREE ENERGY PREDICTED BY IDOCK:   -6.43 KCAL/MOL
REMARK 923 INTER-LIGAND FREE ENERGY PREDICTED BY IDOCK:   -6.02 KCAL/MOL
REMARK 924 INTRA-LIGAND FREE ENERGY PREDICTED BY IDOCK:   -0.41 KCAL/MOL
REMARK 927      BINDING AFFINITY PREDICTED BY RF-SCORE:    0.00 PKD
ROOT
HETATM    1  C   UNL     1      -7.677   7.830  64.068  1.00  0.00    -0.126 C  
HETATM    2  C   UNL     1      -7.782   9.349  64.183  1.00  0.00    -0.117 C  
HETATM    3  C   UNL     1      -7.593  10.002  62.812  1.00  0.00    -0.135 C  
HETATM    4  C   UNL     1      -9.125   9.747  64.814  1.00  0.00    -0.241 C  
ENDROOT
BRANCH   4   5
HETATM    5  O   UNL     1      -9.202  11.173  64.873  1.00  0.00    -0.209 OA 
BRANCH   5   6
HETATM    6  C   UNL     1      -9.814  11.708  65.973  1.00  0.00    -0.230 A  
HETATM    7  C   UNL     1      -8.990  12.057  67.050  1.00  0.00    -0.198 A  
HETATM    8  C   UNL     1      -9.554  12.573  68.228  1.00  0.00    -0.209 A  
HETATM    9  C   UNL     1      -7.563  11.918  66.974  1.00  0.00    -0.134 C  
HETATM   10  C   UNL     1     -10.942  12.742  68.358  1.00  0.00    -0.281 A  
HETATM   11  N   UNL     1      -6.404  11.840  66.959  1.00  0.00    -0.147 NA 
HETATM   12  C   UNL     1     -11.197  11.864  66.094  1.00  0.00    -0.387 A  
HETATM   13  C   UNL     1     -11.753  12.374  67.275  1.00  0.00    -0.419 A  
BRANCH  10  14
HETATM   14  C   UNL     1     -11.560  13.267  69.590  1.00  0.00    -0.261 A  
HETATM   15  N   UNL     1     -12.405  12.604  70.355  1.00  0.00    -0.283 NA 
HETATM   16  C   UNL     1     -12.794  13.376  71.445  1.00  0.00    -0.333 A  
HETATM   17  C   UNL     1     -12.260  14.654  71.471  1.00  0.00    -0.352 A  
HETATM   18  C   UNL     1     -13.719  12.774  72.448  1.00  0.00    -0.457 C  
HETATM   19  C   UNL     1     -12.473  15.702  72.445  1.00  0.00    -0.423 C  
HETATM   20  S   UNL     1     -11.238  14.872  70.115  1.00  0.00    -0.214 SA 
HETATM   21  O   UNL     1     -13.198  15.622  73.426  1.00  0.00    -0.520 OA 
HETATM   22  O   UNL     1     -11.776  16.838  72.172  1.00  0.00    -0.346 OA 
ENDBRANCH  10  14
ENDBRANCH   5   6
ENDBRANCH   4   5
TORSDOF 3
ENDMDL
MODEL       78
REMARK 921   NORMALIZED FREE ENERGY PREDICTED BY IDOCK:   -4.87 KCAL/MOL
REMARK 922        TOTAL FREE ENERGY PREDICTED BY IDOCK:   -6.41 KCAL/MOL
REMARK 923 INTER-LIGAND FREE ENERGY PREDICTED BY IDOCK:   -6.18 KCAL/MOL
REMARK 924 INTRA-LIGAND FREE ENERGY PREDICTED BY IDOCK:   -0.23 KCAL/MOL
REMARK 927      BINDING AFFINITY PREDICTED BY RF-SCORE:    0.00 PKD
ROOT
HETATM    1  C   UNL     1     -12.233  14.817  64.322  1.00  0.00    -0.402 C  
HETATM    2  C   UNL     1     -11.263  14.169  65.307  1.00  0.00    -0.326 C  
HETATM    3  C   UNL     1     -10.226  13.328  64.558  1.00  0.00    -0.332 C  
HETATM    4  C   UNL     1     -10.592  15.239  66.181  1.00  0.00    -0.313 C  
ENDROOT
BRANCH   4   5
HETATM    5  O   UNL     1      -9.667  14.601  67.063  1.00  0.00    -0.232 OA 
BRANCH   5   6
HETATM    6  C   UNL     1     -10.159  13.585  67.835  1.00  0.00    -0.248 A  
HETATM    7  C   UNL     1      -9.324  12.478  68.033  1.00  0.00    -0.205 A  
HETATM    8  C   UNL     1      -9.779  11.379  68.780  1.00  0.00    -0.155 A  
HETATM    9  C   UNL     1      -7.990  12.445  67.503  1.00  0.00    -0.173 C  
HETATM   10  C   UNL     1     -11.069  11.358  69.333  1.00  0.00    -0.301 A  
HETATM   11  N   UNL     1      -6.899  12.373  67.109  1.00  0.00    -0.120 NA 
HETATM   12  C   UNL     1     -11.448  13.572  68.374  1.00  0.00    -0.346 A  
HETATM   13  C   UNL     1     -11.897  12.469  69.113  1.00  0.00    -0.348 A  
BRANCH  10  14
HETATM   14  C   UNL     1     -11.576  10.211  70.108  1.00  0.00    -0.277 A  
HETATM   15  N   UNL     1     -12.645  10.231  70.879  1.00  0.00    -0.346 NA 
HETATM   16  C   UNL     1     -12.859   8.985  71.462  1.00  0.00    -0.336 A  
HETATM   17  C   UNL     1     -11.906   8.029  71.150  1.00  0.00    -0.284 A  
HETATM   18  C   UNL     1     -14.053   8.805  72.336  1.00  0.00    -0.485 C  
HETATM   19  C   UNL     1     -11.825   6.656  71.598  1.00  0.00    -0.336 C  
HETATM   20  S   UNL     1     -10.742   8.707  70.093  1.00  0.00    -0.233 SA 
HETATM   21  O   UNL     1     -12.609   6.111  72.361  1.00  0.00    -0.137 OA 
HETATM   22  O   UNL     1     -10.759   5.986  71.083  1.00  0.00    -0.241 OA 
ENDBRANCH  10  14
ENDBRANCH   5   6
ENDBRANCH   4   5
TORSDOF 3
ENDMDL
MODEL       79
REMARK 921   NORMALIZED FREE ENERGY PREDICTED BY IDOCK:   -4.82 KCAL/MOL
REMARK 922        TOTAL FREE ENERGY PREDICTED BY IDOCK:   -6.35 KCAL/MOL
REMARK 923 INTER-LIGAND FREE ENERGY PREDICTED BY IDOCK:   -5.78 KCAL/MOL
REMARK 924 INTRA-LIGAND FREE ENERGY PREDICTED BY IDOCK:   -0.57 KCAL/MOL
REMARK 927      BINDING AFFINITY PREDICTED BY RF-SCORE:    0.00 PKD
ROOT
HETATM    1  C   UNL     1     -10.514  16.725  68.921  1.00  0.00    -0.332 C  
HETATM    2  C   UNL     1     -10.785  15.549  67.986  1.00  0.00    -0.283 C  
HETATM    3  C   UNL     1      -9.468  14.917  67.528  1.00  0.00    -0.200 C  
HETATM    4  C   UNL     1     -11.694  14.518  68.672  1.00  0.00    -0.329 C  
ENDROOT
BRANCH   4   5
HETATM    5  O   UNL     1     -11.896  13.417  67.784  1.00  0.00    -0.340 OA 
BRANCH   5   6
HETATM    6  C   UNL     1     -11.562  12.178  68.257  1.00  0.00    -0.325 A  
HETATM    7  C   UNL     1     -11.060  11.259  67.327  1.00  0.00    -0.367 A  
HETATM    8  C   UNL     1     -10.735   9.954  67.734  1.00  0.00    -0.332 A  
HETATM    9  C   UNL     1     -10.847  11.625  65.955  1.00  0.00    -0.287 C  
HETATM   10  C   UNL     1     -10.910   9.541  69.064  1.00  0.00    -0.184 A  
HETATM   11  N   UNL     1     -10.643  11.873  64.839  1.00  0.00    -0.275 NA 
HETATM   12  C   UNL     1     -11.748  11.776  69.582  1.00  0.00    -0.413 A  
HETATM   13  C   UNL     1     -11.427  10.471  69.978  1.00  0.00    -0.393 A  
BRANCH  10  14
HETATM   14  C   UNL     1     -10.591   8.174  69.513  1.00  0.00    -0.213 A  
HETATM   15  N   UNL     1     -10.589   7.770  70.768  1.00  0.00    -0.215 NA 
HETATM   16  C   UNL     1     -10.256   6.421  70.853  1.00  0.00    -0.189 A  
HETATM   17  C   UNL     1      -9.965   5.818  69.640  1.00  0.00    -0.189 A  
HETATM   18  C   UNL     1     -10.244   5.776  72.197  1.00  0.00    -0.240 C  
HETATM   19  C   UNL     1      -9.572   4.450  69.383  1.00  0.00    -0.199 C  
HETATM   20  S   UNL     1     -10.136   6.964  68.379  1.00  0.00    -0.176 SA 
HETATM   21  O   UNL     1      -9.416   3.585  70.233  1.00  0.00    -0.162 OA 
HETATM   22  O   UNL     1      -9.377   4.188  68.063  1.00  0.00    -0.140 OA 
ENDBRANCH  10  14
ENDBRANCH   5   6
ENDBRANCH   4   5
TORSDOF 3
ENDMDL
MODEL       80
REMARK 921   NORMALIZED FREE ENERGY PREDICTED BY IDOCK:   -4.79 KCAL/MOL
REMARK 922        TOTAL FREE ENERGY PREDICTED BY IDOCK:   -6.32 KCAL/MOL
REMARK 923 INTER-LIGAND FREE ENERGY PREDICTED BY IDOCK:   -5.59 KCAL/MOL
REMARK 924 INTRA-LIGAND FREE ENERGY PREDICTED BY IDOCK:   -0.73 KCAL/MOL
REMARK 927      BINDING AFFINITY PREDICTED BY RF-SCORE:    0.00 PKD
ROOT
HETATM    1  C   UNL     1      -8.241  16.085  67.431  1.00  0.00    -0.189 C  
HETATM    2  C   UNL     1      -9.376  15.268  68.045  1.00  0.00    -0.197 C  
HETATM    3  C   UNL     1      -9.934  15.978  69.281  1.00  0.00    -0.252 C  
HETATM    4  C   UNL     1     -10.473  15.009  67.002  1.00  0.00    -0.278 C  
ENDROOT
BRANCH   4   5
HETATM    5  O   UNL     1     -11.532  14.275  67.620  1.00  0.00    -0.309 OA 
BRANCH   5   6
HETATM    6  C   UNL     1     -11.346  12.927  67.754  1.00  0.00    -0.299 A  
HETATM    7  C   UNL     1     -11.587  12.375  69.018  1.00  0.00    -0.362 A  
HETATM    8  C   UNL     1     -11.376  11.005  69.240  1.00  0.00    -0.350 A  
HETATM    9  C   UNL     1     -12.070  13.182  70.105  1.00  0.00    -0.321 C  
HETATM   10  C   UNL     1     -10.916  10.164  68.214  1.00  0.00    -0.299 A  
HETATM   11  N   UNL     1     -12.474  13.785  71.012  1.00  0.00    -0.367 NA 
HETATM   12  C   UNL     1     -10.880  12.101  66.728  1.00  0.00    -0.289 A  
HETATM   13  C   UNL     1     -10.666  10.735  66.958  1.00  0.00    -0.320 A  
BRANCH  10  14
HETATM   14  C   UNL     1     -10.672   8.725  68.425  1.00  0.00    -0.062 A  
HETATM   15  N   UNL     1     -10.647   8.125  69.599  1.00  0.00    -0.228 NA 
HETATM   16  C   UNL     1     -10.403   6.763  69.453  1.00  0.00    -0.199 A  
HETATM   17  C   UNL     1     -10.203   6.347  68.146  1.00  0.00    -0.167 A  
HETATM   18  C   UNL     1     -10.381   5.910  70.675  1.00  0.00    -0.296 C  
HETATM   19  C   UNL     1      -9.914   5.016  67.657  1.00  0.00    -0.155 C  
HETATM   20  S   UNL     1     -10.347   7.688  67.092  1.00  0.00    -0.338 SA 
HETATM   21  O   UNL     1      -9.784   4.018  68.351  1.00  0.00    -0.143 OA 
HETATM   22  O   UNL     1      -9.791   4.958  66.304  1.00  0.00    -0.167 OA 
ENDBRANCH  10  14
ENDBRANCH   5   6
ENDBRANCH   4   5
TORSDOF 3
ENDMDL
MODEL       81
REMARK 921   NORMALIZED FREE ENERGY PREDICTED BY IDOCK:   -4.78 KCAL/MOL
REMARK 922        TOTAL FREE ENERGY PREDICTED BY IDOCK:   -6.30 KCAL/MOL
REMARK 923 INTER-LIGAND FREE ENERGY PREDICTED BY IDOCK:   -5.91 KCAL/MOL
REMARK 924 INTRA-LIGAND FREE ENERGY PREDICTED BY IDOCK:   -0.40 KCAL/MOL
REMARK 927      BINDING AFFINITY PREDICTED BY RF-SCORE:    0.00 PKD
ROOT
HETATM    1  C   UNL     1      -7.125   3.774  70.740  1.00  0.00    -0.033 C  
HETATM    2  C   UNL     1      -8.345   4.211  69.932  1.00  0.00    -0.079 C  
HETATM    3  C   UNL     1      -9.398   3.100  69.915  1.00  0.00    -0.228 C  
HETATM    4  C   UNL     1      -8.918   5.520  70.493  1.00  0.00    -0.136 C  
ENDROOT
BRANCH   4   5
HETATM    5  O   UNL     1     -10.076   5.878  69.737  1.00  0.00    -0.171 OA 
BRANCH   5   6
HETATM    6  C   UNL     1     -10.580   7.133  69.945  1.00  0.00    -0.230 A  
HETATM    7  C   UNL     1     -10.215   8.124  69.025  1.00  0.00    -0.228 A  
HETATM    8  C   UNL     1     -10.661   9.444  69.198  1.00  0.00    -0.234 A  
HETATM    9  C   UNL     1      -9.403   7.816  67.880  1.00  0.00    -0.140 C  
HETATM   10  C   UNL     1     -11.466   9.802  70.291  1.00  0.00    -0.317 A  
HETATM   11  N   UNL     1      -8.762   7.620  66.932  1.00  0.00    -0.125 NA 
HETATM   12  C   UNL     1     -11.374   7.480  71.041  1.00  0.00    -0.292 A  
HETATM   13  C   UNL     1     -11.810   8.801  71.211  1.00  0.00    -0.358 A  
BRANCH  10  14
HETATM   14  C   UNL     1     -11.934  11.184  70.505  1.00  0.00    -0.380 A  
HETATM   15  N   UNL     1     -12.747  11.567  71.470  1.00  0.00    -0.365 NA 
HETATM   16  C   UNL     1     -12.985  12.937  71.402  1.00  0.00    -0.270 A  
HETATM   17  C   UNL     1     -12.370  13.579  70.339  1.00  0.00    -0.327 A  
HETATM   18  C   UNL     1     -13.851  13.560  72.442  1.00  0.00    -0.687 C  
HETATM   19  C   UNL     1     -12.427  14.978  69.976  1.00  0.00    -0.275 C  
HETATM   20  S   UNL     1     -11.464  12.443  69.433  1.00  0.00    -0.245 SA 
HETATM   21  O   UNL     1     -13.063  15.840  70.565  1.00  0.00    -0.461 OA 
HETATM   22  O   UNL     1     -11.686  15.276  68.874  1.00  0.00    -0.322 OA 
ENDBRANCH  10  14
ENDBRANCH   5   6
ENDBRANCH   4   5
TORSDOF 3
ENDMDL
MODEL       82
REMARK 921   NORMALIZED FREE ENERGY PREDICTED BY IDOCK:   -4.77 KCAL/MOL
REMARK 922        TOTAL FREE ENERGY PREDICTED BY IDOCK:   -6.30 KCAL/MOL
REMARK 923 INTER-LIGAND FREE ENERGY PREDICTED BY IDOCK:   -6.31 KCAL/MOL
REMARK 924 INTRA-LIGAND FREE ENERGY PREDICTED BY IDOCK:    0.02 KCAL/MOL
REMARK 927      BINDING AFFINITY PREDICTED BY RF-SCORE:    0.00 PKD
ROOT
HETATM    1  C   UNL     1      -7.711   9.236  64.100  1.00  0.00    -0.120 C  
HETATM    2  C   UNL     1      -8.864  10.237  64.101  1.00  0.00    -0.239 C  
HETATM    3  C   UNL     1      -9.613  10.190  62.767  1.00  0.00    -0.217 C  
HETATM    4  C   UNL     1      -9.806   9.967  65.284  1.00  0.00    -0.303 C  
ENDROOT
BRANCH   4   5
HETATM    5  O   UNL     1     -10.889  10.898  65.233  1.00  0.00    -0.180 OA 
BRANCH   5   6
HETATM    6  C   UNL     1     -10.575  12.213  65.435  1.00  0.00    -0.272 A  
HETATM    7  C   UNL     1     -10.273  12.599  66.747  1.00  0.00    -0.246 A  
HETATM    8  C   UNL     1      -9.982  13.942  67.036  1.00  0.00    -0.258 A  
HETATM    9  C   UNL     1     -10.232  11.640  67.816  1.00  0.00    -0.186 C  
HETATM   10  C   UNL     1      -9.996  14.922  66.032  1.00  0.00    -0.337 A  
HETATM   11  N   UNL     1     -10.171  10.905  68.713  1.00  0.00    -0.188 NA 
HETATM   12  C   UNL     1     -10.599  13.182  64.428  1.00  0.00    -0.441 A  
HETATM   13  C   UNL     1     -10.314  14.521  64.726  1.00  0.00    -0.319 A  
BRANCH  10  14
HETATM   14  C   UNL     1      -9.709  16.341  66.311  1.00  0.00    -0.304 A  
HETATM   15  N   UNL     1     -10.433  17.358  65.886  1.00  0.00    -0.487 NA 
HETATM   16  C   UNL     1      -9.901  18.565  66.332  1.00  0.00    -0.361 A  
HETATM   17  C   UNL     1      -8.734  18.446  67.070  1.00  0.00    -0.270 A  
HETATM   18  C   UNL     1     -10.613  19.827  65.983  1.00  0.00    -0.573 C  
HETATM   19  C   UNL     1      -7.928  19.493  67.658  1.00  0.00    -0.285 C  
HETATM   20  S   UNL     1      -8.320  16.791  67.220  1.00  0.00    -0.183 SA 
HETATM   21  O   UNL     1      -8.154  20.692  67.580  1.00  0.00    -0.303 OA 
HETATM   22  O   UNL     1      -6.847  19.020  68.336  1.00  0.00    -0.241 OA 
ENDBRANCH  10  14
ENDBRANCH   5   6
ENDBRANCH   4   5
TORSDOF 3
ENDMDL
MODEL       83
REMARK 921   NORMALIZED FREE ENERGY PREDICTED BY IDOCK:   -4.76 KCAL/MOL
REMARK 922        TOTAL FREE ENERGY PREDICTED BY IDOCK:   -6.29 KCAL/MOL
REMARK 923 INTER-LIGAND FREE ENERGY PREDICTED BY IDOCK:   -5.84 KCAL/MOL
REMARK 924 INTRA-LIGAND FREE ENERGY PREDICTED BY IDOCK:   -0.45 KCAL/MOL
REMARK 927      BINDING AFFINITY PREDICTED BY RF-SCORE:    0.00 PKD
ROOT
HETATM    1  C   UNL     1     -12.217  13.934  66.185  1.00  0.00    -0.498 C  
HETATM    2  C   UNL     1     -11.486  13.594  67.483  1.00  0.00    -0.360 C  
HETATM    3  C   UNL     1     -11.762  14.660  68.545  1.00  0.00    -0.348 C  
HETATM    4  C   UNL     1     -11.890  12.195  67.972  1.00  0.00    -0.285 C  
ENDROOT
BRANCH   4   5
HETATM    5  O   UNL     1     -11.216  11.925  69.203  1.00  0.00    -0.235 OA 
BRANCH   5   6
HETATM    6  C   UNL     1     -11.040  10.609  69.530  1.00  0.00    -0.274 A  
HETATM    7  C   UNL     1     -11.712  10.142  70.666  1.00  0.00    -0.425 A  
HETATM    8  C   UNL     1     -11.546   8.811  71.085  1.00  0.00    -0.344 A  
HETATM    9  C   UNL     1     -12.596  10.993  71.413  1.00  0.00    -0.393 C  
HETATM   10  C   UNL     1     -10.704   7.929  70.389  1.00  0.00    -0.233 A  
HETATM   11  N   UNL     1     -13.331  11.633  72.044  1.00  0.00    -0.429 NA 
HETATM   12  C   UNL     1     -10.194   9.742  68.833  1.00  0.00    -0.213 A  
HETATM   13  C   UNL     1     -10.028   8.417  69.261  1.00  0.00    -0.195 A  
BRANCH  10  14
HETATM   14  C   UNL     1     -10.500   6.533  70.816  1.00  0.00    -0.220 A  
HETATM   15  N   UNL     1     -10.759   6.065  72.021  1.00  0.00    -0.226 NA 
HETATM   16  C   UNL     1     -10.468   4.706  72.097  1.00  0.00    -0.148 A  
HETATM   17  C   UNL     1      -9.943   4.160  70.936  1.00  0.00    -0.136 A  
HETATM   18  C   UNL     1     -10.738   3.991  73.377  1.00  0.00    -0.299 C  
HETATM   19  C   UNL     1      -9.523   2.798  70.689  1.00  0.00    -0.141 C  
HETATM   20  S   UNL     1      -9.839   5.373  69.732  1.00  0.00    -0.222 SA 
HETATM   21  O   UNL     1      -9.555   1.887  71.503  1.00  0.00    -0.115 OA 
HETATM   22  O   UNL     1      -9.067   2.600  69.423  1.00  0.00    -0.099 OA 
ENDBRANCH  10  14
ENDBRANCH   5   6
ENDBRANCH   4   5
TORSDOF 3
ENDMDL
MODEL       84
REMARK 921   NORMALIZED FREE ENERGY PREDICTED BY IDOCK:   -4.75 KCAL/MOL
REMARK 922        TOTAL FREE ENERGY PREDICTED BY IDOCK:   -6.27 KCAL/MOL
REMARK 923 INTER-LIGAND FREE ENERGY PREDICTED BY IDOCK:   -5.78 KCAL/MOL
REMARK 924 INTRA-LIGAND FREE ENERGY PREDICTED BY IDOCK:   -0.49 KCAL/MOL
REMARK 927      BINDING AFFINITY PREDICTED BY RF-SCORE:    0.00 PKD
ROOT
HETATM    1  C   UNL     1      -7.985   4.888  65.813  1.00  0.00    -0.106 C  
HETATM    2  C   UNL     1      -9.265   5.712  65.936  1.00  0.00    -0.145 C  
HETATM    3  C   UNL     1     -10.493   4.800  65.877  1.00  0.00    -0.313 C  
HETATM    4  C   UNL     1      -9.244   6.543  67.228  1.00  0.00    -0.120 C  
ENDROOT
BRANCH   4   5
HETATM    5  O   UNL     1     -10.469   7.271  67.327  1.00  0.00    -0.245 OA 
BRANCH   5   6
HETATM    6  C   UNL     1     -10.374   8.636  67.300  1.00  0.00    -0.296 A  
HETATM    7  C   UNL     1     -10.632   9.313  68.498  1.00  0.00    -0.222 A  
HETATM    8  C   UNL     1     -10.594  10.717  68.535  1.00  0.00    -0.229 A  
HETATM    9  C   UNL     1     -10.919   8.601  69.712  1.00  0.00    -0.127 C  
HETATM   10  C   UNL     1     -10.308  11.467  67.383  1.00  0.00    -0.235 A  
HETATM   11  N   UNL     1     -11.141   8.074  70.723  1.00  0.00    -0.256 NA 
HETATM   12  C   UNL     1     -10.096   9.372  66.146  1.00  0.00    -0.324 A  
HETATM   13  C   UNL     1     -10.066  10.773  66.189  1.00  0.00    -0.297 A  
BRANCH  10  14
HETATM   14  C   UNL     1     -10.277  12.942  67.391  1.00  0.00    -0.230 A  
HETATM   15  N   UNL     1     -10.043  13.688  68.453  1.00  0.00    -0.239 NA 
HETATM   16  C   UNL     1     -10.073  15.040  68.123  1.00  0.00    -0.220 A  
HETATM   17  C   UNL     1     -10.374  15.306  66.797  1.00  0.00    -0.279 A  
HETATM   18  C   UNL     1      -9.787  16.038  69.192  1.00  0.00    -0.247 C  
HETATM   19  C   UNL     1     -10.499  16.589  66.141  1.00  0.00    -0.294 C  
HETATM   20  S   UNL     1     -10.601  13.832  65.956  1.00  0.00    -0.296 SA 
HETATM   21  O   UNL     1     -10.367  17.678  66.679  1.00  0.00    -0.336 OA 
HETATM   22  O   UNL     1     -10.792  16.487  64.816  1.00  0.00    -0.720 OA 
ENDBRANCH  10  14
ENDBRANCH   5   6
ENDBRANCH   4   5
TORSDOF 3
ENDMDL
MODEL       85
REMARK 921   NORMALIZED FREE ENERGY PREDICTED BY IDOCK:   -4.73 KCAL/MOL
REMARK 922        TOTAL FREE ENERGY PREDICTED BY IDOCK:   -6.25 KCAL/MOL
REMARK 923 INTER-LIGAND FREE ENERGY PREDICTED BY IDOCK:   -5.80 KCAL/MOL
REMARK 924 INTRA-LIGAND FREE ENERGY PREDICTED BY IDOCK:   -0.45 KCAL/MOL
REMARK 927      BINDING AFFINITY PREDICTED BY RF-SCORE:    0.00 PKD
ROOT
HETATM    1  C   UNL     1     -10.533   3.774  72.594  1.00  0.00    -0.194 C  
HETATM    2  C   UNL     1      -9.705   4.350  71.448  1.00  0.00    -0.248 C  
HETATM    3  C   UNL     1      -9.297   3.241  70.475  1.00  0.00    -0.228 C  
HETATM    4  C   UNL     1     -10.482   5.466  70.734  1.00  0.00    -0.247 C  
ENDROOT
BRANCH   4   5
HETATM    5  O   UNL     1      -9.693   5.956  69.649  1.00  0.00    -0.149 OA 
BRANCH   5   6
HETATM    6  C   UNL     1     -10.016   7.195  69.168  1.00  0.00    -0.168 A  
HETATM    7  C   UNL     1     -10.418   7.271  67.828  1.00  0.00    -0.292 A  
HETATM    8  C   UNL     1     -10.725   8.515  67.255  1.00  0.00    -0.219 A  
HETATM    9  C   UNL     1     -10.547   6.090  67.020  1.00  0.00    -0.316 C  
HETATM   10  C   UNL     1     -10.628   9.703  67.998  1.00  0.00    -0.292 A  
HETATM   11  N   UNL     1     -10.680   5.167  66.328  1.00  0.00    -0.287 NA 
HETATM   12  C   UNL     1      -9.909   8.371  69.914  1.00  0.00    -0.186 A  
HETATM   13  C   UNL     1     -10.211   9.610  69.333  1.00  0.00    -0.220 A  
BRANCH  10  14
HETATM   14  C   UNL     1     -10.930  11.023  67.415  1.00  0.00    -0.291 A  
HETATM   15  N   UNL     1     -11.230  12.105  68.106  1.00  0.00    -0.246 NA 
HETATM   16  C   UNL     1     -11.449  13.188  67.260  1.00  0.00    -0.331 A  
HETATM   17  C   UNL     1     -11.349  12.897  65.909  1.00  0.00    -0.312 A  
HETATM   18  C   UNL     1     -11.760  14.513  67.867  1.00  0.00    -0.381 C  
HETATM   19  C   UNL     1     -11.533  13.781  64.779  1.00  0.00    -0.356 C  
HETATM   20  S   UNL     1     -10.953  11.243  65.710  1.00  0.00    -0.078 SA 
HETATM   21  O   UNL     1     -11.831  14.965  64.846  1.00  0.00    -0.374 OA 
HETATM   22  O   UNL     1     -11.344  13.166  63.581  1.00  0.00    -0.383 OA 
ENDBRANCH  10  14
ENDBRANCH   5   6
ENDBRANCH   4   5
TORSDOF 3
ENDMDL
MODEL       86
REMARK 921   NORMALIZED FREE ENERGY PREDICTED BY IDOCK:   -4.73 KCAL/MOL
REMARK 922        TOTAL FREE ENERGY PREDICTED BY IDOCK:   -6.24 KCAL/MOL
REMARK 923 INTER-LIGAND FREE ENERGY PREDICTED BY IDOCK:   -5.77 KCAL/MOL
REMARK 924 INTRA-LIGAND FREE ENERGY PREDICTED BY IDOCK:   -0.48 KCAL/MOL
REMARK 927      BINDING AFFINITY PREDICTED BY RF-SCORE:    0.00 PKD
ROOT
HETATM    1  C   UNL     1     -11.264   2.846  73.474  1.00  0.00    -0.301 C  
HETATM    2  C   UNL     1     -10.088   3.658  72.934  1.00  0.00    -0.221 C  
HETATM    3  C   UNL     1      -9.330   2.857  71.872  1.00  0.00    -0.190 C  
HETATM    4  C   UNL     1     -10.578   5.004  72.379  1.00  0.00    -0.215 C  
ENDROOT
BRANCH   4   5
HETATM    5  O   UNL     1      -9.459   5.719  71.852  1.00  0.00    -0.151 OA 
BRANCH   5   6
HETATM    6  C   UNL     1      -9.739   6.747  70.994  1.00  0.00    -0.174 A  
HETATM    7  C   UNL     1      -9.489   8.045  71.457  1.00  0.00    -0.204 A  
HETATM    8  C   UNL     1      -9.791   9.152  70.646  1.00  0.00    -0.308 A  
HETATM    9  C   UNL     1      -8.904   8.278  72.748  1.00  0.00    -0.239 C  
HETATM   10  C   UNL     1     -10.353   8.987  69.370  1.00  0.00    -0.217 A  
HETATM   11  N   UNL     1      -8.421   8.521  73.776  1.00  0.00    -0.332 NA 
HETATM   12  C   UNL     1     -10.305   6.572  69.729  1.00  0.00    -0.234 A  
HETATM   13  C   UNL     1     -10.609   7.681  68.928  1.00  0.00    -0.176 A  
BRANCH  10  14
HETATM   14  C   UNL     1     -10.693  10.132  68.505  1.00  0.00    -0.230 A  
HETATM   15  N   UNL     1     -10.539  10.164  67.196  1.00  0.00    -0.253 NA 
HETATM   16  C   UNL     1     -10.965  11.384  66.678  1.00  0.00    -0.285 A  
HETATM   17  C   UNL     1     -11.408  12.293  67.625  1.00  0.00    -0.311 A  
HETATM   18  C   UNL     1     -10.906  11.588  65.203  1.00  0.00    -0.326 C  
HETATM   19  C   UNL     1     -11.896  13.640  67.424  1.00  0.00    -0.393 C  
HETATM   20  S   UNL     1     -11.304  11.589  69.183  1.00  0.00    -0.314 SA 
HETATM   21  O   UNL     1     -11.983  14.210  66.346  1.00  0.00    -0.400 OA 
HETATM   22  O   UNL     1     -12.265  14.253  68.581  1.00  0.00    -0.291 OA 
ENDBRANCH  10  14
ENDBRANCH   5   6
ENDBRANCH   4   5
TORSDOF 3
ENDMDL
MODEL       87
REMARK 921   NORMALIZED FREE ENERGY PREDICTED BY IDOCK:   -4.70 KCAL/MOL
REMARK 922        TOTAL FREE ENERGY PREDICTED BY IDOCK:   -6.22 KCAL/MOL
REMARK 923 INTER-LIGAND FREE ENERGY PREDICTED BY IDOCK:   -5.96 KCAL/MOL
REMARK 924 INTRA-LIGAND FREE ENERGY PREDICTED BY IDOCK:   -0.25 KCAL/MOL
REMARK 927      BINDING AFFINITY PREDICTED BY RF-SCORE:    0.00 PKD
ROOT
HETATM    1  C   UNL     1      -6.727  20.916  66.710  1.00  0.00    -0.367 C  
HETATM    2  C   UNL     1      -7.575  19.895  65.955  1.00  0.00    -0.338 C  
HETATM    3  C   UNL     1      -6.687  18.801  65.359  1.00  0.00    -0.251 C  
HETATM    4  C   UNL     1      -8.650  19.304  66.880  1.00  0.00    -0.298 C  
ENDROOT
BRANCH   4   5
HETATM    5  O   UNL     1      -9.399  18.330  66.152  1.00  0.00    -0.469 OA 
BRANCH   5   6
HETATM    6  C   UNL     1      -9.177  17.019  66.475  1.00  0.00    -0.271 A  
HETATM    7  C   UNL     1      -9.956  16.062  65.814  1.00  0.00    -0.382 A  
HETATM    8  C   UNL     1      -9.811  14.700  66.125  1.00  0.00    -0.334 A  
HETATM    9  C   UNL     1     -10.898  16.439  64.797  1.00  0.00    -0.178 C  
HETATM   10  C   UNL     1      -8.899  14.270  67.102  1.00  0.00    -0.243 A  
HETATM   11  N   UNL     1     -11.663  16.688  63.959  1.00  0.00    -1.036 NA 
HETATM   12  C   UNL     1      -8.271  16.603  67.454  1.00  0.00    -0.189 A  
HETATM   13  C   UNL     1      -8.136  15.243  67.764  1.00  0.00    -0.158 A  
BRANCH  10  14
HETATM   14  C   UNL     1      -8.738  12.848  67.458  1.00  0.00    -0.190 A  
HETATM   15  N   UNL     1      -7.839  12.375  68.298  1.00  0.00    -0.144 NA 
HETATM   16  C   UNL     1      -7.958  10.994  68.424  1.00  0.00    -0.131 A  
HETATM   17  C   UNL     1      -8.940  10.422  67.630  1.00  0.00    -0.138 A  
HETATM   18  C   UNL     1      -7.048  10.285  69.368  1.00  0.00    -0.094 C  
HETATM   19  C   UNL     1      -9.306   9.028  67.512  1.00  0.00    -0.135 C  
HETATM   20  S   UNL     1      -9.733  11.647  66.734  1.00  0.00    -0.206 SA 
HETATM   21  O   UNL     1      -8.775   8.102  68.108  1.00  0.00    -0.135 OA 
HETATM   22  O   UNL     1     -10.333   8.815  66.645  1.00  0.00    -0.279 OA 
ENDBRANCH  10  14
ENDBRANCH   5   6
ENDBRANCH   4   5
TORSDOF 3
ENDMDL
MODEL       88
REMARK 921   NORMALIZED FREE ENERGY PREDICTED BY IDOCK:   -4.67 KCAL/MOL
REMARK 922        TOTAL FREE ENERGY PREDICTED BY IDOCK:   -6.18 KCAL/MOL
REMARK 923 INTER-LIGAND FREE ENERGY PREDICTED BY IDOCK:   -5.64 KCAL/MOL
REMARK 924 INTRA-LIGAND FREE ENERGY PREDICTED BY IDOCK:   -0.54 KCAL/MOL
REMARK 927      BINDING AFFINITY PREDICTED BY RF-SCORE:    0.00 PKD
ROOT
HETATM    1  C   UNL     1      -9.006   2.997  66.431  1.00  0.00    -0.159 C  
HETATM    2  C   UNL     1      -8.903   4.091  67.492  1.00  0.00    -0.131 C  
HETATM    3  C   UNL     1      -7.475   4.636  67.559  1.00  0.00    -0.078 C  
HETATM    4  C   UNL     1      -9.918   5.208  67.208  1.00  0.00    -0.186 C  
ENDROOT
BRANCH   4   5
HETATM    5  O   UNL     1      -9.769   6.228  68.197  1.00  0.00    -0.121 OA 
BRANCH   5   6
HETATM    6  C   UNL     1      -9.981   7.516  67.786  1.00  0.00    -0.171 A  
HETATM    7  C   UNL     1     -10.545   8.395  68.719  1.00  0.00    -0.154 A  
HETATM    8  C   UNL     1     -10.828   9.721  68.354  1.00  0.00    -0.244 A  
HETATM    9  C   UNL     1     -10.827   7.976  70.064  1.00  0.00    -0.235 C  
HETATM   10  C   UNL     1     -10.565  10.191  67.057  1.00  0.00    -0.290 A  
HETATM   11  N   UNL     1     -11.061   7.694  71.166  1.00  0.00    -0.247 NA 
HETATM   12  C   UNL     1      -9.721   7.971  66.491  1.00  0.00    -0.297 A  
HETATM   13  C   UNL     1     -10.012   9.294  66.132  1.00  0.00    -0.348 A  
BRANCH  10  14
HETATM   14  C   UNL     1     -10.867  11.574  66.644  1.00  0.00    -0.287 A  
HETATM   15  N   UNL     1     -10.647  12.648  67.377  1.00  0.00    -0.223 NA 
HETATM   16  C   UNL     1     -11.032  13.799  66.695  1.00  0.00    -0.296 A  
HETATM   17  C   UNL     1     -11.587  13.574  65.446  1.00  0.00    -0.316 A  
HETATM   18  C   UNL     1     -10.818  15.119  67.353  1.00  0.00    -0.302 C  
HETATM   19  C   UNL     1     -12.099  14.540  64.499  1.00  0.00    -0.484 C  
HETATM   20  S   UNL     1     -11.601  11.892  65.123  1.00  0.00    -0.149 SA 
HETATM   21  O   UNL     1     -12.135  15.750  64.668  1.00  0.00    -0.077 OA 
HETATM   22  O   UNL     1     -12.562  13.972  63.352  1.00  0.00    -0.845 OA 
ENDBRANCH  10  14
ENDBRANCH   5   6
ENDBRANCH   4   5
TORSDOF 3
ENDMDL
MODEL       89
REMARK 921   NORMALIZED FREE ENERGY PREDICTED BY IDOCK:   -4.67 KCAL/MOL
REMARK 922        TOTAL FREE ENERGY PREDICTED BY IDOCK:   -6.17 KCAL/MOL
REMARK 923 INTER-LIGAND FREE ENERGY PREDICTED BY IDOCK:   -5.91 KCAL/MOL
REMARK 924 INTRA-LIGAND FREE ENERGY PREDICTED BY IDOCK:   -0.26 KCAL/MOL
REMARK 927      BINDING AFFINITY PREDICTED BY RF-SCORE:    0.00 PKD
ROOT
HETATM    1  C   UNL     1      -7.294   3.613  70.776  1.00  0.00    -0.037 C  
HETATM    2  C   UNL     1      -8.494   4.109  69.971  1.00  0.00    -0.091 C  
HETATM    3  C   UNL     1      -9.628   3.083  70.019  1.00  0.00    -0.143 C  
HETATM    4  C   UNL     1      -8.954   5.480  70.486  1.00  0.00    -0.136 C  
ENDROOT
BRANCH   4   5
HETATM    5  O   UNL     1     -10.097   5.895  69.734  1.00  0.00    -0.171 OA 
BRANCH   5   6
HETATM    6  C   UNL     1     -10.446   7.214  69.828  1.00  0.00    -0.225 A  
HETATM    7  C   UNL     1     -11.327   7.566  70.858  1.00  0.00    -0.297 A  
HETATM    8  C   UNL     1     -11.761   8.895  70.990  1.00  0.00    -0.340 A  
HETATM    9  C   UNL     1     -11.789   6.594  71.810  1.00  0.00    -0.335 C  
HETATM   10  C   UNL     1     -11.335   9.891  70.097  1.00  0.00    -0.335 A  
HETATM   11  N   UNL     1     -12.181   5.852  72.613  1.00  0.00    -0.048 NA 
HETATM   12  C   UNL     1     -10.021   8.196  68.929  1.00  0.00    -0.198 A  
HETATM   13  C   UNL     1     -10.464   9.519  69.063  1.00  0.00    -0.229 A  
BRANCH  10  14
HETATM   14  C   UNL     1     -11.788  11.291  70.204  1.00  0.00    -0.364 A  
HETATM   15  N   UNL     1     -11.411  12.271  69.407  1.00  0.00    -0.282 NA 
HETATM   16  C   UNL     1     -12.027  13.466  69.768  1.00  0.00    -0.330 A  
HETATM   17  C   UNL     1     -12.847  13.382  70.881  1.00  0.00    -0.205 A  
HETATM   18  C   UNL     1     -11.754  14.682  68.950  1.00  0.00    -0.343 C  
HETATM   19  C   UNL     1     -13.612  14.430  71.520  1.00  0.00    -0.370 C  
HETATM   20  S   UNL     1     -12.856  11.771  71.462  1.00  0.00    -0.255 SA 
HETATM   21  O   UNL     1     -13.641  15.601  71.170  1.00  0.00    -0.582 OA 
HETATM   22  O   UNL     1     -14.327  13.995  72.592  1.00  0.00    -0.596 OA 
ENDBRANCH  10  14
ENDBRANCH   5   6
ENDBRANCH   4   5
TORSDOF 3
ENDMDL
MODEL       90
REMARK 921   NORMALIZED FREE ENERGY PREDICTED BY IDOCK:   -4.66 KCAL/MOL
REMARK 922        TOTAL FREE ENERGY PREDICTED BY IDOCK:   -6.17 KCAL/MOL
REMARK 923 INTER-LIGAND FREE ENERGY PREDICTED BY IDOCK:   -5.66 KCAL/MOL
REMARK 924 INTRA-LIGAND FREE ENERGY PREDICTED BY IDOCK:   -0.51 KCAL/MOL
REMARK 927      BINDING AFFINITY PREDICTED BY RF-SCORE:    0.00 PKD
ROOT
HETATM    1  C   UNL     1      -7.836   4.915  65.852  1.00  0.00    -0.095 C  
HETATM    2  C   UNL     1      -9.159   5.651  66.048  1.00  0.00    -0.164 C  
HETATM    3  C   UNL     1     -10.325   4.660  66.057  1.00  0.00    -0.318 C  
HETATM    4  C   UNL     1      -9.122   6.486  67.337  1.00  0.00    -0.112 C  
ENDROOT
BRANCH   4   5
HETATM    5  O   UNL     1     -10.385   7.131  67.506  1.00  0.00    -0.191 OA 
BRANCH   5   6
HETATM    6  C   UNL     1     -10.393   8.496  67.414  1.00  0.00    -0.286 A  
HETATM    7  C   UNL     1     -10.639   9.209  68.594  1.00  0.00    -0.207 A  
HETATM    8  C   UNL     1     -10.703  10.612  68.567  1.00  0.00    -0.252 A  
HETATM    9  C   UNL     1     -10.810   8.536  69.851  1.00  0.00    -0.205 C  
HETATM   10  C   UNL     1     -10.533  11.326  67.370  1.00  0.00    -0.247 A  
HETATM   11  N   UNL     1     -10.940   8.044  70.895  1.00  0.00    -0.239 NA 
HETATM   12  C   UNL     1     -10.230   9.195  66.215  1.00  0.00    -0.257 A  
HETATM   13  C   UNL     1     -10.302  10.595  66.196  1.00  0.00    -0.291 A  
BRANCH  10  14
HETATM   14  C   UNL     1     -10.611  12.797  67.312  1.00  0.00    -0.233 A  
HETATM   15  N   UNL     1     -10.473  13.520  66.219  1.00  0.00    -0.285 NA 
HETATM   16  C   UNL     1     -10.611  14.876  66.501  1.00  0.00    -0.306 A  
HETATM   17  C   UNL     1     -10.816  15.171  67.839  1.00  0.00    -0.291 A  
HETATM   18  C   UNL     1     -10.528  15.849  65.375  1.00  0.00    -0.429 C  
HETATM   19  C   UNL     1     -10.980  16.465  68.463  1.00  0.00    -0.350 C  
HETATM   20  S   UNL     1     -10.856  13.717  68.744  1.00  0.00    -0.253 SA 
HETATM   21  O   UNL     1     -10.948  17.542  67.884  1.00  0.00    -0.323 OA 
HETATM   22  O   UNL     1     -11.180  16.391  69.807  1.00  0.00    -0.325 OA 
ENDBRANCH  10  14
ENDBRANCH   5   6
ENDBRANCH   4   5
TORSDOF 3
ENDMDL
MODEL       91
REMARK 921   NORMALIZED FREE ENERGY PREDICTED BY IDOCK:   -4.65 KCAL/MOL
REMARK 922        TOTAL FREE ENERGY PREDICTED BY IDOCK:   -6.16 KCAL/MOL
REMARK 923 INTER-LIGAND FREE ENERGY PREDICTED BY IDOCK:   -5.62 KCAL/MOL
REMARK 924 INTRA-LIGAND FREE ENERGY PREDICTED BY IDOCK:   -0.53 KCAL/MOL
REMARK 927      BINDING AFFINITY PREDICTED BY RF-SCORE:    0.00 PKD
ROOT
HETATM    1  C   UNL     1     -10.784  19.917  66.053  1.00  0.00    -0.446 C  
HETATM    2  C   UNL     1      -9.634  18.915  66.124  1.00  0.00    -0.266 C  
HETATM    3  C   UNL     1      -8.853  19.092  67.428  1.00  0.00    -0.312 C  
HETATM    4  C   UNL     1     -10.164  17.480  65.977  1.00  0.00    -0.299 C  
ENDROOT
BRANCH   4   5
HETATM    5  O   UNL     1      -9.067  16.570  66.084  1.00  0.00    -0.294 OA 
BRANCH   5   6
HETATM    6  C   UNL     1      -9.371  15.284  66.435  1.00  0.00    -0.296 A  
HETATM    7  C   UNL     1      -8.855  14.820  67.651  1.00  0.00    -0.182 A  
HETATM    8  C   UNL     1      -9.092  13.496  68.057  1.00  0.00    -0.201 A  
HETATM    9  C   UNL     1      -8.097  15.679  68.518  1.00  0.00    -0.147 C  
HETATM   10  C   UNL     1      -9.835  12.612  67.258  1.00  0.00    -0.206 A  
HETATM   11  N   UNL     1      -7.491  16.335  69.260  1.00  0.00    -0.235 NA 
HETATM   12  C   UNL     1     -10.105  14.411  65.629  1.00  0.00    -0.377 A  
HETATM   13  C   UNL     1     -10.332  13.089  66.037  1.00  0.00    -0.293 A  
BRANCH  10  14
HETATM   14  C   UNL     1     -10.084  11.214  67.653  1.00  0.00    -0.179 A  
HETATM   15  N   UNL     1     -10.167  10.195  66.820  1.00  0.00    -0.221 NA 
HETATM   16  C   UNL     1     -10.398   9.009  67.511  1.00  0.00    -0.264 A  
HETATM   17  C   UNL     1     -10.532   9.154  68.882  1.00  0.00    -0.218 A  
HETATM   18  C   UNL     1     -10.479   7.739  66.734  1.00  0.00    -0.318 C  
HETATM   19  C   UNL     1     -10.791   8.135  69.876  1.00  0.00    -0.215 C  
HETATM   20  S   UNL     1     -10.339  10.802  69.303  1.00  0.00    -0.175 SA 
HETATM   21  O   UNL     1     -10.954   6.945  69.647  1.00  0.00    -0.245 OA 
HETATM   22  O   UNL     1     -10.847   8.626  71.144  1.00  0.00    -0.234 OA 
ENDBRANCH  10  14
ENDBRANCH   5   6
ENDBRANCH   4   5
TORSDOF 3
ENDMDL
MODEL       92
REMARK 921   NORMALIZED FREE ENERGY PREDICTED BY IDOCK:   -4.64 KCAL/MOL
REMARK 922        TOTAL FREE ENERGY PREDICTED BY IDOCK:   -6.14 KCAL/MOL
REMARK 923 INTER-LIGAND FREE ENERGY PREDICTED BY IDOCK:   -5.70 KCAL/MOL
REMARK 924 INTRA-LIGAND FREE ENERGY PREDICTED BY IDOCK:   -0.44 KCAL/MOL
REMARK 927      BINDING AFFINITY PREDICTED BY RF-SCORE:    0.00 PKD
ROOT
HETATM    1  C   UNL     1      -8.471   3.047  66.703  1.00  0.00    -0.103 C  
HETATM    2  C   UNL     1      -9.098   4.139  67.567  1.00  0.00    -0.161 C  
HETATM    3  C   UNL     1      -8.691   3.960  69.031  1.00  0.00    -0.133 C  
HETATM    4  C   UNL     1      -8.707   5.528  67.040  1.00  0.00    -0.108 C  
ENDROOT
BRANCH   4   5
HETATM    5  O   UNL     1      -9.282   6.522  67.892  1.00  0.00    -0.114 OA 
BRANCH   5   6
HETATM    6  C   UNL     1      -9.523   7.745  67.329  1.00  0.00    -0.148 A  
HETATM    7  C   UNL     1     -10.239   8.669  68.101  1.00  0.00    -0.250 A  
HETATM    8  C   UNL     1     -10.559   9.929  67.572  1.00  0.00    -0.333 A  
HETATM    9  C   UNL     1     -10.641   8.364  69.446  1.00  0.00    -0.197 C  
HETATM   10  C   UNL     1     -10.182  10.289  66.268  1.00  0.00    -0.287 A  
HETATM   11  N   UNL     1     -10.978   8.174  70.541  1.00  0.00    -0.242 NA 
HETATM   12  C   UNL     1      -9.150   8.089  66.027  1.00  0.00    -0.193 A  
HETATM   13  C   UNL     1      -9.479   9.347  65.504  1.00  0.00    -0.328 A  
BRANCH  10  14
HETATM   14  C   UNL     1     -10.519  11.600  65.684  1.00  0.00    -0.268 A  
HETATM   15  N   UNL     1     -11.319  11.786  64.652  1.00  0.00    -0.288 NA 
HETATM   16  C   UNL     1     -11.438  13.141  64.357  1.00  0.00    -0.366 A  
HETATM   17  C   UNL     1     -10.679  13.978  65.159  1.00  0.00    -0.382 A  
HETATM   18  C   UNL     1     -12.339  13.549  63.242  1.00  0.00    -0.150 C  
HETATM   19  C   UNL     1     -10.563  15.419  65.106  1.00  0.00    -0.434 C  
HETATM   20  S   UNL     1      -9.826  13.042  66.312  1.00  0.00    -0.270 SA 
HETATM   21  O   UNL     1     -11.129  16.147  64.303  1.00  0.00    -0.653 OA 
HETATM   22  O   UNL     1      -9.736  15.926  66.059  1.00  0.00    -0.293 OA 
ENDBRANCH  10  14
ENDBRANCH   5   6
ENDBRANCH   4   5
TORSDOF 3
ENDMDL
MODEL       93
REMARK 921   NORMALIZED FREE ENERGY PREDICTED BY IDOCK:   -4.61 KCAL/MOL
REMARK 922        TOTAL FREE ENERGY PREDICTED BY IDOCK:   -6.11 KCAL/MOL
REMARK 923 INTER-LIGAND FREE ENERGY PREDICTED BY IDOCK:   -5.42 KCAL/MOL
REMARK 924 INTRA-LIGAND FREE ENERGY PREDICTED BY IDOCK:   -0.69 KCAL/MOL
REMARK 927      BINDING AFFINITY PREDICTED BY RF-SCORE:    0.00 PKD
ROOT
HETATM    1  C   UNL     1     -12.573  12.309  63.473  1.00  0.00    -0.589 C  
HETATM    2  C   UNL     1     -11.301  11.803  64.149  1.00  0.00    -0.430 C  
HETATM    3  C   UNL     1     -10.247  11.442  63.099  1.00  0.00    -0.380 C  
HETATM    4  C   UNL     1     -10.770  12.848  65.142  1.00  0.00    -0.305 C  
ENDROOT
BRANCH   4   5
HETATM    5  O   UNL     1      -9.562  12.356  65.727  1.00  0.00    -0.236 OA 
BRANCH   5   6
HETATM    6  C   UNL     1      -9.696  11.391  66.686  1.00  0.00    -0.200 A  
HETATM    7  C   UNL     1      -8.809  10.309  66.625  1.00  0.00    -0.148 A  
HETATM    8  C   UNL     1      -8.913   9.260  67.552  1.00  0.00    -0.127 A  
HETATM    9  C   UNL     1      -7.766  10.253  65.638  1.00  0.00    -0.148 C  
HETATM   10  C   UNL     1      -9.905   9.263  68.547  1.00  0.00    -0.173 A  
HETATM   11  N   UNL     1      -6.898  10.166  64.871  1.00  0.00    -0.133 NA 
HETATM   12  C   UNL     1     -10.691  11.401  67.667  1.00  0.00    -0.261 A  
HETATM   13  C   UNL     1     -10.793  10.347  68.585  1.00  0.00    -0.270 A  
BRANCH  10  14
HETATM   14  C   UNL     1     -10.046   8.167  69.523  1.00  0.00    -0.193 A  
HETATM   15  N   UNL     1      -9.942   6.884  69.239  1.00  0.00    -0.157 NA 
HETATM   16  C   UNL     1     -10.116   6.109  70.383  1.00  0.00    -0.189 A  
HETATM   17  C   UNL     1     -10.395   6.829  71.533  1.00  0.00    -0.208 A  
HETATM   18  C   UNL     1      -9.990   4.629  70.264  1.00  0.00    -0.309 C  
HETATM   19  C   UNL     1     -10.644   6.334  72.869  1.00  0.00    -0.233 C  
HETATM   20  S   UNL     1     -10.416   8.502  71.168  1.00  0.00    -0.237 SA 
HETATM   21  O   UNL     1     -10.660   5.157  73.199  1.00  0.00    -0.194 OA 
HETATM   22  O   UNL     1     -10.872   7.324  73.774  1.00  0.00    -0.300 OA 
ENDBRANCH  10  14
ENDBRANCH   5   6
ENDBRANCH   4   5
TORSDOF 3
ENDMDL
MODEL       94
REMARK 921   NORMALIZED FREE ENERGY PREDICTED BY IDOCK:   -4.61 KCAL/MOL
REMARK 922        TOTAL FREE ENERGY PREDICTED BY IDOCK:   -6.10 KCAL/MOL
REMARK 923 INTER-LIGAND FREE ENERGY PREDICTED BY IDOCK:   -5.76 KCAL/MOL
REMARK 924 INTRA-LIGAND FREE ENERGY PREDICTED BY IDOCK:   -0.34 KCAL/MOL
REMARK 927      BINDING AFFINITY PREDICTED BY RF-SCORE:    0.00 PKD
ROOT
HETATM    1  C   UNL     1     -10.959   6.102  69.895  1.00  0.00    -0.458 C  
HETATM    2  C   UNL     1     -10.017   6.879  68.978  1.00  0.00    -0.160 C  
HETATM    3  C   UNL     1      -8.587   6.352  69.113  1.00  0.00    -0.125 C  
HETATM    4  C   UNL     1     -10.507   6.809  67.524  1.00  0.00    -0.239 C  
ENDROOT
BRANCH   4   5
HETATM    5  O   UNL     1      -9.585   7.515  66.692  1.00  0.00    -0.187 OA 
BRANCH   5   6
HETATM    6  C   UNL     1      -9.844   8.841  66.478  1.00  0.00    -0.279 A  
HETATM    7  C   UNL     1      -9.249   9.431  65.356  1.00  0.00    -0.305 A  
HETATM    8  C   UNL     1      -9.438  10.798  65.096  1.00  0.00    -0.271 A  
HETATM    9  C   UNL     1      -8.457   8.659  64.439  1.00  0.00    -0.095 C  
HETATM   10  C   UNL     1     -10.211  11.601  65.950  1.00  0.00    -0.277 A  
HETATM   11  N   UNL     1      -7.820   8.079  63.660  1.00  0.00    -0.139 NA 
HETATM   12  C   UNL     1     -10.610   9.632  67.339  1.00  0.00    -0.333 A  
HETATM   13  C   UNL     1     -10.788  10.997  67.077  1.00  0.00    -0.334 A  
BRANCH  10  14
HETATM   14  C   UNL     1     -10.412  13.041  65.709  1.00  0.00    -0.280 A  
HETATM   15  N   UNL     1     -11.216  13.551  64.796  1.00  0.00    -0.337 NA 
HETATM   16  C   UNL     1     -11.187  14.942  64.832  1.00  0.00    -0.410 A  
HETATM   17  C   UNL     1     -10.312  15.479  65.763  1.00  0.00    -0.363 A  
HETATM   18  C   UNL     1     -12.069  15.696  63.897  1.00  0.00     0.276 C  
HETATM   19  C   UNL     1     -10.032  16.871  66.041  1.00  0.00    -0.293 C  
HETATM   20  S   UNL     1      -9.537  14.211  66.615  1.00  0.00    -0.297 SA 
HETATM   21  O   UNL     1     -10.535  17.824  65.465  1.00  0.00    -0.646 OA 
HETATM   22  O   UNL     1      -9.123  17.046  67.038  1.00  0.00    -0.211 OA 
ENDBRANCH  10  14
ENDBRANCH   5   6
ENDBRANCH   4   5
TORSDOF 3
ENDMDL
MODEL       95
REMARK 921   NORMALIZED FREE ENERGY PREDICTED BY IDOCK:   -4.59 KCAL/MOL
REMARK 922        TOTAL FREE ENERGY PREDICTED BY IDOCK:   -6.09 KCAL/MOL
REMARK 923 INTER-LIGAND FREE ENERGY PREDICTED BY IDOCK:   -5.61 KCAL/MOL
REMARK 924 INTRA-LIGAND FREE ENERGY PREDICTED BY IDOCK:   -0.48 KCAL/MOL
REMARK 927      BINDING AFFINITY PREDICTED BY RF-SCORE:    0.00 PKD
ROOT
HETATM    1  C   UNL     1      -9.231   7.280  69.024  1.00  0.00    -0.139 C  
HETATM    2  C   UNL     1      -9.675   8.094  67.811  1.00  0.00    -0.193 C  
HETATM    3  C   UNL     1     -10.453   7.212  66.832  1.00  0.00    -0.364 C  
HETATM    4  C   UNL     1     -10.507   9.307  68.256  1.00  0.00    -0.215 C  
ENDROOT
BRANCH   4   5
HETATM    5  O   UNL     1     -10.934  10.024  67.096  1.00  0.00    -0.226 OA 
BRANCH   5   6
HETATM    6  C   UNL     1     -10.731  11.377  67.104  1.00  0.00    -0.249 A  
HETATM    7  C   UNL     1      -9.617  11.855  66.402  1.00  0.00    -0.239 A  
HETATM    8  C   UNL     1      -9.324  13.228  66.400  1.00  0.00    -0.185 A  
HETATM    9  C   UNL     1      -8.768  10.969  65.656  1.00  0.00    -0.157 C  
HETATM   10  C   UNL     1     -10.123  14.145  67.101  1.00  0.00    -0.258 A  
HETATM   11  N   UNL     1      -8.058  10.299  65.026  1.00  0.00    -0.146 NA 
HETATM   12  C   UNL     1     -11.529  12.279  67.811  1.00  0.00    -0.392 A  
HETATM   13  C   UNL     1     -11.226  13.647  67.810  1.00  0.00    -0.310 A  
BRANCH  10  14
HETATM   14  C   UNL     1      -9.828  15.589  67.128  1.00  0.00    -0.235 A  
HETATM   15  N   UNL     1      -9.067  16.189  68.022  1.00  0.00    -0.189 NA 
HETATM   16  C   UNL     1      -8.980  17.554  67.761  1.00  0.00    -0.245 A  
HETATM   17  C   UNL     1      -9.725  17.985  66.675  1.00  0.00    -0.332 A  
HETATM   18  C   UNL     1      -8.124  18.394  68.646  1.00  0.00    -0.319 C  
HETATM   19  C   UNL     1      -9.866  19.326  66.152  1.00  0.00    -0.367 C  
HETATM   20  S   UNL     1     -10.523  16.647  65.965  1.00  0.00    -0.252 SA 
HETATM   21  O   UNL     1      -9.339  20.327  66.616  1.00  0.00    -0.361 OA 
HETATM   22  O   UNL     1     -10.668  19.392  65.056  1.00  0.00    -0.234 OA 
ENDBRANCH  10  14
ENDBRANCH   5   6
ENDBRANCH   4   5
TORSDOF 3
ENDMDL
MODEL       96
REMARK 921   NORMALIZED FREE ENERGY PREDICTED BY IDOCK:   -4.54 KCAL/MOL
REMARK 922        TOTAL FREE ENERGY PREDICTED BY IDOCK:   -6.03 KCAL/MOL
REMARK 923 INTER-LIGAND FREE ENERGY PREDICTED BY IDOCK:   -5.57 KCAL/MOL
REMARK 924 INTRA-LIGAND FREE ENERGY PREDICTED BY IDOCK:   -0.46 KCAL/MOL
REMARK 927      BINDING AFFINITY PREDICTED BY RF-SCORE:    0.00 PKD
ROOT
HETATM    1  C   UNL     1      -8.456   6.653  67.627  1.00  0.00    -0.121 C  
HETATM    2  C   UNL     1      -9.500   7.679  67.191  1.00  0.00    -0.196 C  
HETATM    3  C   UNL     1     -10.876   7.021  67.069  1.00  0.00    -0.413 C  
HETATM    4  C   UNL     1      -9.528   8.862  68.171  1.00  0.00    -0.143 C  
ENDROOT
BRANCH   4   5
HETATM    5  O   UNL     1     -10.538   9.783  67.753  1.00  0.00    -0.233 OA 
BRANCH   5   6
HETATM    6  C   UNL     1     -10.212  11.110  67.794  1.00  0.00    -0.180 A  
HETATM    7  C   UNL     1     -10.893  11.903  68.726  1.00  0.00    -0.270 A  
HETATM    8  C   UNL     1     -10.639  13.282  68.795  1.00  0.00    -0.224 A  
HETATM    9  C   UNL     1     -11.842  11.331  69.640  1.00  0.00    -0.360 C  
HETATM   10  C   UNL     1      -9.713  13.896  67.936  1.00  0.00    -0.231 A  
HETATM   11  N   UNL     1     -12.608  10.918  70.410  1.00  0.00    -0.314 NA 
HETATM   12  C   UNL     1      -9.294  11.712  66.928  1.00  0.00    -0.195 A  
HETATM   13  C   UNL     1      -9.051  13.090  66.999  1.00  0.00    -0.230 A  
BRANCH  10  14
HETATM   14  C   UNL     1      -9.440  15.345  67.978  1.00  0.00    -0.201 A  
HETATM   15  N   UNL     1      -8.314  15.890  68.394  1.00  0.00    -0.168 NA 
HETATM   16  C   UNL     1      -8.372  17.278  68.297  1.00  0.00    -0.242 A  
HETATM   17  C   UNL     1      -9.580  17.777  67.838  1.00  0.00    -0.280 A  
HETATM   18  C   UNL     1      -7.168  18.068  68.685  1.00  0.00    -0.276 C  
HETATM   19  C   UNL     1      -9.970  19.155  67.640  1.00  0.00    -0.357 C  
HETATM   20  S   UNL     1     -10.644  16.477  67.505  1.00  0.00    -0.288 SA 
HETATM   21  O   UNL     1      -9.271  20.131  67.870  1.00  0.00    -0.328 OA 
HETATM   22  O   UNL     1     -11.235  19.290  67.158  1.00  0.00    -0.324 OA 
ENDBRANCH  10  14
ENDBRANCH   5   6
ENDBRANCH   4   5
TORSDOF 3
ENDMDL
MODEL       97
REMARK 921   NORMALIZED FREE ENERGY PREDICTED BY IDOCK:   -4.53 KCAL/MOL
REMARK 922        TOTAL FREE ENERGY PREDICTED BY IDOCK:   -6.01 KCAL/MOL
REMARK 923 INTER-LIGAND FREE ENERGY PREDICTED BY IDOCK:   -5.49 KCAL/MOL
REMARK 924 INTRA-LIGAND FREE ENERGY PREDICTED BY IDOCK:   -0.52 KCAL/MOL
REMARK 927      BINDING AFFINITY PREDICTED BY RF-SCORE:    0.00 PKD
ROOT
HETATM    1  C   UNL     1      -9.191   3.370  69.524  1.00  0.00    -0.225 C  
HETATM    2  C   UNL     1      -9.256   4.687  70.294  1.00  0.00    -0.195 C  
HETATM    3  C   UNL     1      -7.884   5.031  70.878  1.00  0.00    -0.087 C  
HETATM    4  C   UNL     1      -9.779   5.811  69.387  1.00  0.00    -0.155 C  
ENDROOT
BRANCH   4   5
HETATM    5  O   UNL     1      -9.792   7.032  70.129  1.00  0.00    -0.175 OA 
BRANCH   5   6
HETATM    6  C   UNL     1      -9.823   8.190  69.402  1.00  0.00    -0.182 A  
HETATM    7  C   UNL     1      -9.048   9.257  69.875  1.00  0.00    -0.203 A  
HETATM    8  C   UNL     1      -9.062  10.489  69.202  1.00  0.00    -0.177 A  
HETATM    9  C   UNL     1      -8.210   9.115  71.033  1.00  0.00    -0.137 C  
HETATM   10  C   UNL     1      -9.852  10.685  68.058  1.00  0.00    -0.177 A  
HETATM   11  N   UNL     1      -7.506   9.050  71.955  1.00  0.00    -0.336 NA 
HETATM   12  C   UNL     1     -10.619   8.376  68.269  1.00  0.00    -0.163 A  
HETATM   13  C   UNL     1     -10.633   9.611  67.607  1.00  0.00    -0.334 A  
BRANCH  10  14
HETATM   14  C   UNL     1      -9.897  11.973  67.342  1.00  0.00    -0.184 A  
HETATM   15  N   UNL     1      -9.078  12.985  67.553  1.00  0.00    -0.181 NA 
HETATM   16  C   UNL     1      -9.379  14.049  66.707  1.00  0.00    -0.277 A  
HETATM   17  C   UNL     1     -10.470  13.840  65.879  1.00  0.00    -0.297 A  
HETATM   18  C   UNL     1      -8.528  15.271  66.772  1.00  0.00    -0.290 C  
HETATM   19  C   UNL     1     -11.050  14.740  64.907  1.00  0.00    -0.407 C  
HETATM   20  S   UNL     1     -11.106  12.275  66.158  1.00  0.00    -0.326 SA 
HETATM   21  O   UNL     1     -10.659  15.873  64.666  1.00  0.00    -0.525 OA 
HETATM   22  O   UNL     1     -12.115  14.206  64.250  1.00  0.00    -0.454 OA 
ENDBRANCH  10  14
ENDBRANCH   5   6
ENDBRANCH   4   5
TORSDOF 3
ENDMDL
MODEL       98
REMARK 921   NORMALIZED FREE ENERGY PREDICTED BY IDOCK:   -4.50 KCAL/MOL
REMARK 922        TOTAL FREE ENERGY PREDICTED BY IDOCK:   -5.98 KCAL/MOL
REMARK 923 INTER-LIGAND FREE ENERGY PREDICTED BY IDOCK:   -5.44 KCAL/MOL
REMARK 924 INTRA-LIGAND FREE ENERGY PREDICTED BY IDOCK:   -0.54 KCAL/MOL
REMARK 927      BINDING AFFINITY PREDICTED BY RF-SCORE:    0.00 PKD
ROOT
HETATM    1  C   UNL     1     -10.913   3.829  73.632  1.00  0.00    -0.334 C  
HETATM    2  C   UNL     1      -9.846   4.412  72.709  1.00  0.00    -0.194 C  
HETATM    3  C   UNL     1      -9.497   3.416  71.601  1.00  0.00    -0.219 C  
HETATM    4  C   UNL     1     -10.316   5.755  72.130  1.00  0.00    -0.205 C  
ENDROOT
BRANCH   4   5
HETATM    5  O   UNL     1      -9.310   6.253  71.245  1.00  0.00    -0.156 OA 
BRANCH   5   6
HETATM    6  C   UNL     1      -9.679   7.270  70.408  1.00  0.00    -0.172 A  
HETATM    7  C   UNL     1      -9.486   7.063  69.036  1.00  0.00    -0.138 A  
HETATM    8  C   UNL     1      -9.804   8.080  68.121  1.00  0.00    -0.195 A  
HETATM    9  C   UNL     1      -8.986   5.815  68.532  1.00  0.00    -0.112 C  
HETATM   10  C   UNL     1     -10.308   9.317  68.553  1.00  0.00    -0.237 A  
HETATM   11  N   UNL     1      -8.598   4.822  68.071  1.00  0.00    -0.102 NA 
HETATM   12  C   UNL     1     -10.172   8.500  70.850  1.00  0.00    -0.246 A  
HETATM   13  C   UNL     1     -10.481   9.512  69.931  1.00  0.00    -0.269 A  
BRANCH  10  14
HETATM   14  C   UNL     1     -10.635  10.406  67.614  1.00  0.00    -0.257 A  
HETATM   15  N   UNL     1     -10.429  10.370  66.312  1.00  0.00    -0.197 NA 
HETATM   16  C   UNL     1     -10.857  11.550  65.710  1.00  0.00    -0.262 A  
HETATM   17  C   UNL     1     -11.353  12.500  66.588  1.00  0.00    -0.334 A  
HETATM   18  C   UNL     1     -10.743  11.675  64.230  1.00  0.00    -0.398 C  
HETATM   19  C   UNL     1     -11.857  13.824  66.294  1.00  0.00    -0.398 C  
HETATM   20  S   UNL     1     -11.298  11.885  68.185  1.00  0.00    -0.315 SA 
HETATM   21  O   UNL     1     -11.912  14.332  65.184  1.00  0.00    -0.363 OA 
HETATM   22  O   UNL     1     -12.283  14.493  67.400  1.00  0.00    -0.333 OA 
ENDBRANCH  10  14
ENDBRANCH   5   6
ENDBRANCH   4   5
TORSDOF 3
ENDMDL
MODEL       99
REMARK 921   NORMALIZED FREE ENERGY PREDICTED BY IDOCK:   -4.47 KCAL/MOL
REMARK 922        TOTAL FREE ENERGY PREDICTED BY IDOCK:   -5.95 KCAL/MOL
REMARK 923 INTER-LIGAND FREE ENERGY PREDICTED BY IDOCK:   -5.67 KCAL/MOL
REMARK 924 INTRA-LIGAND FREE ENERGY PREDICTED BY IDOCK:   -0.28 KCAL/MOL
REMARK 927      BINDING AFFINITY PREDICTED BY RF-SCORE:    0.00 PKD
ROOT
HETATM    1  C   UNL     1      -8.747  15.878  67.431  1.00  0.00    -0.197 C  
HETATM    2  C   UNL     1      -9.927  14.911  67.498  1.00  0.00    -0.219 C  
HETATM    3  C   UNL     1     -11.216  15.665  67.836  1.00  0.00    -0.328 C  
HETATM    4  C   UNL     1     -10.060  14.136  66.179  1.00  0.00    -0.313 C  
ENDROOT
BRANCH   4   5
HETATM    5  O   UNL     1     -11.193  13.269  66.265  1.00  0.00    -0.291 OA 
BRANCH   5   6
HETATM    6  C   UNL     1     -10.958  11.997  66.711  1.00  0.00    -0.285 A  
HETATM    7  C   UNL     1     -10.489  11.071  65.771  1.00  0.00    -0.290 A  
HETATM    8  C   UNL     1     -10.266   9.737  66.149  1.00  0.00    -0.278 A  
HETATM    9  C   UNL     1     -10.207  11.460  64.417  1.00  0.00    -0.308 C  
HETATM   10  C   UNL     1     -10.513   9.301  67.460  1.00  0.00    -0.338 A  
HETATM   11  N   UNL     1      -9.949  11.724  63.316  1.00  0.00    -0.427 NA 
HETATM   12  C   UNL     1     -11.215  11.573  68.017  1.00  0.00    -0.335 A  
HETATM   13  C   UNL     1     -10.996  10.238  68.385  1.00  0.00    -0.308 A  
BRANCH  10  14
HETATM   14  C   UNL     1     -10.301   7.903  67.878  1.00  0.00    -0.221 A  
HETATM   15  N   UNL     1     -10.457   7.448  69.106  1.00  0.00    -0.211 NA 
HETATM   16  C   UNL     1     -10.191   6.083  69.165  1.00  0.00    -0.204 A  
HETATM   17  C   UNL     1      -9.789   5.519  67.965  1.00  0.00    -0.139 A  
HETATM   18  C   UNL     1     -10.357   5.383  70.470  1.00  0.00    -0.344 C  
HETATM   19  C   UNL     1      -9.424   4.146  67.691  1.00  0.00    -0.180 C  
HETATM   20  S   UNL     1      -9.770   6.722  66.747  1.00  0.00    -0.161 SA 
HETATM   21  O   UNL     1      -9.400   3.240  68.512  1.00  0.00    -0.164 OA 
HETATM   22  O   UNL     1      -9.091   3.930  66.390  1.00  0.00    -0.129 OA 
ENDBRANCH  10  14
ENDBRANCH   5   6
ENDBRANCH   4   5
TORSDOF 3
ENDMDL
MODEL      100
REMARK 921   NORMALIZED FREE ENERGY PREDICTED BY IDOCK:   -4.45 KCAL/MOL
REMARK 922        TOTAL FREE ENERGY PREDICTED BY IDOCK:   -5.92 KCAL/MOL
REMARK 923 INTER-LIGAND FREE ENERGY PREDICTED BY IDOCK:   -5.37 KCAL/MOL
REMARK 924 INTRA-LIGAND FREE ENERGY PREDICTED BY IDOCK:   -0.55 KCAL/MOL
REMARK 927      BINDING AFFINITY PREDICTED BY RF-SCORE:    0.00 PKD
ROOT
HETATM    1  C   UNL     1      -8.643   5.347  67.904  1.00  0.00    -0.104 C  
HETATM    2  C   UNL     1      -9.652   6.250  67.196  1.00  0.00    -0.151 C  
HETATM    3  C   UNL     1     -10.975   6.275  67.965  1.00  0.00    -0.418 C  
HETATM    4  C   UNL     1      -9.076   7.663  67.023  1.00  0.00    -0.135 C  
ENDROOT
BRANCH   4   5
HETATM    5  O   UNL     1     -10.058   8.487  66.392  1.00  0.00    -0.279 OA 
BRANCH   5   6
HETATM    6  C   UNL     1     -10.141   9.782  66.824  1.00  0.00    -0.231 A  
HETATM    7  C   UNL     1      -9.755  10.778  65.918  1.00  0.00    -0.272 A  
HETATM    8  C   UNL     1      -9.774  12.128  66.306  1.00  0.00    -0.251 A  
HETATM    9  C   UNL     1      -9.355  10.454  64.577  1.00  0.00    -0.264 C  
HETATM   10  C   UNL     1     -10.167  12.507  67.600  1.00  0.00    -0.220 A  
HETATM   11  N   UNL     1      -9.037  10.248  63.479  1.00  0.00    -0.239 NA 
HETATM   12  C   UNL     1     -10.526  10.148  68.116  1.00  0.00    -0.243 A  
HETATM   13  C   UNL     1     -10.536  11.496  68.498  1.00  0.00    -0.236 A  
BRANCH  10  14
HETATM   14  C   UNL     1     -10.181  13.915  68.037  1.00  0.00    -0.246 A  
HETATM   15  N   UNL     1     -10.788  14.366  69.118  1.00  0.00    -0.257 NA 
HETATM   16  C   UNL     1     -10.602  15.739  69.253  1.00  0.00    -0.244 A  
HETATM   17  C   UNL     1      -9.875  16.329  68.231  1.00  0.00    -0.227 A  
HETATM   18  C   UNL     1     -11.182  16.421  70.444  1.00  0.00    -0.253 C  
HETATM   19  C   UNL     1      -9.522  17.721  68.062  1.00  0.00    -0.281 C  
HETATM   20  S   UNL     1      -9.405  15.131  67.101  1.00  0.00    -0.221 SA 
HETATM   21  O   UNL     1      -9.835  18.630  68.818  1.00  0.00    -0.368 OA 
HETATM   22  O   UNL     1      -8.783  17.955  66.944  1.00  0.00    -0.233 OA 
ENDBRANCH  10  14
ENDBRANCH   5   6
ENDBRANCH   4   5
TORSDOF 3
ENDMDL
MODEL      101
REMARK 921   NORMALIZED FREE ENERGY PREDICTED BY IDOCK:   -4.45 KCAL/MOL
REMARK 922        TOTAL FREE ENERGY PREDICTED BY IDOCK:   -5.92 KCAL/MOL
REMARK 923 INTER-LIGAND FREE ENERGY PREDICTED BY IDOCK:   -5.37 KCAL/MOL
REMARK 924 INTRA-LIGAND FREE ENERGY PREDICTED BY IDOCK:   -0.55 KCAL/MOL
REMARK 927      BINDING AFFINITY PREDICTED BY RF-SCORE:    0.00 PKD
ROOT
HETATM    1  C   UNL     1      -9.567  18.353  67.572  1.00  0.00    -0.293 C  
HETATM    2  C   UNL     1      -9.524  17.282  66.484  1.00  0.00    -0.286 C  
HETATM    3  C   UNL     1      -8.076  16.972  66.099  1.00  0.00    -0.292 C  
HETATM    4  C   UNL     1     -10.265  16.019  66.948  1.00  0.00    -0.280 C  
ENDROOT
BRANCH   4   5
HETATM    5  O   UNL     1     -10.173  15.028  65.922  1.00  0.00    -0.276 OA 
BRANCH   5   6
HETATM    6  C   UNL     1      -9.974  13.739  66.332  1.00  0.00    -0.297 A  
HETATM    7  C   UNL     1     -11.043  12.849  66.170  1.00  0.00    -0.314 A  
HETATM    8  C   UNL     1     -10.924  11.520  66.606  1.00  0.00    -0.349 A  
HETATM    9  C   UNL     1     -12.268  13.260  65.542  1.00  0.00    -0.457 C  
HETATM   10  C   UNL     1      -9.748  11.056  67.217  1.00  0.00    -0.188 A  
HETATM   11  N   UNL     1     -13.273  13.537  65.029  1.00  0.00    -0.590 NA 
HETATM   12  C   UNL     1      -8.801  13.291  66.945  1.00  0.00    -0.186 A  
HETATM   13  C   UNL     1      -8.692  11.964  67.383  1.00  0.00    -0.166 A  
BRANCH  10  14
HETATM   14  C   UNL     1      -9.603   9.670  67.697  1.00  0.00    -0.142 A  
HETATM   15  N   UNL     1     -10.571   8.775  67.729  1.00  0.00    -0.224 NA 
HETATM   16  C   UNL     1     -10.106   7.561  68.226  1.00  0.00    -0.183 A  
HETATM   17  C   UNL     1      -8.775   7.564  68.611  1.00  0.00    -0.128 A  
HETATM   18  C   UNL     1     -11.053   6.412  68.296  1.00  0.00    -0.359 C  
HETATM   19  C   UNL     1      -7.996   6.485  69.177  1.00  0.00    -0.111 C  
HETATM   20  S   UNL     1      -8.101   9.111  68.319  1.00  0.00    -0.104 SA 
HETATM   21  O   UNL     1      -8.414   5.363  69.425  1.00  0.00    -0.098 OA 
HETATM   22  O   UNL     1      -6.704   6.829  69.426  1.00  0.00    -0.046 OA 
ENDBRANCH  10  14
ENDBRANCH   5   6
ENDBRANCH   4   5
TORSDOF 3
ENDMDL
MODEL      102
REMARK 921   NORMALIZED FREE ENERGY PREDICTED BY IDOCK:   -4.43 KCAL/MOL
REMARK 922        TOTAL FREE ENERGY PREDICTED BY IDOCK:   -5.90 KCAL/MOL
REMARK 923 INTER-LIGAND FREE ENERGY PREDICTED BY IDOCK:   -5.34 KCAL/MOL
REMARK 924 INTRA-LIGAND FREE ENERGY PREDICTED BY IDOCK:   -0.55 KCAL/MOL
REMARK 927      BINDING AFFINITY PREDICTED BY RF-SCORE:    0.00 PKD
ROOT
HETATM    1  C   UNL     1      -6.083   6.586  72.430  1.00  0.00    -0.042 C  
HETATM    2  C   UNL     1      -7.526   6.562  71.931  1.00  0.00    -0.092 C  
HETATM    3  C   UNL     1      -8.470   7.112  73.003  1.00  0.00    -0.142 C  
HETATM    4  C   UNL     1      -7.650   7.348  70.617  1.00  0.00    -0.086 C  
ENDROOT
BRANCH   4   5
HETATM    5  O   UNL     1      -9.017   7.334  70.199  1.00  0.00    -0.147 OA 
BRANCH   5   6
HETATM    6  C   UNL     1      -9.397   8.307  69.316  1.00  0.00    -0.155 A  
HETATM    7  C   UNL     1     -10.438   9.155  69.716  1.00  0.00    -0.234 A  
HETATM    8  C   UNL     1     -10.908  10.150  68.844  1.00  0.00    -0.256 A  
HETATM    9  C   UNL     1     -11.031   9.046  71.019  1.00  0.00    -0.284 C  
HETATM   10  C   UNL     1     -10.360  10.313  67.561  1.00  0.00    -0.276 A  
HETATM   11  N   UNL     1     -11.535   9.009  72.065  1.00  0.00    -0.367 NA 
HETATM   12  C   UNL     1      -8.849   8.455  68.039  1.00  0.00    -0.142 A  
HETATM   13  C   UNL     1      -9.329   9.447  67.173  1.00  0.00    -0.172 A  
BRANCH  10  14
HETATM   14  C   UNL     1     -10.846  11.340  66.622  1.00  0.00    -0.273 A  
HETATM   15  N   UNL     1     -11.522  11.095  65.516  1.00  0.00     0.107 NA 
HETATM   16  C   UNL     1     -11.842  12.280  64.859  1.00  0.00    -0.358 A  
HETATM   17  C   UNL     1     -11.359  13.428  65.467  1.00  0.00    -0.293 A  
HETATM   18  C   UNL     1     -12.646  12.203  63.606  1.00  0.00    -0.616 C  
HETATM   19  C   UNL     1     -11.497  14.802  65.038  1.00  0.00    -0.389 C  
HETATM   20  S   UNL     1     -10.512  13.004  66.894  1.00  0.00    -0.256 SA 
HETATM   21  O   UNL     1     -12.073  15.176  64.027  1.00  0.00    -0.546 OA 
HETATM   22  O   UNL     1     -10.908  15.689  65.885  1.00  0.00    -0.326 OA 
ENDBRANCH  10  14
ENDBRANCH   5   6
ENDBRANCH   4   5
TORSDOF 3
ENDMDL
MODEL      103
REMARK 921   NORMALIZED FREE ENERGY PREDICTED BY IDOCK:   -4.43 KCAL/MOL
REMARK 922        TOTAL FREE ENERGY PREDICTED BY IDOCK:   -5.89 KCAL/MOL
REMARK 923 INTER-LIGAND FREE ENERGY PREDICTED BY IDOCK:   -5.50 KCAL/MOL
REMARK 924 INTRA-LIGAND FREE ENERGY PREDICTED BY IDOCK:   -0.39 KCAL/MOL
REMARK 927      BINDING AFFINITY PREDICTED BY RF-SCORE:    0.00 PKD
ROOT
HETATM    1  C   UNL     1     -12.387  12.998  63.188  1.00  0.00    -0.235 C  
HETATM    2  C   UNL     1     -11.580  13.351  64.435  1.00  0.00    -0.421 C  
HETATM    3  C   UNL     1     -12.513  13.779  65.570  1.00  0.00    -0.548 C  
HETATM    4  C   UNL     1     -10.694  12.167  64.852  1.00  0.00    -0.295 C  
ENDROOT
BRANCH   4   5
HETATM    5  O   UNL     1      -9.982  12.520  66.040  1.00  0.00    -0.250 OA 
BRANCH   5   6
HETATM    6  C   UNL     1     -10.160  11.705  67.125  1.00  0.00    -0.204 A  
HETATM    7  C   UNL     1      -9.013  11.352  67.847  1.00  0.00    -0.153 A  
HETATM    8  C   UNL     1      -9.113  10.485  68.947  1.00  0.00    -0.180 A  
HETATM    9  C   UNL     1      -7.721  11.875  67.499  1.00  0.00    -0.151 C  
HETATM   10  C   UNL     1     -10.350   9.951  69.342  1.00  0.00    -0.238 A  
HETATM   11  N   UNL     1      -6.657  12.280  67.269  1.00  0.00    -0.153 NA 
HETATM   12  C   UNL     1     -11.395  11.173  67.504  1.00  0.00    -0.351 A  
HETATM   13  C   UNL     1     -11.486  10.304  68.600  1.00  0.00    -0.178 A  
BRANCH  10  14
HETATM   14  C   UNL     1     -10.481   9.027  70.484  1.00  0.00    -0.223 A  
HETATM   15  N   UNL     1     -11.459   8.159  70.647  1.00  0.00    -0.264 NA 
HETATM   16  C   UNL     1     -11.284   7.431  71.821  1.00  0.00    -0.246 A  
HETATM   17  C   UNL     1     -10.174   7.793  72.567  1.00  0.00    -0.260 A  
HETATM   18  C   UNL     1     -12.275   6.367  72.152  1.00  0.00    -0.278 C  
HETATM   19  C   UNL     1      -9.720   7.253  73.830  1.00  0.00    -0.298 C  
HETATM   20  S   UNL     1      -9.333   9.050  71.764  1.00  0.00     0.005 SA 
HETATM   21  O   UNL     1     -10.277   6.369  74.464  1.00  0.00    -0.342 OA 
HETATM   22  O   UNL     1      -8.575   7.833  74.280  1.00  0.00    -0.235 OA 
ENDBRANCH  10  14
ENDBRANCH   5   6
ENDBRANCH   4   5
TORSDOF 3
ENDMDL
MODEL      104
REMARK 921   NORMALIZED FREE ENERGY PREDICTED BY IDOCK:   -4.42 KCAL/MOL
REMARK 922        TOTAL FREE ENERGY PREDICTED BY IDOCK:   -5.89 KCAL/MOL
REMARK 923 INTER-LIGAND FREE ENERGY PREDICTED BY IDOCK:   -5.38 KCAL/MOL
REMARK 924 INTRA-LIGAND FREE ENERGY PREDICTED BY IDOCK:   -0.51 KCAL/MOL
REMARK 927      BINDING AFFINITY PREDICTED BY RF-SCORE:    0.00 PKD
ROOT
HETATM    1  C   UNL     1      -6.691   5.372  63.646  1.00  0.00    -0.037 C  
HETATM    2  C   UNL     1      -8.083   5.604  64.229  1.00  0.00    -0.127 C  
HETATM    3  C   UNL     1      -8.913   4.320  64.155  1.00  0.00    -0.148 C  
HETATM    4  C   UNL     1      -7.979   6.124  65.671  1.00  0.00    -0.114 C  
ENDROOT
BRANCH   4   5
HETATM    5  O   UNL     1      -9.298   6.295  66.195  1.00  0.00    -0.155 OA 
BRANCH   5   6
HETATM    6  C   UNL     1      -9.620   7.545  66.645  1.00  0.00    -0.200 A  
HETATM    7  C   UNL     1     -10.227   7.630  67.904  1.00  0.00    -0.250 A  
HETATM    8  C   UNL     1     -10.623   8.878  68.412  1.00  0.00    -0.190 A  
HETATM    9  C   UNL     1     -10.438   6.460  68.711  1.00  0.00    -0.221 C  
HETATM   10  C   UNL     1     -10.432  10.058  67.675  1.00  0.00    -0.297 A  
HETATM   11  N   UNL     1     -10.619   5.549  69.409  1.00  0.00    -0.292 NA 
HETATM   12  C   UNL     1      -9.433   8.712  65.899  1.00  0.00    -0.243 A  
HETATM   13  C   UNL     1      -9.837   9.953  66.409  1.00  0.00    -0.288 A  
BRANCH  10  14
HETATM   14  C   UNL     1     -10.853  11.378  68.178  1.00  0.00    -0.213 A  
HETATM   15  N   UNL     1     -11.435  11.594  69.341  1.00  0.00    -0.283 NA 
HETATM   16  C   UNL     1     -11.694  12.950  69.521  1.00  0.00    -0.323 A  
HETATM   17  C   UNL     1     -11.335  13.754  68.451  1.00  0.00    -0.293 A  
HETATM   18  C   UNL     1     -12.313  13.392  70.802  1.00  0.00    -0.433 C  
HETATM   19  C   UNL     1     -11.482  15.186  68.310  1.00  0.00    -0.336 C  
HETATM   20  S   UNL     1     -10.642  12.789  67.218  1.00  0.00    -0.234 SA 
HETATM   21  O   UNL     1     -11.979  15.934  69.140  1.00  0.00    -0.380 OA 
HETATM   22  O   UNL     1     -11.005  15.660  67.127  1.00  0.00    -0.319 OA 
ENDBRANCH  10  14
ENDBRANCH   5   6
ENDBRANCH   4   5
TORSDOF 3
ENDMDL
MODEL      105
REMARK 921   NORMALIZED FREE ENERGY PREDICTED BY IDOCK:   -4.42 KCAL/MOL
REMARK 922        TOTAL FREE ENERGY PREDICTED BY IDOCK:   -5.88 KCAL/MOL
REMARK 923 INTER-LIGAND FREE ENERGY PREDICTED BY IDOCK:   -5.51 KCAL/MOL
REMARK 924 INTRA-LIGAND FREE ENERGY PREDICTED BY IDOCK:   -0.37 KCAL/MOL
REMARK 927      BINDING AFFINITY PREDICTED BY RF-SCORE:    0.00 PKD
ROOT
HETATM    1  C   UNL     1      -6.829   3.951  66.232  1.00  0.00    -0.057 C  
HETATM    2  C   UNL     1      -7.469   4.856  67.283  1.00  0.00    -0.083 C  
HETATM    3  C   UNL     1      -6.978   4.479  68.682  1.00  0.00    -0.052 C  
HETATM    4  C   UNL     1      -7.182   6.331  66.965  1.00  0.00    -0.075 C  
ENDROOT
BRANCH   4   5
HETATM    5  O   UNL     1      -7.764   7.144  67.985  1.00  0.00    -0.108 OA 
BRANCH   5   6
HETATM    6  C   UNL     1      -8.191   8.388  67.608  1.00  0.00    -0.126 A  
HETATM    7  C   UNL     1      -9.519   8.499  67.178  1.00  0.00    -0.208 A  
HETATM    8  C   UNL     1     -10.015   9.737  66.737  1.00  0.00    -0.278 A  
HETATM    9  C   UNL     1     -10.407   7.370  67.197  1.00  0.00    -0.307 C  
HETATM   10  C   UNL     1      -9.198  10.878  66.706  1.00  0.00    -0.174 A  
HETATM   11  N   UNL     1     -11.170   6.494  67.205  1.00  0.00    -0.334 NA 
HETATM   12  C   UNL     1      -7.367   9.516  67.575  1.00  0.00    -0.090 A  
HETATM   13  C   UNL     1      -7.867  10.746  67.127  1.00  0.00    -0.124 A  
BRANCH  10  14
HETATM   14  C   UNL     1      -9.689  12.186  66.233  1.00  0.00    -0.238 A  
HETATM   15  N   UNL     1      -9.190  13.354  66.585  1.00  0.00    -0.241 NA 
HETATM   16  C   UNL     1      -9.870  14.393  65.954  1.00  0.00    -0.310 A  
HETATM   17  C   UNL     1     -10.923  13.990  65.148  1.00  0.00    -0.353 A  
HETATM   18  C   UNL     1      -9.416  15.791  66.199  1.00  0.00    -0.375 C  
HETATM   19  C   UNL     1     -11.831  14.808  64.375  1.00  0.00    -0.380 C  
HETATM   20  S   UNL     1     -11.038  12.282  65.171  1.00  0.00    -0.327 SA 
HETATM   21  O   UNL     1     -11.817  16.030  64.323  1.00  0.00    -0.491 OA 
HETATM   22  O   UNL     1     -12.746  14.082  63.679  1.00  0.00    -0.778 OA 
ENDBRANCH  10  14
ENDBRANCH   5   6
ENDBRANCH   4   5
TORSDOF 3
ENDMDL
MODEL      106
REMARK 921   NORMALIZED FREE ENERGY PREDICTED BY IDOCK:   -4.41 KCAL/MOL
REMARK 922        TOTAL FREE ENERGY PREDICTED BY IDOCK:   -5.87 KCAL/MOL
REMARK 923 INTER-LIGAND FREE ENERGY PREDICTED BY IDOCK:   -5.38 KCAL/MOL
REMARK 924 INTRA-LIGAND FREE ENERGY PREDICTED BY IDOCK:   -0.49 KCAL/MOL
REMARK 927      BINDING AFFINITY PREDICTED BY RF-SCORE:    0.00 PKD
ROOT
HETATM    1  C   UNL     1      -6.921   6.843  64.352  1.00  0.00    -0.055 C  
HETATM    2  C   UNL     1      -6.946   8.368  64.423  1.00  0.00    -0.073 C  
HETATM    3  C   UNL     1      -6.396   8.971  63.128  1.00  0.00    -0.090 C  
HETATM    4  C   UNL     1      -8.368   8.867  64.716  1.00  0.00    -0.175 C  
ENDROOT
BRANCH   4   5
HETATM    5  O   UNL     1      -8.360  10.296  64.740  1.00  0.00    -0.164 OA 
BRANCH   5   6
HETATM    6  C   UNL     1      -9.092  10.896  65.728  1.00  0.00    -0.196 A  
HETATM    7  C   UNL     1      -8.376  11.511  66.763  1.00  0.00    -0.165 A  
HETATM    8  C   UNL     1      -9.061  12.111  67.832  1.00  0.00    -0.185 A  
HETATM    9  C   UNL     1      -6.940  11.562  66.750  1.00  0.00    -0.108 C  
HETATM   10  C   UNL     1     -10.464  12.102  67.894  1.00  0.00    -0.224 A  
HETATM   11  N   UNL     1      -5.782  11.644  66.782  1.00  0.00    -0.141 NA 
HETATM   12  C   UNL     1     -10.487  10.875  65.783  1.00  0.00    -0.275 A  
HETATM   13  C   UNL     1     -11.164  11.470  66.856  1.00  0.00    -0.363 A  
BRANCH  10  14
HETATM   14  C   UNL     1     -11.207  12.711  69.013  1.00  0.00    -0.269 A  
HETATM   15  N   UNL     1     -11.280  14.005  69.257  1.00  0.00    -0.261 NA 
HETATM   16  C   UNL     1     -12.067  14.252  70.379  1.00  0.00    -0.339 A  
HETATM   17  C   UNL     1     -12.555  13.117  71.006  1.00  0.00    -0.312 A  
HETATM   18  C   UNL     1     -12.300  15.667  70.785  1.00  0.00    -0.466 C  
HETATM   19  C   UNL     1     -13.379  13.025  72.191  1.00  0.00    -0.524 C  
HETATM   20  S   UNL     1     -12.032  11.726  70.155  1.00  0.00    -0.298 SA 
HETATM   21  O   UNL     1     -13.776  13.971  72.855  1.00  0.00    -0.677 OA 
HETATM   22  O   UNL     1     -13.693  11.744  72.527  1.00  0.00    -0.021 OA 
ENDBRANCH  10  14
ENDBRANCH   5   6
ENDBRANCH   4   5
TORSDOF 3
ENDMDL
MODEL      107
REMARK 921   NORMALIZED FREE ENERGY PREDICTED BY IDOCK:   -4.38 KCAL/MOL
REMARK 922        TOTAL FREE ENERGY PREDICTED BY IDOCK:   -5.83 KCAL/MOL
REMARK 923 INTER-LIGAND FREE ENERGY PREDICTED BY IDOCK:   -5.16 KCAL/MOL
REMARK 924 INTRA-LIGAND FREE ENERGY PREDICTED BY IDOCK:   -0.67 KCAL/MOL
REMARK 927      BINDING AFFINITY PREDICTED BY RF-SCORE:    0.00 PKD
ROOT
HETATM    1  C   UNL     1     -13.570   9.644  72.289  1.00  0.00    -0.449 C  
HETATM    2  C   UNL     1     -12.616   9.986  71.147  1.00  0.00    -0.480 C  
HETATM    3  C   UNL     1     -12.541  11.502  70.951  1.00  0.00    -0.438 C  
HETATM    4  C   UNL     1     -11.228   9.383  71.411  1.00  0.00    -0.381 C  
ENDROOT
BRANCH   4   5
HETATM    5  O   UNL     1     -10.355   9.752  70.342  1.00  0.00    -0.266 OA 
BRANCH   5   6
HETATM    6  C   UNL     1     -10.075   8.783  69.418  1.00  0.00    -0.203 A  
HETATM    7  C   UNL     1     -10.507   9.014  68.106  1.00  0.00    -0.257 A  
HETATM    8  C   UNL     1     -10.291   8.044  67.113  1.00  0.00    -0.395 A  
HETATM    9  C   UNL     1     -11.156  10.242  67.739  1.00  0.00    -0.269 C  
HETATM   10  C   UNL     1      -9.653   6.829  67.409  1.00  0.00    -0.158 A  
HETATM   11  N   UNL     1     -11.671  11.221  67.386  1.00  0.00    -0.584 NA 
HETATM   12  C   UNL     1      -9.445   7.574  69.725  1.00  0.00    -0.156 A  
HETATM   13  C   UNL     1      -9.239   6.609  68.730  1.00  0.00    -0.129 A  
BRANCH  10  14
HETATM   14  C   UNL     1      -9.428   5.789  66.389  1.00  0.00    -0.156 A  
HETATM   15  N   UNL     1     -10.379   5.138  65.749  1.00  0.00    -0.100 NA 
HETATM   16  C   UNL     1      -9.835   4.230  64.844  1.00  0.00    -0.175 A  
HETATM   17  C   UNL     1      -8.451   4.177  64.839  1.00  0.00    -0.115 A  
HETATM   18  C   UNL     1     -10.763   3.430  63.996  1.00  0.00    -0.180 C  
HETATM   19  C   UNL     1      -7.583   3.339  64.040  1.00  0.00    -0.075 C  
HETATM   20  S   UNL     1      -7.832   5.300  65.974  1.00  0.00    -0.104 SA 
HETATM   21  O   UNL     1      -7.954   2.508  63.224  1.00  0.00    -0.070 OA 
HETATM   22  O   UNL     1      -6.261   3.556  64.278  1.00  0.00    -0.022 OA 
ENDBRANCH  10  14
ENDBRANCH   5   6
ENDBRANCH   4   5
TORSDOF 3
ENDMDL
MODEL      108
REMARK 921   NORMALIZED FREE ENERGY PREDICTED BY IDOCK:   -4.35 KCAL/MOL
REMARK 922        TOTAL FREE ENERGY PREDICTED BY IDOCK:   -5.81 KCAL/MOL
REMARK 923 INTER-LIGAND FREE ENERGY PREDICTED BY IDOCK:   -5.48 KCAL/MOL
REMARK 924 INTRA-LIGAND FREE ENERGY PREDICTED BY IDOCK:   -0.32 KCAL/MOL
REMARK 927      BINDING AFFINITY PREDICTED BY RF-SCORE:    0.00 PKD
ROOT
HETATM    1  C   UNL     1     -12.357  14.212  64.382  1.00  0.00    -0.410 C  
HETATM    2  C   UNL     1     -11.236  13.942  65.383  1.00  0.00    -0.306 C  
HETATM    3  C   UNL     1     -10.548  15.251  65.779  1.00  0.00    -0.359 C  
HETATM    4  C   UNL     1     -11.783  13.201  66.612  1.00  0.00    -0.375 C  
ENDROOT
BRANCH   4   5
HETATM    5  O   UNL     1     -10.716  12.998  67.541  1.00  0.00    -0.234 OA 
BRANCH   5   6
HETATM    6  C   UNL     1     -10.684  11.791  68.183  1.00  0.00    -0.214 A  
HETATM    7  C   UNL     1     -10.036  10.739  67.524  1.00  0.00    -0.203 A  
HETATM    8  C   UNL     1     -10.000   9.461  68.104  1.00  0.00    -0.202 A  
HETATM    9  C   UNL     1      -9.378  10.940  66.262  1.00  0.00    -0.179 C  
HETATM   10  C   UNL     1     -10.615   9.205  69.340  1.00  0.00    -0.232 A  
HETATM   11  N   UNL     1      -8.820  11.052  65.250  1.00  0.00    -0.169 NA 
HETATM   12  C   UNL     1     -11.306  11.546  69.410  1.00  0.00    -0.355 A  
HETATM   13  C   UNL     1     -11.272  10.266  69.979  1.00  0.00    -0.376 A  
BRANCH  10  14
HETATM   14  C   UNL     1     -10.605   7.869  69.964  1.00  0.00    -0.242 A  
HETATM   15  N   UNL     1     -11.190   7.561  71.104  1.00  0.00    -0.253 NA 
HETATM   16  C   UNL     1     -11.004   6.216  71.409  1.00  0.00    -0.277 A  
HETATM   17  C   UNL     1     -10.230   5.517  70.497  1.00  0.00    -0.242 A  
HETATM   18  C   UNL     1     -11.633   5.674  72.647  1.00  0.00    -0.307 C  
HETATM   19  C   UNL     1      -9.836   4.126  70.526  1.00  0.00    -0.182 C  
HETATM   20  S   UNL     1      -9.752   6.567  69.231  1.00  0.00    -0.145 SA 
HETATM   21  O   UNL     1     -10.126   3.324  71.403  1.00  0.00    -0.114 OA 
HETATM   22  O   UNL     1      -9.081   3.760  69.456  1.00  0.00    -0.105 OA 
ENDBRANCH  10  14
ENDBRANCH   5   6
ENDBRANCH   4   5
TORSDOF 3
ENDMDL
MODEL      109
REMARK 921   NORMALIZED FREE ENERGY PREDICTED BY IDOCK:   -4.30 KCAL/MOL
REMARK 922        TOTAL FREE ENERGY PREDICTED BY IDOCK:   -5.74 KCAL/MOL
REMARK 923 INTER-LIGAND FREE ENERGY PREDICTED BY IDOCK:   -5.19 KCAL/MOL
REMARK 924 INTRA-LIGAND FREE ENERGY PREDICTED BY IDOCK:   -0.55 KCAL/MOL
REMARK 927      BINDING AFFINITY PREDICTED BY RF-SCORE:    0.00 PKD
ROOT
HETATM    1  C   UNL     1     -12.272  14.166  63.888  1.00  0.00    -0.288 C  
HETATM    2  C   UNL     1     -10.949  13.505  64.270  1.00  0.00    -0.355 C  
HETATM    3  C   UNL     1     -10.315  14.231  65.459  1.00  0.00    -0.374 C  
HETATM    4  C   UNL     1     -11.164  12.014  64.571  1.00  0.00    -0.332 C  
ENDROOT
BRANCH   4   5
HETATM    5  O   UNL     1      -9.915  11.438  64.959  1.00  0.00    -0.242 OA 
BRANCH   5   6
HETATM    6  C   UNL     1      -9.955  10.505  65.958  1.00  0.00    -0.237 A  
HETATM    7  C   UNL     1      -9.274   9.302  65.730  1.00  0.00    -0.283 A  
HETATM    8  C   UNL     1      -9.306   8.282  66.694  1.00  0.00    -0.246 A  
HETATM    9  C   UNL     1      -8.516   9.090  64.528  1.00  0.00    -0.175 C  
HETATM   10  C   UNL     1     -10.021   8.436  67.893  1.00  0.00    -0.228 A  
HETATM   11  N   UNL     1      -7.878   8.872  63.583  1.00  0.00    -0.134 NA 
HETATM   12  C   UNL     1     -10.676  10.666  67.144  1.00  0.00    -0.327 A  
HETATM   13  C   UNL     1     -10.708   9.641  68.099  1.00  0.00    -0.266 A  
BRANCH  10  14
HETATM   14  C   UNL     1     -10.083   7.375  68.915  1.00  0.00    -0.186 A  
HETATM   15  N   UNL     1     -10.803   7.427  70.018  1.00  0.00    -0.250 NA 
HETATM   16  C   UNL     1     -10.651   6.262  70.764  1.00  0.00    -0.243 A  
HETATM   17  C   UNL     1      -9.768   5.340  70.225  1.00  0.00    -0.195 A  
HETATM   18  C   UNL     1     -11.426   6.122  72.030  1.00  0.00    -0.366 C  
HETATM   19  C   UNL     1      -9.376   4.051  70.752  1.00  0.00    -0.147 C  
HETATM   20  S   UNL     1      -9.143   5.945  68.750  1.00  0.00    -0.116 SA 
HETATM   21  O   UNL     1      -9.769   3.564  71.802  1.00  0.00    -0.147 OA 
HETATM   22  O   UNL     1      -8.494   3.392  69.953  1.00  0.00    -0.051 OA 
ENDBRANCH  10  14
ENDBRANCH   5   6
ENDBRANCH   4   5
TORSDOF 3
ENDMDL
MODEL      110
REMARK 921   NORMALIZED FREE ENERGY PREDICTED BY IDOCK:   -4.30 KCAL/MOL
REMARK 922        TOTAL FREE ENERGY PREDICTED BY IDOCK:   -5.74 KCAL/MOL
REMARK 923 INTER-LIGAND FREE ENERGY PREDICTED BY IDOCK:   -5.29 KCAL/MOL
REMARK 924 INTRA-LIGAND FREE ENERGY PREDICTED BY IDOCK:   -0.45 KCAL/MOL
REMARK 927      BINDING AFFINITY PREDICTED BY RF-SCORE:    0.00 PKD
ROOT
HETATM    1  C   UNL     1      -8.299   6.992  67.007  1.00  0.00    -0.121 C  
HETATM    2  C   UNL     1      -9.137   8.140  66.449  1.00  0.00    -0.226 C  
HETATM    3  C   UNL     1     -10.599   7.988  66.874  1.00  0.00    -0.324 C  
HETATM    4  C   UNL     1      -8.558   9.491  66.896  1.00  0.00    -0.128 C  
ENDROOT
BRANCH   4   5
HETATM    5  O   UNL     1      -9.386  10.538  66.386  1.00  0.00    -0.162 OA 
BRANCH   5   6
HETATM    6  C   UNL     1      -9.022  11.817  66.706  1.00  0.00    -0.196 A  
HETATM    7  C   UNL     1      -9.922  12.836  66.368  1.00  0.00    -0.268 A  
HETATM    8  C   UNL     1      -9.596  14.177  66.628  1.00  0.00    -0.301 A  
HETATM    9  C   UNL     1     -11.195  12.540  65.772  1.00  0.00    -0.320 C  
HETATM   10  C   UNL     1      -8.371  14.527  67.219  1.00  0.00    -0.232 A  
HETATM   11  N   UNL     1     -12.241  12.356  65.303  1.00  0.00    -0.553 NA 
HETATM   12  C   UNL     1      -7.797  12.154  67.287  1.00  0.00    -0.176 A  
HETATM   13  C   UNL     1      -7.477  13.495  67.538  1.00  0.00    -0.177 A  
BRANCH  10  14
HETATM   14  C   UNL     1      -7.999  15.928  67.489  1.00  0.00    -0.145 A  
HETATM   15  N   UNL     1      -7.422  16.358  68.594  1.00  0.00    -0.181 NA 
HETATM   16  C   UNL     1      -7.194  17.730  68.530  1.00  0.00    -0.259 A  
HETATM   17  C   UNL     1      -7.646  18.340  67.371  1.00  0.00    -0.214 A  
HETATM   18  C   UNL     1      -6.507  18.390  69.677  1.00  0.00    -0.155 C  
HETATM   19  C   UNL     1      -7.580  19.736  67.002  1.00  0.00    -0.260 C  
HETATM   20  S   UNL     1      -8.346  17.162  66.344  1.00  0.00    -0.273 SA 
HETATM   21  O   UNL     1      -7.110  20.631  67.689  1.00  0.00    -0.310 OA 
HETATM   22  O   UNL     1      -8.109  19.992  65.775  1.00  0.00    -0.310 OA 
ENDBRANCH  10  14
ENDBRANCH   5   6
ENDBRANCH   4   5
TORSDOF 3
ENDMDL
MODEL      111
REMARK 921   NORMALIZED FREE ENERGY PREDICTED BY IDOCK:   -4.29 KCAL/MOL
REMARK 922        TOTAL FREE ENERGY PREDICTED BY IDOCK:   -5.74 KCAL/MOL
REMARK 923 INTER-LIGAND FREE ENERGY PREDICTED BY IDOCK:   -5.08 KCAL/MOL
REMARK 924 INTRA-LIGAND FREE ENERGY PREDICTED BY IDOCK:   -0.65 KCAL/MOL
REMARK 927      BINDING AFFINITY PREDICTED BY RF-SCORE:    0.00 PKD
ROOT
HETATM    1  C   UNL     1     -11.221  16.444  64.752  1.00  0.00    -0.219 C  
HETATM    2  C   UNL     1     -10.470  15.789  65.909  1.00  0.00    -0.366 C  
HETATM    3  C   UNL     1      -9.520  16.795  66.565  1.00  0.00    -0.287 C  
HETATM    4  C   UNL     1     -11.460  15.205  66.927  1.00  0.00    -0.214 C  
ENDROOT
BRANCH   4   5
HETATM    5  O   UNL     1     -10.724  14.633  68.011  1.00  0.00    -0.241 OA 
BRANCH   5   6
HETATM    6  C   UNL     1     -10.693  13.267  68.077  1.00  0.00    -0.240 A  
HETATM    7  C   UNL     1      -9.453  12.651  67.872  1.00  0.00    -0.204 A  
HETATM    8  C   UNL     1      -9.353  11.250  67.884  1.00  0.00    -0.161 A  
HETATM    9  C   UNL     1      -8.259  13.423  67.667  1.00  0.00    -0.177 C  
HETATM   10  C   UNL     1     -10.482  10.442  68.091  1.00  0.00    -0.221 A  
HETATM   11  N   UNL     1      -7.263  14.000  67.512  1.00  0.00    -0.179 NA 
HETATM   12  C   UNL     1     -11.825  12.473  68.276  1.00  0.00    -0.361 A  
HETATM   13  C   UNL     1     -11.719  11.076  68.280  1.00  0.00    -0.301 A  
BRANCH  10  14
HETATM   14  C   UNL     1     -10.407   8.969  68.093  1.00  0.00    -0.214 A  
HETATM   15  N   UNL     1     -10.757   8.195  69.102  1.00  0.00    -0.158 NA 
HETATM   16  C   UNL     1     -10.576   6.853  68.781  1.00  0.00    -0.220 A  
HETATM   17  C   UNL     1     -10.043   6.625  67.522  1.00  0.00    -0.160 A  
HETATM   18  C   UNL     1     -10.959   5.823  69.788  1.00  0.00    -0.397 C  
HETATM   19  C   UNL     1      -9.719   5.362  66.895  1.00  0.00    -0.153 C  
HETATM   20  S   UNL     1      -9.790   8.122  66.731  1.00  0.00    -0.274 SA 
HETATM   21  O   UNL     1      -9.859   4.260  67.404  1.00  0.00    -0.185 OA 
HETATM   22  O   UNL     1      -9.222   5.502  65.636  1.00  0.00    -0.154 OA 
ENDBRANCH  10  14
ENDBRANCH   5   6
ENDBRANCH   4   5
TORSDOF 3
ENDMDL
MODEL      112
REMARK 921   NORMALIZED FREE ENERGY PREDICTED BY IDOCK:   -4.26 KCAL/MOL
REMARK 922        TOTAL FREE ENERGY PREDICTED BY IDOCK:   -5.69 KCAL/MOL
REMARK 923 INTER-LIGAND FREE ENERGY PREDICTED BY IDOCK:   -5.09 KCAL/MOL
REMARK 924 INTRA-LIGAND FREE ENERGY PREDICTED BY IDOCK:   -0.61 KCAL/MOL
REMARK 927      BINDING AFFINITY PREDICTED BY RF-SCORE:    0.00 PKD
ROOT
HETATM    1  C   UNL     1     -10.554   6.431  69.601  1.00  0.00    -0.309 C  
HETATM    2  C   UNL     1      -9.438   7.454  69.399  1.00  0.00    -0.155 C  
HETATM    3  C   UNL     1      -8.168   7.007  70.126  1.00  0.00    -0.133 C  
HETATM    4  C   UNL     1      -9.179   7.673  67.900  1.00  0.00    -0.136 C  
ENDROOT
BRANCH   4   5
HETATM    5  O   UNL     1      -8.108   8.607  67.750  1.00  0.00    -0.106 OA 
BRANCH   5   6
HETATM    6  C   UNL     1      -8.457   9.902  67.482  1.00  0.00    -0.115 A  
HETATM    7  C   UNL     1      -8.162  10.854  68.466  1.00  0.00    -0.140 A  
HETATM    8  C   UNL     1      -8.529  12.196  68.278  1.00  0.00    -0.176 A  
HETATM    9  C   UNL     1      -7.467  10.493  69.670  1.00  0.00    -0.141 C  
HETATM   10  C   UNL     1      -9.201  12.612  67.117  1.00  0.00    -0.214 A  
HETATM   11  N   UNL     1      -6.895  10.258  70.654  1.00  0.00    -0.337 NA 
HETATM   12  C   UNL     1      -9.131  10.302  66.326  1.00  0.00    -0.178 A  
HETATM   13  C   UNL     1      -9.500  11.642  66.149  1.00  0.00    -0.240 A  
BRANCH  10  14
HETATM   14  C   UNL     1      -9.610  14.012  66.902  1.00  0.00    -0.271 A  
HETATM   15  N   UNL     1     -10.039  14.508  65.758  1.00  0.00    -0.325 NA 
HETATM   16  C   UNL     1     -10.355  15.857  65.891  1.00  0.00    -0.365 A  
HETATM   17  C   UNL     1     -10.119  16.385  67.150  1.00  0.00    -0.271 A  
HETATM   18  C   UNL     1     -10.899  16.579  64.707  1.00  0.00    -0.145 C  
HETATM   19  C   UNL     1     -10.321  17.741  67.612  1.00  0.00    -0.373 C  
HETATM   20  S   UNL     1      -9.512  15.158  68.179  1.00  0.00    -0.204 SA 
HETATM   21  O   UNL     1     -10.735  18.668  66.932  1.00  0.00    -0.395 OA 
HETATM   22  O   UNL     1      -9.999  17.914  68.922  1.00  0.00    -0.359 OA 
ENDBRANCH  10  14
ENDBRANCH   5   6
ENDBRANCH   4   5
TORSDOF 3
ENDMDL
MODEL      113
REMARK 921   NORMALIZED FREE ENERGY PREDICTED BY IDOCK:   -4.25 KCAL/MOL
REMARK 922        TOTAL FREE ENERGY PREDICTED BY IDOCK:   -5.68 KCAL/MOL
REMARK 923 INTER-LIGAND FREE ENERGY PREDICTED BY IDOCK:   -5.13 KCAL/MOL
REMARK 924 INTRA-LIGAND FREE ENERGY PREDICTED BY IDOCK:   -0.55 KCAL/MOL
REMARK 927      BINDING AFFINITY PREDICTED BY RF-SCORE:    0.00 PKD
ROOT
HETATM    1  C   UNL     1     -10.118   5.003  69.183  1.00  0.00    -0.257 C  
HETATM    2  C   UNL     1      -9.707   5.773  67.929  1.00  0.00    -0.134 C  
HETATM    3  C   UNL     1     -10.887   5.883  66.961  1.00  0.00    -0.379 C  
HETATM    4  C   UNL     1      -9.159   7.157  68.307  1.00  0.00    -0.134 C  
ENDROOT
BRANCH   4   5
HETATM    5  O   UNL     1      -8.818   7.860  67.111  1.00  0.00    -0.128 OA 
BRANCH   5   6
HETATM    6  C   UNL     1      -9.166   9.182  67.058  1.00  0.00    -0.135 A  
HETATM    7  C   UNL     1      -8.235  10.060  66.490  1.00  0.00    -0.119 A  
HETATM    8  C   UNL     1      -8.506  11.437  66.440  1.00  0.00    -0.160 A  
HETATM    9  C   UNL     1      -7.001   9.581  65.932  1.00  0.00    -0.091 C  
HETATM   10  C   UNL     1      -9.700  11.963  66.959  1.00  0.00    -0.204 A  
HETATM   11  N   UNL     1      -5.996   9.246  65.454  1.00  0.00    -0.061 NA 
HETATM   12  C   UNL     1     -10.354   9.695  67.585  1.00  0.00    -0.290 A  
HETATM   13  C   UNL     1     -10.615  11.071  67.536  1.00  0.00    -0.266 A  
BRANCH  10  14
HETATM   14  C   UNL     1     -10.002  13.406  66.932  1.00  0.00    -0.252 A  
HETATM   15  N   UNL     1     -10.207  14.116  65.841  1.00  0.00    -0.307 NA 
HETATM   16  C   UNL     1     -10.479  15.444  66.158  1.00  0.00    -0.316 A  
HETATM   17  C   UNL     1     -10.436  15.736  67.512  1.00  0.00    -0.288 A  
HETATM   18  C   UNL     1     -10.780  16.393  65.049  1.00  0.00    -0.279 C  
HETATM   19  C   UNL     1     -10.652  17.007  68.168  1.00  0.00    -0.369 C  
HETATM   20  S   UNL     1     -10.070  14.313  68.391  1.00  0.00    -0.247 SA 
HETATM   21  O   UNL     1     -10.901  18.064  67.605  1.00  0.00    -0.390 OA 
HETATM   22  O   UNL     1     -10.548  16.936  69.522  1.00  0.00    -0.327 OA 
ENDBRANCH  10  14
ENDBRANCH   5   6
ENDBRANCH   4   5
TORSDOF 3
ENDMDL
MODEL      114
REMARK 921   NORMALIZED FREE ENERGY PREDICTED BY IDOCK:   -4.20 KCAL/MOL
REMARK 922        TOTAL FREE ENERGY PREDICTED BY IDOCK:   -5.63 KCAL/MOL
REMARK 923 INTER-LIGAND FREE ENERGY PREDICTED BY IDOCK:   -5.02 KCAL/MOL
REMARK 924 INTRA-LIGAND FREE ENERGY PREDICTED BY IDOCK:   -0.60 KCAL/MOL
REMARK 927      BINDING AFFINITY PREDICTED BY RF-SCORE:    0.00 PKD
ROOT
HETATM    1  C   UNL     1     -12.001  16.095  73.070  1.00  0.00    -0.593 C  
HETATM    2  C   UNL     1     -12.637  14.945  72.292  1.00  0.00    -0.413 C  
HETATM    3  C   UNL     1     -14.153  15.139  72.199  1.00  0.00    -0.654 C  
HETATM    4  C   UNL     1     -12.000  14.825  70.899  1.00  0.00    -0.324 C  
ENDROOT
BRANCH   4   5
HETATM    5  O   UNL     1     -12.643  13.765  70.189  1.00  0.00    -0.291 OA 
BRANCH   5   6
HETATM    6  C   UNL     1     -11.872  12.678  69.879  1.00  0.00    -0.294 A  
HETATM    7  C   UNL     1     -12.109  11.505  70.605  1.00  0.00    -0.450 A  
HETATM    8  C   UNL     1     -11.327  10.362  70.370  1.00  0.00    -0.417 A  
HETATM    9  C   UNL     1     -13.159  11.431  71.583  1.00  0.00    -0.393 C  
HETATM   10  C   UNL     1     -10.294  10.370  69.420  1.00  0.00    -0.259 A  
HETATM   11  N   UNL     1     -14.003  11.313  72.372  1.00  0.00     0.477 NA 
HETATM   12  C   UNL     1     -10.841  12.700  68.936  1.00  0.00    -0.238 A  
HETATM   13  C   UNL     1     -10.061  11.558  68.712  1.00  0.00    -0.191 A  
BRANCH  10  14
HETATM   14  C   UNL     1      -9.449   9.189  69.165  1.00  0.00    -0.156 A  
HETATM   15  N   UNL     1      -9.305   8.169  69.988  1.00  0.00    -0.159 NA 
HETATM   16  C   UNL     1      -8.449   7.214  69.448  1.00  0.00    -0.134 A  
HETATM   17  C   UNL     1      -7.912   7.549  68.215  1.00  0.00    -0.123 A  
HETATM   18  C   UNL     1      -8.199   5.965  70.222  1.00  0.00    -0.114 C  
HETATM   19  C   UNL     1      -6.985   6.794  67.400  1.00  0.00    -0.082 C  
HETATM   20  S   UNL     1      -8.514   9.075  67.726  1.00  0.00    -0.117 SA 
HETATM   21  O   UNL     1      -6.504   5.709  67.691  1.00  0.00    -0.044 OA 
HETATM   22  O   UNL     1      -6.674   7.415  66.230  1.00  0.00    -0.057 OA 
ENDBRANCH  10  14
ENDBRANCH   5   6
ENDBRANCH   4   5
TORSDOF 3
ENDMDL
MODEL      115
REMARK 921   NORMALIZED FREE ENERGY PREDICTED BY IDOCK:   -4.19 KCAL/MOL
REMARK 922        TOTAL FREE ENERGY PREDICTED BY IDOCK:   -5.61 KCAL/MOL
REMARK 923 INTER-LIGAND FREE ENERGY PREDICTED BY IDOCK:   -5.11 KCAL/MOL
REMARK 924 INTRA-LIGAND FREE ENERGY PREDICTED BY IDOCK:   -0.50 KCAL/MOL
REMARK 927      BINDING AFFINITY PREDICTED BY RF-SCORE:    0.00 PKD
ROOT
HETATM    1  C   UNL     1     -12.296  14.271  64.456  1.00  0.00    -0.432 C  
HETATM    2  C   UNL     1     -11.253  13.684  65.404  1.00  0.00    -0.306 C  
HETATM    3  C   UNL     1     -10.424  14.802  66.042  1.00  0.00    -0.312 C  
HETATM    4  C   UNL     1     -11.930  12.809  66.469  1.00  0.00    -0.358 C  
ENDROOT
BRANCH   4   5
HETATM    5  O   UNL     1     -10.929  12.307  67.357  1.00  0.00    -0.233 OA 
BRANCH   5   6
HETATM    6  C   UNL     1     -10.702  10.959  67.325  1.00  0.00    -0.268 A  
HETATM    7  C   UNL     1     -11.028  10.232  68.477  1.00  0.00    -0.294 A  
HETATM    8  C   UNL     1     -10.784   8.851  68.530  1.00  0.00    -0.124 A  
HETATM    9  C   UNL     1     -11.634  10.869  69.614  1.00  0.00    -0.322 C  
HETATM   10  C   UNL     1     -10.205   8.171  67.446  1.00  0.00    -0.327 A  
HETATM   11  N   UNL     1     -12.137  11.330  70.553  1.00  0.00    -0.366 NA 
HETATM   12  C   UNL     1     -10.118  10.295  66.243  1.00  0.00    -0.300 A  
HETATM   13  C   UNL     1      -9.872   8.916  66.306  1.00  0.00    -0.355 A  
BRANCH  10  14
HETATM   14  C   UNL     1      -9.924   6.724  67.483  1.00  0.00    -0.141 A  
HETATM   15  N   UNL     1     -10.040   5.905  66.457  1.00  0.00    -0.171 NA 
HETATM   16  C   UNL     1      -9.690   4.607  66.818  1.00  0.00    -0.198 A  
HETATM   17  C   UNL     1      -9.345   4.450  68.151  1.00  0.00    -0.146 A  
HETATM   18  C   UNL     1      -9.719   3.546  65.772  1.00  0.00    -0.056 C  
HETATM   19  C   UNL     1      -8.952   3.243  68.845  1.00  0.00    -0.130 C  
HETATM   20  S   UNL     1      -9.444   5.962  68.947  1.00  0.00    -0.129 SA 
HETATM   21  O   UNL     1      -8.875   2.130  68.346  1.00  0.00    -0.081 OA 
HETATM   22  O   UNL     1      -8.665   3.450  70.158  1.00  0.00    -0.059 OA 
ENDBRANCH  10  14
ENDBRANCH   5   6
ENDBRANCH   4   5
TORSDOF 3
ENDMDL
MODEL      116
REMARK 921   NORMALIZED FREE ENERGY PREDICTED BY IDOCK:   -4.18 KCAL/MOL
REMARK 922        TOTAL FREE ENERGY PREDICTED BY IDOCK:   -5.60 KCAL/MOL
REMARK 923 INTER-LIGAND FREE ENERGY PREDICTED BY IDOCK:   -5.10 KCAL/MOL
REMARK 924 INTRA-LIGAND FREE ENERGY PREDICTED BY IDOCK:   -0.50 KCAL/MOL
REMARK 927      BINDING AFFINITY PREDICTED BY RF-SCORE:    0.00 PKD
ROOT
HETATM    1  C   UNL     1     -12.268  13.722  63.942  1.00  0.00    -0.402 C  
HETATM    2  C   UNL     1     -11.111  13.475  64.908  1.00  0.00    -0.356 C  
HETATM    3  C   UNL     1     -11.581  13.637  66.355  1.00  0.00    -0.375 C  
HETATM    4  C   UNL     1     -10.501  12.086  64.667  1.00  0.00    -0.297 C  
ENDROOT
BRANCH   4   5
HETATM    5  O   UNL     1      -9.447  11.876  65.610  1.00  0.00    -0.228 OA 
BRANCH   5   6
HETATM    6  C   UNL     1      -9.651  10.905  66.551  1.00  0.00    -0.194 A  
HETATM    7  C   UNL     1      -9.176  11.163  67.842  1.00  0.00    -0.154 A  
HETATM    8  C   UNL     1      -9.313  10.194  68.849  1.00  0.00    -0.179 A  
HETATM    9  C   UNL     1      -8.562  12.419  68.175  1.00  0.00    -0.185 C  
HETATM   10  C   UNL     1      -9.915   8.953  68.588  1.00  0.00    -0.192 A  
HETATM   11  N   UNL     1      -8.071  13.420  68.500  1.00  0.00    -0.137 NA 
HETATM   12  C   UNL     1     -10.245   9.670  66.277  1.00  0.00    -0.286 A  
HETATM   13  C   UNL     1     -10.373   8.706  67.285  1.00  0.00    -0.366 A  
BRANCH  10  14
HETATM   14  C   UNL     1     -10.058   7.913  69.623  1.00  0.00    -0.197 A  
HETATM   15  N   UNL     1     -10.309   8.142  70.897  1.00  0.00    -0.190 NA 
HETATM   16  C   UNL     1     -10.394   6.948  71.607  1.00  0.00    -0.199 A  
HETATM   17  C   UNL     1     -10.162   5.808  70.854  1.00  0.00    -0.216 A  
HETATM   18  C   UNL     1     -10.716   7.007  73.061  1.00  0.00    -0.337 C  
HETATM   19  C   UNL     1     -10.159   4.427  71.284  1.00  0.00    -0.132 C  
HETATM   20  S   UNL     1      -9.855   6.251  69.229  1.00  0.00    -0.145 SA 
HETATM   21  O   UNL     1     -10.354   4.040  72.427  1.00  0.00    -0.178 OA 
HETATM   22  O   UNL     1      -9.907   3.552  70.274  1.00  0.00    -0.152 OA 
ENDBRANCH  10  14
ENDBRANCH   5   6
ENDBRANCH   4   5
TORSDOF 3
ENDMDL
MODEL      117
REMARK 921   NORMALIZED FREE ENERGY PREDICTED BY IDOCK:   -4.17 KCAL/MOL
REMARK 922        TOTAL FREE ENERGY PREDICTED BY IDOCK:   -5.59 KCAL/MOL
REMARK 923 INTER-LIGAND FREE ENERGY PREDICTED BY IDOCK:   -5.14 KCAL/MOL
REMARK 924 INTRA-LIGAND FREE ENERGY PREDICTED BY IDOCK:   -0.45 KCAL/MOL
REMARK 927      BINDING AFFINITY PREDICTED BY RF-SCORE:    0.00 PKD
ROOT
HETATM    1  C   UNL     1      -7.428   4.359  62.790  1.00  0.00    -0.048 C  
HETATM    2  C   UNL     1      -8.255   4.708  64.025  1.00  0.00    -0.114 C  
HETATM    3  C   UNL     1      -8.017   3.679  65.133  1.00  0.00    -0.090 C  
HETATM    4  C   UNL     1      -7.931   6.131  64.501  1.00  0.00    -0.123 C  
ENDROOT
BRANCH   4   5
HETATM    5  O   UNL     1      -8.694   6.409  65.677  1.00  0.00    -0.149 OA 
BRANCH   5   6
HETATM    6  C   UNL     1      -8.994   7.723  65.916  1.00  0.00    -0.113 A  
HETATM    7  C   UNL     1      -9.951   7.985  66.904  1.00  0.00    -0.338 A  
HETATM    8  C   UNL     1     -10.339   9.307  67.174  1.00  0.00    -0.330 A  
HETATM    9  C   UNL     1     -10.541   6.924  67.673  1.00  0.00    -0.261 C  
HETATM   10  C   UNL     1      -9.789  10.387  66.464  1.00  0.00    -0.256 A  
HETATM   11  N   UNL     1     -11.037   6.106  68.332  1.00  0.00    -0.323 NA 
HETATM   12  C   UNL     1      -8.446   8.788  65.197  1.00  0.00    -0.192 A  
HETATM   13  C   UNL     1      -8.842  10.105  65.469  1.00  0.00    -0.191 A  
BRANCH  10  14
HETATM   14  C   UNL     1     -10.190  11.783  66.718  1.00  0.00    -0.211 A  
HETATM   15  N   UNL     1      -9.981  12.792  65.896  1.00  0.00    -0.270 NA 
HETATM   16  C   UNL     1     -10.489  13.975  66.425  1.00  0.00    -0.284 A  
HETATM   17  C   UNL     1     -11.052  13.851  67.685  1.00  0.00    -0.277 A  
HETATM   18  C   UNL     1     -10.381  15.220  65.614  1.00  0.00    -0.389 C  
HETATM   19  C   UNL     1     -11.647  14.877  68.513  1.00  0.00    -0.323 C  
HETATM   20  S   UNL     1     -10.957  12.218  68.194  1.00  0.00    -0.248 SA 
HETATM   21  O   UNL     1     -11.735  16.061  68.221  1.00  0.00    -0.303 OA 
HETATM   22  O   UNL     1     -12.121  14.403  69.696  1.00  0.00    -0.311 OA 
ENDBRANCH  10  14
ENDBRANCH   5   6
ENDBRANCH   4   5
TORSDOF 3
ENDMDL
MODEL      118
REMARK 921   NORMALIZED FREE ENERGY PREDICTED BY IDOCK:   -4.17 KCAL/MOL
REMARK 922        TOTAL FREE ENERGY PREDICTED BY IDOCK:   -5.59 KCAL/MOL
REMARK 923 INTER-LIGAND FREE ENERGY PREDICTED BY IDOCK:   -5.10 KCAL/MOL
REMARK 924 INTRA-LIGAND FREE ENERGY PREDICTED BY IDOCK:   -0.49 KCAL/MOL
REMARK 927      BINDING AFFINITY PREDICTED BY RF-SCORE:    0.00 PKD
ROOT
HETATM    1  C   UNL     1      -7.628   3.640  71.563  1.00  0.00    -0.056 C  
HETATM    2  C   UNL     1      -8.970   4.231  71.134  1.00  0.00    -0.166 C  
HETATM    3  C   UNL     1      -9.896   4.382  72.343  1.00  0.00    -0.224 C  
HETATM    4  C   UNL     1      -8.758   5.573  70.417  1.00  0.00    -0.131 C  
ENDROOT
BRANCH   4   5
HETATM    5  O   UNL     1     -10.033   6.112  70.063  1.00  0.00    -0.166 OA 
BRANCH   5   6
HETATM    6  C   UNL     1     -10.031   7.327  69.434  1.00  0.00    -0.170 A  
HETATM    7  C   UNL     1     -10.691   8.378  70.082  1.00  0.00    -0.238 A  
HETATM    8  C   UNL     1     -10.764   9.643  69.476  1.00  0.00    -0.252 A  
HETATM    9  C   UNL     1     -11.284   8.201  71.379  1.00  0.00    -0.254 C  
HETATM   10  C   UNL     1     -10.194   9.880  68.215  1.00  0.00    -0.204 A  
HETATM   11  N   UNL     1     -11.767   8.115  72.431  1.00  0.00    -0.378 NA 
HETATM   12  C   UNL     1      -9.466   7.549  68.175  1.00  0.00    -0.147 A  
HETATM   13  C   UNL     1      -9.550   8.812  67.574  1.00  0.00    -0.192 A  
BRANCH  10  14
HETATM   14  C   UNL     1     -10.271  11.194  67.550  1.00  0.00    -0.186 A  
HETATM   15  N   UNL     1      -9.999  12.349  68.124  1.00  0.00    -0.211 NA 
HETATM   16  C   UNL     1     -10.157  13.398  67.223  1.00  0.00    -0.238 A  
HETATM   17  C   UNL     1     -10.595  13.019  65.964  1.00  0.00    -0.279 A  
HETATM   18  C   UNL     1      -9.852  14.783  67.683  1.00  0.00    -0.218 C  
HETATM   19  C   UNL     1     -10.872  13.854  64.815  1.00  0.00    -0.419 C  
HETATM   20  S   UNL     1     -10.786  11.318  65.915  1.00  0.00    -0.193 SA 
HETATM   21  O   UNL     1     -10.772  15.072  64.783  1.00  0.00    -0.404 OA 
HETATM   22  O   UNL     1     -11.273  13.148  63.724  1.00  0.00    -0.379 OA 
ENDBRANCH  10  14
ENDBRANCH   5   6
ENDBRANCH   4   5
TORSDOF 3
ENDMDL
MODEL      119
REMARK 921   NORMALIZED FREE ENERGY PREDICTED BY IDOCK:   -4.17 KCAL/MOL
REMARK 922        TOTAL FREE ENERGY PREDICTED BY IDOCK:   -5.59 KCAL/MOL
REMARK 923 INTER-LIGAND FREE ENERGY PREDICTED BY IDOCK:   -4.87 KCAL/MOL
REMARK 924 INTRA-LIGAND FREE ENERGY PREDICTED BY IDOCK:   -0.71 KCAL/MOL
REMARK 927      BINDING AFFINITY PREDICTED BY RF-SCORE:    0.00 PKD
ROOT
HETATM    1  C   UNL     1     -11.219  16.031  64.584  1.00  0.00    -0.340 C  
HETATM    2  C   UNL     1     -10.416  15.351  65.691  1.00  0.00    -0.391 C  
HETATM    3  C   UNL     1      -9.256  16.245  66.134  1.00  0.00    -0.376 C  
HETATM    4  C   UNL     1     -11.330  14.992  66.872  1.00  0.00    -0.302 C  
ENDROOT
BRANCH   4   5
HETATM    5  O   UNL     1     -10.541  14.391  67.900  1.00  0.00    -0.237 OA 
BRANCH   5   6
HETATM    6  C   UNL     1     -10.375  13.035  67.832  1.00  0.00    -0.231 A  
HETATM    7  C   UNL     1      -9.087  12.541  68.073  1.00  0.00    -0.200 A  
HETATM    8  C   UNL     1      -8.833  11.163  67.980  1.00  0.00    -0.142 A  
HETATM    9  C   UNL     1      -8.008  13.416  68.440  1.00  0.00    -0.139 C  
HETATM   10  C   UNL     1      -9.850  10.257  67.637  1.00  0.00    -0.199 A  
HETATM   11  N   UNL     1      -7.105  14.076  68.752  1.00  0.00    -0.104 NA 
HETATM   12  C   UNL     1     -11.393  12.144  67.483  1.00  0.00    -0.392 A  
HETATM   13  C   UNL     1     -11.130  10.771  67.385  1.00  0.00    -0.363 A  
BRANCH  10  14
HETATM   14  C   UNL     1      -9.606   8.808  67.516  1.00  0.00    -0.152 A  
HETATM   15  N   UNL     1     -10.482   7.928  67.073  1.00  0.00    -0.342 NA 
HETATM   16  C   UNL     1      -9.939   6.646  67.073  1.00  0.00    -0.169 A  
HETATM   17  C   UNL     1      -8.646   6.565  67.566  1.00  0.00    -0.119 A  
HETATM   18  C   UNL     1     -10.771   5.521  66.562  1.00  0.00    -0.309 C  
HETATM   19  C   UNL     1      -7.809   5.395  67.717  1.00  0.00    -0.096 C  
HETATM   20  S   UNL     1      -8.106   8.128  68.011  1.00  0.00    -0.130 SA 
HETATM   21  O   UNL     1      -8.133   4.250  67.435  1.00  0.00    -0.098 OA 
HETATM   22  O   UNL     1      -6.578   5.678  68.223  1.00  0.00    -0.045 OA 
ENDBRANCH  10  14
ENDBRANCH   5   6
ENDBRANCH   4   5
TORSDOF 3
ENDMDL
MODEL      120
REMARK 921   NORMALIZED FREE ENERGY PREDICTED BY IDOCK:   -4.14 KCAL/MOL
REMARK 922        TOTAL FREE ENERGY PREDICTED BY IDOCK:   -5.55 KCAL/MOL
REMARK 923 INTER-LIGAND FREE ENERGY PREDICTED BY IDOCK:   -4.90 KCAL/MOL
REMARK 924 INTRA-LIGAND FREE ENERGY PREDICTED BY IDOCK:   -0.66 KCAL/MOL
REMARK 927      BINDING AFFINITY PREDICTED BY RF-SCORE:    0.00 PKD
ROOT
HETATM    1  C   UNL     1     -14.265   8.862  72.317  1.00  0.00    -0.474 C  
HETATM    2  C   UNL     1     -12.909   8.973  71.623  1.00  0.00    -0.419 C  
HETATM    3  C   UNL     1     -12.558  10.441  71.371  1.00  0.00    -0.539 C  
HETATM    4  C   UNL     1     -11.824   8.270  72.453  1.00  0.00    -0.396 C  
ENDROOT
BRANCH   4   5
HETATM    5  O   UNL     1     -10.567   8.425  71.793  1.00  0.00    -0.239 OA 
BRANCH   5   6
HETATM    6  C   UNL     1     -10.293   7.545  70.782  1.00  0.00    -0.203 A  
HETATM    7  C   UNL     1      -9.589   8.044  69.679  1.00  0.00    -0.168 A  
HETATM    8  C   UNL     1      -9.309   7.208  68.586  1.00  0.00    -0.134 A  
HETATM    9  C   UNL     1      -9.120   9.402  69.645  1.00  0.00    -0.181 C  
HETATM   10  C   UNL     1      -9.732   5.869  68.567  1.00  0.00    -0.151 A  
HETATM   11  N   UNL     1      -8.707  10.485  69.573  1.00  0.00    -0.085 NA 
HETATM   12  C   UNL     1     -10.725   6.216  70.770  1.00  0.00    -0.326 A  
HETATM   13  C   UNL     1     -10.448   5.390  69.673  1.00  0.00    -0.361 A  
BRANCH  10  14
HETATM   14  C   UNL     1      -9.465   4.975  67.425  1.00  0.00    -0.137 A  
HETATM   15  N   UNL     1      -8.393   4.220  67.290  1.00  0.00    -0.100 NA 
HETATM   16  C   UNL     1      -8.449   3.488  66.107  1.00  0.00    -0.112 A  
HETATM   17  C   UNL     1      -9.568   3.733  65.327  1.00  0.00    -0.174 A  
HETATM   18  C   UNL     1      -7.339   2.541  65.804  1.00  0.00    -0.067 C  
HETATM   19  C   UNL     1      -9.919   3.158  64.047  1.00  0.00    -0.169 C  
HETATM   20  S   UNL     1     -10.566   4.885  66.108  1.00  0.00    -0.148 SA 
HETATM   21  O   UNL     1      -9.249   2.345  63.427  1.00  0.00    -0.092 OA 
HETATM   22  O   UNL     1     -11.106   3.614  63.563  1.00  0.00    -0.222 OA 
ENDBRANCH  10  14
ENDBRANCH   5   6
ENDBRANCH   4   5
TORSDOF 3
ENDMDL
MODEL      121
REMARK 921   NORMALIZED FREE ENERGY PREDICTED BY IDOCK:   -4.13 KCAL/MOL
REMARK 922        TOTAL FREE ENERGY PREDICTED BY IDOCK:   -5.54 KCAL/MOL
REMARK 923 INTER-LIGAND FREE ENERGY PREDICTED BY IDOCK:   -5.02 KCAL/MOL
REMARK 924 INTRA-LIGAND FREE ENERGY PREDICTED BY IDOCK:   -0.51 KCAL/MOL
REMARK 927      BINDING AFFINITY PREDICTED BY RF-SCORE:    0.00 PKD
ROOT
HETATM    1  C   UNL     1      -6.098   4.207  72.775  1.00  0.00    -0.016 C  
HETATM    2  C   UNL     1      -7.605   4.372  72.595  1.00  0.00    -0.080 C  
HETATM    3  C   UNL     1      -8.230   4.974  73.856  1.00  0.00    -0.105 C  
HETATM    4  C   UNL     1      -7.906   5.229  71.356  1.00  0.00    -0.108 C  
ENDROOT
BRANCH   4   5
HETATM    5  O   UNL     1      -9.321   5.391  71.239  1.00  0.00    -0.144 OA 
BRANCH   5   6
HETATM    6  C   UNL     1      -9.766   6.626  70.856  1.00  0.00    -0.179 A  
HETATM    7  C   UNL     1     -10.172   6.769  69.524  1.00  0.00    -0.202 A  
HETATM    8  C   UNL     1     -10.602   8.018  69.049  1.00  0.00    -0.169 A  
HETATM    9  C   UNL     1     -10.182   5.650  68.622  1.00  0.00    -0.200 C  
HETATM   10  C   UNL     1     -10.626   9.146  69.886  1.00  0.00    -0.246 A  
HETATM   11  N   UNL     1     -10.222   4.777  67.857  1.00  0.00    -0.057 NA 
HETATM   12  C   UNL     1      -9.778   7.743  71.696  1.00  0.00    -0.200 A  
HETATM   13  C   UNL     1     -10.202   8.988  71.213  1.00  0.00    -0.384 A  
BRANCH  10  14
HETATM   14  C   UNL     1     -11.058  10.472  69.408  1.00  0.00    -0.258 A  
HETATM   15  N   UNL     1     -11.490  11.450  70.179  1.00  0.00    -0.262 NA 
HETATM   16  C   UNL     1     -11.808  12.574  69.421  1.00  0.00    -0.308 A  
HETATM   17  C   UNL     1     -11.648  12.415  68.054  1.00  0.00    -0.347 A  
HETATM   18  C   UNL     1     -12.276  13.799  70.129  1.00  0.00    -0.425 C  
HETATM   19  C   UNL     1     -11.904  13.370  66.999  1.00  0.00    -0.394 C  
HETATM   20  S   UNL     1     -11.068  10.837  67.728  1.00  0.00    -0.318 SA 
HETATM   21  O   UNL     1     -12.331  14.505  67.156  1.00  0.00    -0.290 OA 
HETATM   22  O   UNL     1     -11.622  12.886  65.759  1.00  0.00    -0.332 OA 
ENDBRANCH  10  14
ENDBRANCH   5   6
ENDBRANCH   4   5
TORSDOF 3
ENDMDL
MODEL      122
REMARK 921   NORMALIZED FREE ENERGY PREDICTED BY IDOCK:   -4.11 KCAL/MOL
REMARK 922        TOTAL FREE ENERGY PREDICTED BY IDOCK:   -5.52 KCAL/MOL
REMARK 923 INTER-LIGAND FREE ENERGY PREDICTED BY IDOCK:   -5.59 KCAL/MOL
REMARK 924 INTRA-LIGAND FREE ENERGY PREDICTED BY IDOCK:    0.07 KCAL/MOL
REMARK 927      BINDING AFFINITY PREDICTED BY RF-SCORE:    0.00 PKD
ROOT
HETATM    1  C   UNL     1      -8.875   5.355  69.184  1.00  0.00    -0.110 C  
HETATM    2  C   UNL     1      -9.726   6.541  69.633  1.00  0.00    -0.167 C  
HETATM    3  C   UNL     1     -11.008   6.051  70.310  1.00  0.00    -0.412 C  
HETATM    4  C   UNL     1      -8.916   7.459  70.561  1.00  0.00    -0.156 C  
ENDROOT
BRANCH   4   5
HETATM    5  O   UNL     1      -9.753   8.535  70.989  1.00  0.00    -0.171 OA 
BRANCH   5   6
HETATM    6  C   UNL     1      -9.998   9.522  70.073  1.00  0.00    -0.237 A  
HETATM    7  C   UNL     1      -8.909  10.314  69.688  1.00  0.00    -0.124 A  
HETATM    8  C   UNL     1      -9.094  11.372  68.784  1.00  0.00    -0.096 A  
HETATM    9  C   UNL     1      -7.586  10.057  70.185  1.00  0.00    -0.155 C  
HETATM   10  C   UNL     1     -10.362  11.665  68.255  1.00  0.00    -0.212 A  
HETATM   11  N   UNL     1      -6.496   9.884  70.545  1.00  0.00    -0.105 NA 
HETATM   12  C   UNL     1     -11.265   9.808  69.560  1.00  0.00    -0.181 A  
HETATM   13  C   UNL     1     -11.443  10.870  68.662  1.00  0.00    -0.380 A  
BRANCH  10  14
HETATM   14  C   UNL     1     -10.586  12.779  67.316  1.00  0.00    -0.233 A  
HETATM   15  N   UNL     1     -11.167  12.670  66.137  1.00  0.00    -0.295 NA 
HETATM   16  C   UNL     1     -11.234  13.907  65.503  1.00  0.00    -0.307 A  
HETATM   17  C   UNL     1     -10.654  14.951  66.206  1.00  0.00    -0.308 A  
HETATM   18  C   UNL     1     -11.899  13.988  64.172  1.00  0.00    -0.393 C  
HETATM   19  C   UNL     1     -10.540  16.342  65.826  1.00  0.00    -0.324 C  
HETATM   20  S   UNL     1     -10.040  14.365  67.693  1.00  0.00    -0.222 SA 
HETATM   21  O   UNL     1     -10.941  16.826  64.778  1.00  0.00    -0.732 OA 
HETATM   22  O   UNL     1      -9.922  17.106  66.767  1.00  0.00    -0.268 OA 
ENDBRANCH  10  14
ENDBRANCH   5   6
ENDBRANCH   4   5
TORSDOF 3
ENDMDL
MODEL      123
REMARK 921   NORMALIZED FREE ENERGY PREDICTED BY IDOCK:   -4.07 KCAL/MOL
REMARK 922        TOTAL FREE ENERGY PREDICTED BY IDOCK:   -5.47 KCAL/MOL
REMARK 923 INTER-LIGAND FREE ENERGY PREDICTED BY IDOCK:   -5.10 KCAL/MOL
REMARK 924 INTRA-LIGAND FREE ENERGY PREDICTED BY IDOCK:   -0.37 KCAL/MOL
REMARK 927      BINDING AFFINITY PREDICTED BY RF-SCORE:    0.00 PKD
ROOT
HETATM    1  C   UNL     1     -12.226  14.647  64.276  1.00  0.00    -0.432 C  
HETATM    2  C   UNL     1     -11.144  14.103  65.206  1.00  0.00    -0.331 C  
HETATM    3  C   UNL     1     -11.177  14.837  66.549  1.00  0.00    -0.342 C  
HETATM    4  C   UNL     1     -11.310  12.587  65.391  1.00  0.00    -0.325 C  
ENDROOT
BRANCH   4   5
HETATM    5  O   UNL     1     -10.305  12.120  66.294  1.00  0.00    -0.215 OA 
BRANCH   5   6
HETATM    6  C   UNL     1     -10.047  10.777  66.280  1.00  0.00    -0.232 A  
HETATM    7  C   UNL     1     -10.638  10.007  67.289  1.00  0.00    -0.319 A  
HETATM    8  C   UNL     1     -10.384   8.628  67.363  1.00  0.00    -0.353 A  
HETATM    9  C   UNL     1     -11.528  10.595  68.253  1.00  0.00    -0.245 C  
HETATM   10  C   UNL     1      -9.533   7.995  66.443  1.00  0.00    -0.268 A  
HETATM   11  N   UNL     1     -12.263  11.017  69.046  1.00  0.00    -0.483 NA 
HETATM   12  C   UNL     1      -9.192  10.159  65.364  1.00  0.00    -0.249 A  
HETATM   13  C   UNL     1      -8.938   8.783  65.448  1.00  0.00    -0.211 A  
BRANCH  10  14
HETATM   14  C   UNL     1      -9.238   6.552  66.507  1.00  0.00    -0.157 A  
HETATM   15  N   UNL     1      -9.496   5.771  67.538  1.00  0.00    -0.111 NA 
HETATM   16  C   UNL     1      -9.106   4.461  67.277  1.00  0.00    -0.132 A  
HETATM   17  C   UNL     1      -8.508   4.270  66.041  1.00  0.00    -0.113 A  
HETATM   18  C   UNL     1      -9.359   3.423  68.316  1.00  0.00    -0.239 C  
HETATM   19  C   UNL     1      -7.980   3.049  65.473  1.00  0.00    -0.086 C  
HETATM   20  S   UNL     1      -8.460   5.758  65.195  1.00  0.00    -0.109 SA 
HETATM   21  O   UNL     1      -7.967   1.958  66.024  1.00  0.00    -0.074 OA 
HETATM   22  O   UNL     1      -7.473   3.216  64.222  1.00  0.00    -0.071 OA 
ENDBRANCH  10  14
ENDBRANCH   5   6
ENDBRANCH   4   5
TORSDOF 3
ENDMDL
MODEL      124
REMARK 921   NORMALIZED FREE ENERGY PREDICTED BY IDOCK:   -4.00 KCAL/MOL
REMARK 922        TOTAL FREE ENERGY PREDICTED BY IDOCK:   -5.39 KCAL/MOL
REMARK 923 INTER-LIGAND FREE ENERGY PREDICTED BY IDOCK:   -4.90 KCAL/MOL
REMARK 924 INTRA-LIGAND FREE ENERGY PREDICTED BY IDOCK:   -0.49 KCAL/MOL
REMARK 927      BINDING AFFINITY PREDICTED BY RF-SCORE:    0.00 PKD
ROOT
HETATM    1  C   UNL     1      -5.324  20.342  70.997  1.00  0.00    -0.315 C  
HETATM    2  C   UNL     1      -5.828  19.866  69.636  1.00  0.00    -0.325 C  
HETATM    3  C   UNL     1      -5.597  20.945  68.576  1.00  0.00    -0.385 C  
HETATM    4  C   UNL     1      -5.154  18.543  69.248  1.00  0.00    -0.194 C  
ENDROOT
BRANCH   4   5
HETATM    5  O   UNL     1      -5.622  18.148  67.957  1.00  0.00    -0.151 OA 
BRANCH   5   6
HETATM    6  C   UNL     1      -6.172  16.899  67.860  1.00  0.00    -0.134 A  
HETATM    7  C   UNL     1      -7.570  16.817  67.900  1.00  0.00    -0.177 A  
HETATM    8  C   UNL     1      -8.203  15.564  67.848  1.00  0.00    -0.149 A  
HETATM    9  C   UNL     1      -8.385  17.997  67.972  1.00  0.00    -0.260 C  
HETATM   10  C   UNL     1      -7.459  14.376  67.766  1.00  0.00    -0.182 A  
HETATM   11  N   UNL     1      -9.091  18.919  68.016  1.00  0.00    -0.296 NA 
HETATM   12  C   UNL     1      -5.422  15.723  67.786  1.00  0.00    -0.150 A  
HETATM   13  C   UNL     1      -6.061  14.476  67.741  1.00  0.00    -0.133 A  
BRANCH  10  14
HETATM   14  C   UNL     1      -8.098  13.048  67.725  1.00  0.00    -0.168 A  
HETATM   15  N   UNL     1      -7.458  11.903  67.595  1.00  0.00    -0.118 NA 
HETATM   16  C   UNL     1      -8.348  10.834  67.604  1.00  0.00    -0.119 A  
HETATM   17  C   UNL     1      -9.683  11.193  67.702  1.00  0.00    -0.170 A  
HETATM   18  C   UNL     1      -7.800   9.451  67.510  1.00  0.00    -0.099 C  
HETATM   19  C   UNL     1     -10.849  10.336  67.721  1.00  0.00    -0.292 C  
HETATM   20  S   UNL     1      -9.809  12.897  67.806  1.00  0.00    -0.227 SA 
HETATM   21  O   UNL     1     -10.835   9.117  67.636  1.00  0.00    -0.234 OA 
HETATM   22  O   UNL     1     -12.016  11.023  67.844  1.00  0.00    -0.620 OA 
ENDBRANCH  10  14
ENDBRANCH   5   6
ENDBRANCH   4   5
TORSDOF 3
ENDMDL
MODEL      125
REMARK 921   NORMALIZED FREE ENERGY PREDICTED BY IDOCK:   -4.00 KCAL/MOL
REMARK 922        TOTAL FREE ENERGY PREDICTED BY IDOCK:   -5.39 KCAL/MOL
REMARK 923 INTER-LIGAND FREE ENERGY PREDICTED BY IDOCK:   -4.99 KCAL/MOL
REMARK 924 INTRA-LIGAND FREE ENERGY PREDICTED BY IDOCK:   -0.39 KCAL/MOL
REMARK 927      BINDING AFFINITY PREDICTED BY RF-SCORE:    0.00 PKD
ROOT
HETATM    1  C   UNL     1      -6.819   4.976  65.802  1.00  0.00    -0.061 C  
HETATM    2  C   UNL     1      -8.119   5.652  65.369  1.00  0.00    -0.126 C  
HETATM    3  C   UNL     1      -9.222   4.609  65.173  1.00  0.00    -0.156 C  
HETATM    4  C   UNL     1      -8.531   6.721  66.391  1.00  0.00    -0.126 C  
ENDROOT
BRANCH   4   5
HETATM    5  O   UNL     1      -9.766   7.306  65.972  1.00  0.00     0.025 OA 
BRANCH   5   6
HETATM    6  C   UNL     1     -10.021   8.577  66.410  1.00  0.00    -0.244 A  
HETATM    7  C   UNL     1      -9.658   9.626  65.557  1.00  0.00    -0.351 A  
HETATM    8  C   UNL     1      -9.852  10.958  65.958  1.00  0.00    -0.280 A  
HETATM    9  C   UNL     1      -9.103   9.373  64.256  1.00  0.00    -0.106 C  
HETATM   10  C   UNL     1     -10.400  11.268  67.213  1.00  0.00    -0.236 A  
HETATM   11  N   UNL     1      -8.665   9.225  63.191  1.00  0.00    -0.210 NA 
HETATM   12  C   UNL     1     -10.560   8.873  67.665  1.00  0.00    -0.292 A  
HETATM   13  C   UNL     1     -10.745  10.205  68.060  1.00  0.00    -0.305 A  
BRANCH  10  14
HETATM   14  C   UNL     1     -10.599  12.657  67.665  1.00  0.00    -0.218 A  
HETATM   15  N   UNL     1     -11.067  13.010  68.846  1.00  0.00    -0.261 NA 
HETATM   16  C   UNL     1     -11.124  14.396  68.962  1.00  0.00    -0.261 A  
HETATM   17  C   UNL     1     -10.728  15.089  67.830  1.00  0.00    -0.278 A  
HETATM   18  C   UNL     1     -11.590  14.982  70.251  1.00  0.00    -0.329 C  
HETATM   19  C   UNL     1     -10.685  16.518  67.616  1.00  0.00    -0.311 C  
HETATM   20  S   UNL     1     -10.259  13.976  66.615  1.00  0.00    -0.280 SA 
HETATM   21  O   UNL     1     -11.017  17.368  68.429  1.00  0.00    -0.285 OA 
HETATM   22  O   UNL     1     -10.227  16.862  66.381  1.00  0.00    -0.302 OA 
ENDBRANCH  10  14
ENDBRANCH   5   6
ENDBRANCH   4   5
TORSDOF 3
ENDMDL
MODEL      126
REMARK 921   NORMALIZED FREE ENERGY PREDICTED BY IDOCK:   -3.99 KCAL/MOL
REMARK 922        TOTAL FREE ENERGY PREDICTED BY IDOCK:   -5.38 KCAL/MOL
REMARK 923 INTER-LIGAND FREE ENERGY PREDICTED BY IDOCK:   -5.83 KCAL/MOL
REMARK 924 INTRA-LIGAND FREE ENERGY PREDICTED BY IDOCK:    0.45 KCAL/MOL
REMARK 927      BINDING AFFINITY PREDICTED BY RF-SCORE:    0.00 PKD
ROOT
HETATM    1  C   UNL     1     -14.253  16.169  72.700  1.00  0.00     0.099 C  
HETATM    2  C   UNL     1     -13.001  15.308  72.550  1.00  0.00    -0.488 C  
HETATM    3  C   UNL     1     -12.331  15.102  73.911  1.00  0.00    -0.722 C  
HETATM    4  C   UNL     1     -13.348  13.968  71.886  1.00  0.00    -0.406 C  
ENDROOT
BRANCH   4   5
HETATM    5  O   UNL     1     -12.162  13.177  71.795  1.00  0.00     0.098 OA 
BRANCH   5   6
HETATM    6  C   UNL     1     -11.822  12.723  70.550  1.00  0.00    -0.055 A  
HETATM    7  C   UNL     1     -11.338  13.670  69.640  1.00  0.00    -0.226 A  
HETATM    8  C   UNL     1     -11.008  13.283  68.331  1.00  0.00    -0.289 A  
HETATM    9  C   UNL     1     -11.146  15.042  70.021  1.00  0.00    -0.263 C  
HETATM   10  C   UNL     1     -11.164  11.955  67.903  1.00  0.00    -0.325 A  
HETATM   11  N   UNL     1     -10.959  16.158  70.281  1.00  0.00    -0.353 NA 
HETATM   12  C   UNL     1     -11.988  11.399  70.134  1.00  0.00    -0.460 A  
HETATM   13  C   UNL     1     -11.664  11.022  68.824  1.00  0.00    -0.383 A  
BRANCH  10  14
HETATM   14  C   UNL     1     -10.840  11.526  66.530  1.00  0.00    -0.288 A  
HETATM   15  N   UNL     1     -11.453  11.948  65.441  1.00  0.00    -0.293 NA 
HETATM   16  C   UNL     1     -10.903  11.361  64.305  1.00  0.00    -0.349 A  
HETATM   17  C   UNL     1      -9.887  10.453  64.557  1.00  0.00    -0.339 A  
HETATM   18  C   UNL     1     -11.442  11.752  62.972  1.00  0.00     0.010 C  
HETATM   19  C   UNL     1      -9.126   9.666  63.612  1.00  0.00    -0.174 C  
HETATM   20  S   UNL     1      -9.611  10.359  66.244  1.00  0.00    -0.191 SA 
HETATM   21  O   UNL     1      -9.278   9.671  62.399  1.00  0.00    -0.283 OA 
HETATM   22  O   UNL     1      -8.185   8.880  64.203  1.00  0.00    -0.153 OA 
ENDBRANCH  10  14
ENDBRANCH   5   6
ENDBRANCH   4   5
TORSDOF 3
ENDMDL
MODEL      127
REMARK 921   NORMALIZED FREE ENERGY PREDICTED BY IDOCK:   -3.99 KCAL/MOL
REMARK 922        TOTAL FREE ENERGY PREDICTED BY IDOCK:   -5.37 KCAL/MOL
REMARK 923 INTER-LIGAND FREE ENERGY PREDICTED BY IDOCK:   -4.66 KCAL/MOL
REMARK 924 INTRA-LIGAND FREE ENERGY PREDICTED BY IDOCK:   -0.71 KCAL/MOL
REMARK 927      BINDING AFFINITY PREDICTED BY RF-SCORE:    0.00 PKD
ROOT
HETATM    1  C   UNL     1      -7.690   5.017  66.809  1.00  0.00    -0.092 C  
HETATM    2  C   UNL     1      -8.422   6.058  67.653  1.00  0.00    -0.107 C  
HETATM    3  C   UNL     1      -9.539   5.397  68.463  1.00  0.00    -0.169 C  
HETATM    4  C   UNL     1      -7.432   6.801  68.563  1.00  0.00    -0.092 C  
ENDROOT
BRANCH   4   5
HETATM    5  O   UNL     1      -8.156   7.740  69.361  1.00  0.00    -0.122 OA 
BRANCH   5   6
HETATM    6  C   UNL     1      -8.492   8.922  68.762  1.00  0.00    -0.131 A  
HETATM    7  C   UNL     1      -9.795   9.391  68.970  1.00  0.00    -0.171 A  
HETATM    8  C   UNL     1     -10.223  10.577  68.352  1.00  0.00    -0.192 A  
HETATM    9  C   UNL     1     -10.712   8.692  69.828  1.00  0.00    -0.215 C  
HETATM   10  C   UNL     1      -9.369  11.309  67.512  1.00  0.00    -0.166 A  
HETATM   11  N   UNL     1     -11.486   8.174  70.521  1.00  0.00    -0.227 NA 
HETATM   12  C   UNL     1      -7.636   9.639  67.922  1.00  0.00    -0.083 A  
HETATM   13  C   UNL     1      -8.073  10.818  67.303  1.00  0.00    -0.117 A  
BRANCH  10  14
HETATM   14  C   UNL     1      -9.799  12.549  66.839  1.00  0.00    -0.227 A  
HETATM   15  N   UNL     1     -10.510  12.601  65.730  1.00  0.00    -0.271 NA 
HETATM   16  C   UNL     1     -10.758  13.920  65.362  1.00  0.00    -0.325 A  
HETATM   17  C   UNL     1     -10.185  14.870  66.193  1.00  0.00    -0.300 A  
HETATM   18  C   UNL     1     -11.587  14.176  64.150  1.00  0.00    -0.252 C  
HETATM   19  C   UNL     1     -10.235  16.312  66.084  1.00  0.00    -0.346 C  
HETATM   20  S   UNL     1      -9.345  14.086  67.462  1.00  0.00    -0.217 SA 
HETATM   21  O   UNL     1     -10.801  16.937  65.199  1.00  0.00    -0.602 OA 
HETATM   22  O   UNL     1      -9.571  16.948  67.086  1.00  0.00    -0.235 OA 
ENDBRANCH  10  14
ENDBRANCH   5   6
ENDBRANCH   4   5
TORSDOF 3
ENDMDL
MODEL      128
REMARK 921   NORMALIZED FREE ENERGY PREDICTED BY IDOCK:   -3.98 KCAL/MOL
REMARK 922        TOTAL FREE ENERGY PREDICTED BY IDOCK:   -5.37 KCAL/MOL
REMARK 923 INTER-LIGAND FREE ENERGY PREDICTED BY IDOCK:   -5.04 KCAL/MOL
REMARK 924 INTRA-LIGAND FREE ENERGY PREDICTED BY IDOCK:   -0.33 KCAL/MOL
REMARK 927      BINDING AFFINITY PREDICTED BY RF-SCORE:    0.00 PKD
ROOT
HETATM    1  C   UNL     1     -12.271  12.646  63.244  1.00  0.00    -0.512 C  
HETATM    2  C   UNL     1     -11.068  12.435  64.160  1.00  0.00    -0.425 C  
HETATM    3  C   UNL     1     -11.092  13.442  65.313  1.00  0.00    -0.305 C  
HETATM    4  C   UNL     1     -11.037  10.989  64.678  1.00  0.00     0.030 C  
ENDROOT
BRANCH   4   5
HETATM    5  O   UNL     1      -9.921  10.838  65.558  1.00  0.00    -0.235 OA 
BRANCH   5   6
HETATM    6  C   UNL     1      -9.864   9.678  66.281  1.00  0.00    -0.256 A  
HETATM    7  C   UNL     1     -10.553   9.657  67.500  1.00  0.00    -0.339 A  
HETATM    8  C   UNL     1     -10.505   8.514  68.315  1.00  0.00    -0.222 A  
HETATM    9  C   UNL     1     -11.336  10.780  67.935  1.00  0.00    -0.299 C  
HETATM   10  C   UNL     1      -9.766   7.381  67.937  1.00  0.00    -0.166 A  
HETATM   11  N   UNL     1     -11.993  11.653  68.327  1.00  0.00    -0.560 NA 
HETATM   12  C   UNL     1      -9.119   8.560  65.898  1.00  0.00    -0.237 A  
HETATM   13  C   UNL     1      -9.070   7.426  66.720  1.00  0.00    -0.178 A  
BRANCH  10  14
HETATM   14  C   UNL     1      -9.686   6.175  68.782  1.00  0.00    -0.129 A  
HETATM   15  N   UNL     1      -9.616   6.176  70.098  1.00  0.00    -0.161 NA 
HETATM   16  C   UNL     1      -9.564   4.876  70.592  1.00  0.00    -0.186 A  
HETATM   17  C   UNL     1      -9.554   3.888  69.621  1.00  0.00    -0.189 A  
HETATM   18  C   UNL     1      -9.524   4.677  72.068  1.00  0.00    -0.191 C  
HETATM   19  C   UNL     1      -9.488   2.453  69.794  1.00  0.00    -0.051 C  
HETATM   20  S   UNL     1      -9.634   4.611  68.071  1.00  0.00    -0.145 SA 
HETATM   21  O   UNL     1      -9.414   1.870  70.865  1.00  0.00    -0.116 OA 
HETATM   22  O   UNL     1      -9.513   1.770  68.617  1.00  0.00    -0.168 OA 
ENDBRANCH  10  14
ENDBRANCH   5   6
ENDBRANCH   4   5
TORSDOF 3
ENDMDL
MODEL      129
REMARK 921   NORMALIZED FREE ENERGY PREDICTED BY IDOCK:   -3.94 KCAL/MOL
REMARK 922        TOTAL FREE ENERGY PREDICTED BY IDOCK:   -5.32 KCAL/MOL
REMARK 923 INTER-LIGAND FREE ENERGY PREDICTED BY IDOCK:   -4.88 KCAL/MOL
REMARK 924 INTRA-LIGAND FREE ENERGY PREDICTED BY IDOCK:   -0.45 KCAL/MOL
REMARK 927      BINDING AFFINITY PREDICTED BY RF-SCORE:    0.00 PKD
ROOT
HETATM    1  C   UNL     1      -9.213   2.655  67.261  1.00  0.00    -0.179 C  
HETATM    2  C   UNL     1      -8.552   3.836  66.554  1.00  0.00    -0.113 C  
HETATM    3  C   UNL     1      -8.304   3.505  65.080  1.00  0.00    -0.097 C  
HETATM    4  C   UNL     1      -9.409   5.101  66.709  1.00  0.00    -0.134 C  
ENDROOT
BRANCH   4   5
HETATM    5  O   UNL     1      -8.779   6.174  66.007  1.00  0.00    -0.145 OA 
BRANCH   5   6
HETATM    6  C   UNL     1      -9.252   7.432  66.259  1.00  0.00    -0.135 A  
HETATM    7  C   UNL     1      -8.745   8.471  65.468  1.00  0.00    -0.208 A  
HETATM    8  C   UNL     1      -9.154   9.794  65.698  1.00  0.00    -0.222 A  
HETATM    9  C   UNL     1      -7.819   8.213  64.400  1.00  0.00    -0.136 C  
HETATM   10  C   UNL     1     -10.065  10.108  66.719  1.00  0.00    -0.277 A  
HETATM   11  N   UNL     1      -7.081   8.057  63.517  1.00  0.00    -0.079 NA 
HETATM   12  C   UNL     1     -10.154   7.733  67.283  1.00  0.00    -0.307 A  
HETATM   13  C   UNL     1     -10.553   9.057  67.510  1.00  0.00    -0.306 A  
BRANCH  10  14
HETATM   14  C   UNL     1     -10.500  11.490  66.990  1.00  0.00    -0.228 A  
HETATM   15  N   UNL     1     -10.335  12.510  66.171  1.00  0.00    -0.248 NA 
HETATM   16  C   UNL     1     -10.865  13.675  66.718  1.00  0.00    -0.290 A  
HETATM   17  C   UNL     1     -11.400  13.527  67.988  1.00  0.00    -0.285 A  
HETATM   18  C   UNL     1     -10.809  14.928  65.913  1.00  0.00    -0.336 C  
HETATM   19  C   UNL     1     -12.007  14.531  68.834  1.00  0.00    -0.290 C  
HETATM   20  S   UNL     1     -11.249  11.895  68.484  1.00  0.00    -0.282 SA 
HETATM   21  O   UNL     1     -12.134  15.714  68.553  1.00  0.00    -0.242 OA 
HETATM   22  O   UNL     1     -12.444  14.036  70.024  1.00  0.00    -0.335 OA 
ENDBRANCH  10  14
ENDBRANCH   5   6
ENDBRANCH   4   5
TORSDOF 3
ENDMDL
MODEL      130
REMARK 921   NORMALIZED FREE ENERGY PREDICTED BY IDOCK:   -3.93 KCAL/MOL
REMARK 922        TOTAL FREE ENERGY PREDICTED BY IDOCK:   -5.31 KCAL/MOL
REMARK 923 INTER-LIGAND FREE ENERGY PREDICTED BY IDOCK:   -4.79 KCAL/MOL
REMARK 924 INTRA-LIGAND FREE ENERGY PREDICTED BY IDOCK:   -0.51 KCAL/MOL
REMARK 927      BINDING AFFINITY PREDICTED BY RF-SCORE:    0.00 PKD
ROOT
HETATM    1  C   UNL     1     -10.449  17.230  67.946  1.00  0.00    -0.382 C  
HETATM    2  C   UNL     1     -10.039  15.943  67.234  1.00  0.00    -0.260 C  
HETATM    3  C   UNL     1      -8.532  15.941  66.964  1.00  0.00    -0.248 C  
HETATM    4  C   UNL     1     -10.463  14.718  68.058  1.00  0.00    -0.246 C  
ENDROOT
BRANCH   4   5
HETATM    5  O   UNL     1     -10.032  13.535  67.381  1.00  0.00    -0.228 OA 
BRANCH   5   6
HETATM    6  C   UNL     1     -10.129  12.362  68.076  1.00  0.00    -0.214 A  
HETATM    7  C   UNL     1      -8.978  11.567  68.144  1.00  0.00    -0.172 A  
HETATM    8  C   UNL     1      -9.015  10.329  68.805  1.00  0.00    -0.155 A  
HETATM    9  C   UNL     1      -7.736  12.000  67.564  1.00  0.00    -0.155 C  
HETATM   10  C   UNL     1     -10.196   9.858  69.401  1.00  0.00    -0.231 A  
HETATM   11  N   UNL     1      -6.706  12.309  67.126  1.00  0.00    -0.138 NA 
HETATM   12  C   UNL     1     -11.312  11.899  68.658  1.00  0.00    -0.331 A  
HETATM   13  C   UNL     1     -11.343  10.659  69.311  1.00  0.00    -0.346 A  
BRANCH  10  14
HETATM   14  C   UNL     1     -10.266   8.555  70.088  1.00  0.00    -0.195 A  
HETATM   15  N   UNL     1     -11.287   8.132  70.806  1.00  0.00    -0.273 NA 
HETATM   16  C   UNL     1     -11.043   6.857  71.310  1.00  0.00    -0.258 A  
HETATM   17  C   UNL     1      -9.798   6.338  70.995  1.00  0.00    -0.181 A  
HETATM   18  C   UNL     1     -12.109   6.195  72.115  1.00  0.00    -0.263 C  
HETATM   19  C   UNL     1      -9.230   5.062  71.372  1.00  0.00    -0.146 C  
HETATM   20  S   UNL     1      -8.938   7.464  70.033  1.00  0.00    -0.144 SA 
HETATM   21  O   UNL     1      -9.779   4.219  72.066  1.00  0.00    -0.148 OA 
HETATM   22  O   UNL     1      -7.980   4.864  70.874  1.00  0.00    -0.080 OA 
ENDBRANCH  10  14
ENDBRANCH   5   6
ENDBRANCH   4   5
TORSDOF 3
ENDMDL
MODEL      131
REMARK 921   NORMALIZED FREE ENERGY PREDICTED BY IDOCK:   -3.92 KCAL/MOL
REMARK 922        TOTAL FREE ENERGY PREDICTED BY IDOCK:   -5.30 KCAL/MOL
REMARK 923 INTER-LIGAND FREE ENERGY PREDICTED BY IDOCK:   -4.80 KCAL/MOL
REMARK 924 INTRA-LIGAND FREE ENERGY PREDICTED BY IDOCK:   -0.50 KCAL/MOL
REMARK 927      BINDING AFFINITY PREDICTED BY RF-SCORE:    0.00 PKD
ROOT
HETATM    1  C   UNL     1      -6.010  16.395  68.317  1.00  0.00    -0.108 C  
HETATM    2  C   UNL     1      -7.411  15.794  68.222  1.00  0.00    -0.121 C  
HETATM    3  C   UNL     1      -8.377  16.792  67.579  1.00  0.00    -0.200 C  
HETATM    4  C   UNL     1      -7.373  14.470  67.444  1.00  0.00    -0.157 C  
ENDROOT
BRANCH   4   5
HETATM    5  O   UNL     1      -8.702  13.955  67.344  1.00  0.00    -0.181 OA 
BRANCH   5   6
HETATM    6  C   UNL     1      -8.932  12.736  67.921  1.00  0.00    -0.186 A  
HETATM    7  C   UNL     1     -10.255  12.277  67.927  1.00  0.00    -0.202 A  
HETATM    8  C   UNL     1     -10.572  11.053  68.538  1.00  0.00    -0.218 A  
HETATM    9  C   UNL     1     -11.308  13.025  67.299  1.00  0.00    -0.306 C  
HETATM   10  C   UNL     1      -9.583  10.272  69.159  1.00  0.00    -0.229 A  
HETATM   11  N   UNL     1     -12.193  13.583  66.794  1.00  0.00    -0.374 NA 
HETATM   12  C   UNL     1      -7.941  11.971  68.542  1.00  0.00    -0.132 A  
HETATM   13  C   UNL     1      -8.266  10.753  69.155  1.00  0.00    -0.124 A  
BRANCH  10  14
HETATM   14  C   UNL     1      -9.892   8.991  69.821  1.00  0.00    -0.180 A  
HETATM   15  N   UNL     1     -10.106   7.849  69.197  1.00  0.00    -0.192 NA 
HETATM   16  C   UNL     1     -10.360   6.828  70.109  1.00  0.00    -0.202 A  
HETATM   17  C   UNL     1     -10.375   7.226  71.436  1.00  0.00    -0.199 A  
HETATM   18  C   UNL     1     -10.584   5.450  69.587  1.00  0.00    -0.328 C  
HETATM   19  C   UNL     1     -10.623   6.426  72.615  1.00  0.00    -0.224 C  
HETATM   20  S   UNL     1     -10.044   8.903  71.531  1.00  0.00    -0.335 SA 
HETATM   21  O   UNL     1     -10.880   5.231  72.621  1.00  0.00    -0.228 OA 
HETATM   22  O   UNL     1     -10.546   7.139  73.771  1.00  0.00    -0.377 OA 
ENDBRANCH  10  14
ENDBRANCH   5   6
ENDBRANCH   4   5
TORSDOF 3
ENDMDL
MODEL      132
REMARK 921   NORMALIZED FREE ENERGY PREDICTED BY IDOCK:   -3.91 KCAL/MOL
REMARK 922        TOTAL FREE ENERGY PREDICTED BY IDOCK:   -5.29 KCAL/MOL
REMARK 923 INTER-LIGAND FREE ENERGY PREDICTED BY IDOCK:   -5.37 KCAL/MOL
REMARK 924 INTRA-LIGAND FREE ENERGY PREDICTED BY IDOCK:    0.08 KCAL/MOL
REMARK 927      BINDING AFFINITY PREDICTED BY RF-SCORE:    0.00 PKD
ROOT
HETATM    1  C   UNL     1      -9.479  17.665  68.143  1.00  0.00    -0.286 C  
HETATM    2  C   UNL     1     -10.537  16.675  67.659  1.00  0.00    -0.321 C  
HETATM    3  C   UNL     1      -9.981  15.817  66.520  1.00  0.00    -0.283 C  
HETATM    4  C   UNL     1     -11.032  15.808  68.826  1.00  0.00    -0.291 C  
ENDROOT
BRANCH   4   5
HETATM    5  O   UNL     1     -11.992  14.872  68.330  1.00  0.00    -0.299 OA 
BRANCH   5   6
HETATM    6  C   UNL     1     -11.699  13.547  68.499  1.00  0.00    -0.357 A  
HETATM    7  C   UNL     1     -11.734  13.052  69.809  1.00  0.00    -0.346 A  
HETATM    8  C   UNL     1     -11.404  11.711  70.064  1.00  0.00    -0.176 A  
HETATM    9  C   UNL     1     -12.123  13.887  70.912  1.00  0.00    -0.313 C  
HETATM   10  C   UNL     1     -11.027  10.845  69.025  1.00  0.00    -0.285 A  
HETATM   11  N   UNL     1     -12.443  14.513  71.836  1.00  0.00    -0.338 NA 
HETATM   12  C   UNL     1     -11.318  12.696  67.459  1.00  0.00    -0.361 A  
HETATM   13  C   UNL     1     -10.984  11.360  67.722  1.00  0.00    -0.301 A  
BRANCH  10  14
HETATM   14  C   UNL     1     -10.661   9.437  69.268  1.00  0.00    -0.211 A  
HETATM   15  N   UNL     1     -11.403   8.564  69.921  1.00  0.00    -0.036 NA 
HETATM   16  C   UNL     1     -10.779   7.321  69.966  1.00  0.00    -0.245 A  
HETATM   17  C   UNL     1      -9.529   7.277  69.368  1.00  0.00    -0.154 A  
HETATM   18  C   UNL     1     -11.491   6.192  70.630  1.00  0.00    -0.331 C  
HETATM   19  C   UNL     1      -8.620   6.158  69.257  1.00  0.00    -0.119 C  
HETATM   20  S   UNL     1      -9.151   8.819  68.725  1.00  0.00    -0.138 SA 
HETATM   21  O   UNL     1      -8.817   5.037  69.704  1.00  0.00    -0.092 OA 
HETATM   22  O   UNL     1      -7.475   6.462  68.589  1.00  0.00    -0.084 OA 
ENDBRANCH  10  14
ENDBRANCH   5   6
ENDBRANCH   4   5
TORSDOF 3
ENDMDL
MODEL      133
REMARK 921   NORMALIZED FREE ENERGY PREDICTED BY IDOCK:   -3.90 KCAL/MOL
REMARK 922        TOTAL FREE ENERGY PREDICTED BY IDOCK:   -5.27 KCAL/MOL
REMARK 923 INTER-LIGAND FREE ENERGY PREDICTED BY IDOCK:   -4.71 KCAL/MOL
REMARK 924 INTRA-LIGAND FREE ENERGY PREDICTED BY IDOCK:   -0.55 KCAL/MOL
REMARK 927      BINDING AFFINITY PREDICTED BY RF-SCORE:    0.00 PKD
ROOT
HETATM    1  C   UNL     1     -10.845  16.176  68.523  1.00  0.00    -0.313 C  
HETATM    2  C   UNL     1     -11.705  14.920  68.650  1.00  0.00    -0.358 C  
HETATM    3  C   UNL     1     -12.026  14.352  67.266  1.00  0.00    -0.409 C  
HETATM    4  C   UNL     1     -11.004  13.879  69.536  1.00  0.00    -0.063 C  
ENDROOT
BRANCH   4   5
HETATM    5  O   UNL     1     -11.818  12.707  69.603  1.00  0.00    -0.307 OA 
BRANCH   5   6
HETATM    6  C   UNL     1     -11.190  11.512  69.390  1.00  0.00    -0.259 A  
HETATM    7  C   UNL     1     -11.547  10.449  70.229  1.00  0.00    -0.410 A  
HETATM    8  C   UNL     1     -10.913   9.203  70.095  1.00  0.00    -0.267 A  
HETATM    9  C   UNL     1     -12.575  10.595  71.222  1.00  0.00    -0.427 C  
HETATM   10  C   UNL     1      -9.910   8.996  69.135  1.00  0.00    -0.175 A  
HETATM   11  N   UNL     1     -13.406  10.655  72.031  1.00  0.00    -0.400 NA 
HETATM   12  C   UNL     1     -10.187  11.319  68.436  1.00  0.00    -0.205 A  
HETATM   13  C   UNL     1      -9.555  10.075  68.313  1.00  0.00    -0.151 A  
BRANCH  10  14
HETATM   14  C   UNL     1      -9.218   7.703  68.984  1.00  0.00    -0.140 A  
HETATM   15  N   UNL     1      -8.093   7.519  68.323  1.00  0.00    -0.123 NA 
HETATM   16  C   UNL     1      -7.698   6.185  68.380  1.00  0.00    -0.103 A  
HETATM   17  C   UNL     1      -8.568   5.352  69.063  1.00  0.00    -0.102 A  
HETATM   18  C   UNL     1      -6.419   5.794  67.721  1.00  0.00    -0.047 C  
HETATM   19  C   UNL     1      -8.463   3.927  69.289  1.00  0.00    -0.069 C  
HETATM   20  S   UNL     1      -9.886   6.269  69.658  1.00  0.00    -0.167 SA 
HETATM   21  O   UNL     1      -7.561   3.209  68.882  1.00  0.00    -0.048 OA 
HETATM   22  O   UNL     1      -9.494   3.423  70.019  1.00  0.00    -0.171 OA 
ENDBRANCH  10  14
ENDBRANCH   5   6
ENDBRANCH   4   5
TORSDOF 3
ENDMDL
MODEL      134
REMARK 921   NORMALIZED FREE ENERGY PREDICTED BY IDOCK:   -3.88 KCAL/MOL
REMARK 922        TOTAL FREE ENERGY PREDICTED BY IDOCK:   -5.25 KCAL/MOL
REMARK 923 INTER-LIGAND FREE ENERGY PREDICTED BY IDOCK:   -4.80 KCAL/MOL
REMARK 924 INTRA-LIGAND FREE ENERGY PREDICTED BY IDOCK:   -0.45 KCAL/MOL
REMARK 927      BINDING AFFINITY PREDICTED BY RF-SCORE:    0.00 PKD
ROOT
HETATM    1  C   UNL     1      -7.886   5.202  64.588  1.00  0.00    -0.095 C  
HETATM    2  C   UNL     1      -8.681   5.891  65.695  1.00  0.00    -0.149 C  
HETATM    3  C   UNL     1      -8.364   5.256  67.052  1.00  0.00    -0.107 C  
HETATM    4  C   UNL     1      -8.394   7.400  65.700  1.00  0.00    -0.140 C  
ENDROOT
BRANCH   4   5
HETATM    5  O   UNL     1      -9.125   8.004  66.768  1.00  0.00    -0.140 OA 
BRANCH   5   6
HETATM    6  C   UNL     1      -9.359   9.348  66.667  1.00  0.00    -0.163 A  
HETATM    7  C   UNL     1      -8.991  10.140  67.762  1.00  0.00    -0.129 A  
HETATM    8  C   UNL     1      -9.238  11.522  67.745  1.00  0.00    -0.165 A  
HETATM    9  C   UNL     1      -8.338   9.572  68.909  1.00  0.00    -0.121 C  
HETATM   10  C   UNL     1      -9.862  12.137  66.648  1.00  0.00    -0.224 A  
HETATM   11  N   UNL     1      -7.797   9.166  69.853  1.00  0.00    -0.080 NA 
HETATM   12  C   UNL     1      -9.987   9.947  65.573  1.00  0.00    -0.363 A  
HETATM   13  C   UNL     1     -10.237  11.326  65.566  1.00  0.00    -0.312 A  
BRANCH  10  14
HETATM   14  C   UNL     1     -10.148  13.583  66.611  1.00  0.00    -0.277 A  
HETATM   15  N   UNL     1     -10.319  14.293  65.514  1.00  0.00    -0.335 NA 
HETATM   16  C   UNL     1     -10.583  15.625  65.823  1.00  0.00    -0.361 A  
HETATM   17  C   UNL     1     -10.568  15.919  67.177  1.00  0.00    -0.316 A  
HETATM   18  C   UNL     1     -10.848  16.575  64.705  1.00  0.00    -0.145 C  
HETATM   19  C   UNL     1     -10.784  17.194  67.826  1.00  0.00    -0.329 C  
HETATM   20  S   UNL     1     -10.238  14.494  68.067  1.00  0.00    -0.236 SA 
HETATM   21  O   UNL     1     -11.008  18.252  67.255  1.00  0.00    -0.312 OA 
HETATM   22  O   UNL     1     -10.712  17.123  69.183  1.00  0.00    -0.301 OA 
ENDBRANCH  10  14
ENDBRANCH   5   6
ENDBRANCH   4   5
TORSDOF 3
ENDMDL
MODEL      135
REMARK 921   NORMALIZED FREE ENERGY PREDICTED BY IDOCK:   -3.84 KCAL/MOL
REMARK 922        TOTAL FREE ENERGY PREDICTED BY IDOCK:   -5.20 KCAL/MOL
REMARK 923 INTER-LIGAND FREE ENERGY PREDICTED BY IDOCK:   -4.65 KCAL/MOL
REMARK 924 INTRA-LIGAND FREE ENERGY PREDICTED BY IDOCK:   -0.54 KCAL/MOL
REMARK 927      BINDING AFFINITY PREDICTED BY RF-SCORE:    0.00 PKD
ROOT
HETATM    1  C   UNL     1      -7.429   5.553  67.576  1.00  0.00    -0.084 C  
HETATM    2  C   UNL     1      -8.598   6.318  66.959  1.00  0.00    -0.104 C  
HETATM    3  C   UNL     1      -9.735   6.461  67.973  1.00  0.00    -0.122 C  
HETATM    4  C   UNL     1      -8.128   7.687  66.444  1.00  0.00    -0.113 C  
ENDROOT
BRANCH   4   5
HETATM    5  O   UNL     1      -9.253   8.387  65.907  1.00  0.00    -0.195 OA 
BRANCH   5   6
HETATM    6  C   UNL     1      -9.407   9.689  66.298  1.00  0.00    -0.185 A  
HETATM    7  C   UNL     1      -9.459  10.653  65.284  1.00  0.00    -0.270 A  
HETATM    8  C   UNL     1      -9.575  12.014  65.612  1.00  0.00    -0.205 A  
HETATM    9  C   UNL     1      -9.419  10.281  63.897  1.00  0.00    -0.302 C  
HETATM   10  C   UNL     1      -9.630  12.437  66.949  1.00  0.00    -0.219 A  
HETATM   11  N   UNL     1      -9.404  10.034  62.762  1.00  0.00    -0.287 NA 
HETATM   12  C   UNL     1      -9.453  10.099  67.632  1.00  0.00    -0.166 A  
HETATM   13  C   UNL     1      -9.562  11.459  67.952  1.00  0.00    -0.180 A  
BRANCH  10  14
HETATM   14  C   UNL     1      -9.736  13.860  67.321  1.00  0.00    -0.245 A  
HETATM   15  N   UNL     1      -9.352  14.870  66.566  1.00  0.00    -0.266 NA 
HETATM   16  C   UNL     1      -9.597  16.084  67.201  1.00  0.00    -0.218 A  
HETATM   17  C   UNL     1     -10.138  15.974  68.472  1.00  0.00    -0.233 A  
HETATM   18  C   UNL     1      -9.266  17.345  66.478  1.00  0.00    -0.286 C  
HETATM   19  C   UNL     1     -10.492  17.028  69.397  1.00  0.00    -0.250 C  
HETATM   20  S   UNL     1     -10.358  14.320  68.857  1.00  0.00    -0.178 SA 
HETATM   21  O   UNL     1     -10.349  18.226  69.196  1.00  0.00    -0.275 OA 
HETATM   22  O   UNL     1     -11.018  16.565  70.563  1.00  0.00    -0.272 OA 
ENDBRANCH  10  14
ENDBRANCH   5   6
ENDBRANCH   4   5
TORSDOF 3
ENDMDL
MODEL      136
REMARK 921   NORMALIZED FREE ENERGY PREDICTED BY IDOCK:   -3.81 KCAL/MOL
REMARK 922        TOTAL FREE ENERGY PREDICTED BY IDOCK:   -5.17 KCAL/MOL
REMARK 923 INTER-LIGAND FREE ENERGY PREDICTED BY IDOCK:   -4.69 KCAL/MOL
REMARK 924 INTRA-LIGAND FREE ENERGY PREDICTED BY IDOCK:   -0.47 KCAL/MOL
REMARK 927      BINDING AFFINITY PREDICTED BY RF-SCORE:    0.00 PKD
ROOT
HETATM    1  C   UNL     1      -6.765   6.660  71.075  1.00  0.00    -0.054 C  
HETATM    2  C   UNL     1      -8.129   6.939  70.447  1.00  0.00    -0.116 C  
HETATM    3  C   UNL     1      -9.084   7.527  71.488  1.00  0.00    -0.146 C  
HETATM    4  C   UNL     1      -7.979   7.869  69.234  1.00  0.00    -0.117 C  
ENDROOT
BRANCH   4   5
HETATM    5  O   UNL     1      -9.275   8.136  68.695  1.00  0.00    -0.143 OA 
BRANCH   5   6
HETATM    6  C   UNL     1      -9.551   9.439  68.380  1.00  0.00    -0.146 A  
HETATM    7  C   UNL     1      -9.385   9.816  67.042  1.00  0.00    -0.178 A  
HETATM    8  C   UNL     1      -9.610  11.147  66.653  1.00  0.00    -0.215 A  
HETATM    9  C   UNL     1      -9.007   8.861  66.038  1.00  0.00    -0.193 C  
HETATM   10  C   UNL     1      -9.993  12.123  67.587  1.00  0.00    -0.199 A  
HETATM   11  N   UNL     1      -8.716   8.127  65.186  1.00  0.00    -0.076 NA 
HETATM   12  C   UNL     1      -9.924  10.403  69.319  1.00  0.00    -0.246 A  
HETATM   13  C   UNL     1     -10.141  11.731  68.925  1.00  0.00    -0.088 A  
BRANCH  10  14
HETATM   14  C   UNL     1     -10.220  13.530  67.208  1.00  0.00    -0.242 A  
HETATM   15  N   UNL     1     -10.542  13.945  65.998  1.00  0.00    -0.288 NA 
HETATM   16  C   UNL     1     -10.696  15.328  65.975  1.00  0.00    -0.320 A  
HETATM   17  C   UNL     1     -10.443  15.960  67.183  1.00  0.00    -0.313 A  
HETATM   18  C   UNL     1     -11.103  15.977  64.696  1.00  0.00    -0.346 C  
HETATM   19  C   UNL     1     -10.496  17.372  67.491  1.00  0.00    -0.354 C  
HETATM   20  S   UNL     1     -10.030  14.789  68.362  1.00  0.00    -0.228 SA 
HETATM   21  O   UNL     1     -10.768  18.262  66.698  1.00  0.00    -0.330 OA 
HETATM   22  O   UNL     1     -10.203  17.648  68.790  1.00  0.00    -0.354 OA 
ENDBRANCH  10  14
ENDBRANCH   5   6
ENDBRANCH   4   5
TORSDOF 3
ENDMDL
MODEL      137
REMARK 921   NORMALIZED FREE ENERGY PREDICTED BY IDOCK:   -3.80 KCAL/MOL
REMARK 922        TOTAL FREE ENERGY PREDICTED BY IDOCK:   -5.16 KCAL/MOL
REMARK 923 INTER-LIGAND FREE ENERGY PREDICTED BY IDOCK:   -4.44 KCAL/MOL
REMARK 924 INTRA-LIGAND FREE ENERGY PREDICTED BY IDOCK:   -0.72 KCAL/MOL
REMARK 927      BINDING AFFINITY PREDICTED BY RF-SCORE:    0.00 PKD
ROOT
HETATM    1  C   UNL     1     -12.952   8.855  72.309  1.00  0.00    -0.479 C  
HETATM    2  C   UNL     1     -11.774   7.978  71.890  1.00  0.00    -0.351 C  
HETATM    3  C   UNL     1     -10.819   7.771  73.068  1.00  0.00    -0.451 C  
HETATM    4  C   UNL     1     -12.275   6.639  71.330  1.00  0.00    -0.324 C  
ENDROOT
BRANCH   4   5
HETATM    5  O   UNL     1     -11.147   5.833  70.983  1.00  0.00    -0.264 OA 
BRANCH   5   6
HETATM    6  C   UNL     1     -10.555   6.096  69.778  1.00  0.00    -0.280 A  
HETATM    7  C   UNL     1      -9.164   6.258  69.777  1.00  0.00    -0.150 A  
HETATM    8  C   UNL     1      -8.493   6.570  68.583  1.00  0.00    -0.121 A  
HETATM    9  C   UNL     1      -8.392   6.091  70.977  1.00  0.00    -0.124 C  
HETATM   10  C   UNL     1      -9.193   6.735  67.377  1.00  0.00    -0.130 A  
HETATM   11  N   UNL     1      -7.720   5.954  71.914  1.00  0.00    -0.100 NA 
HETATM   12  C   UNL     1     -11.262   6.264  68.585  1.00  0.00    -0.328 A  
HETATM   13  C   UNL     1     -10.586   6.582  67.399  1.00  0.00    -0.364 A  
BRANCH  10  14
HETATM   14  C   UNL     1      -8.514   7.078  66.113  1.00  0.00    -0.135 A  
HETATM   15  N   UNL     1      -8.373   6.265  65.085  1.00  0.00    -0.140 NA 
HETATM   16  C   UNL     1      -7.696   6.895  64.045  1.00  0.00    -0.116 A  
HETATM   17  C   UNL     1      -7.290   8.191  64.320  1.00  0.00    -0.094 A  
HETATM   18  C   UNL     1      -7.480   6.141  62.777  1.00  0.00    -0.065 C  
HETATM   19  C   UNL     1      -6.559   9.107  63.472  1.00  0.00    -0.090 C  
HETATM   20  S   UNL     1      -7.789   8.622  65.900  1.00  0.00    -0.105 SA 
HETATM   21  O   UNL     1      -6.160   8.863  62.342  1.00  0.00    -0.094 OA 
HETATM   22  O   UNL     1      -6.337  10.316  64.054  1.00  0.00    -0.135 OA 
ENDBRANCH  10  14
ENDBRANCH   5   6
ENDBRANCH   4   5
TORSDOF 3
ENDMDL
MODEL      138
REMARK 921   NORMALIZED FREE ENERGY PREDICTED BY IDOCK:   -3.77 KCAL/MOL
REMARK 922        TOTAL FREE ENERGY PREDICTED BY IDOCK:   -5.12 KCAL/MOL
REMARK 923 INTER-LIGAND FREE ENERGY PREDICTED BY IDOCK:   -4.95 KCAL/MOL
REMARK 924 INTRA-LIGAND FREE ENERGY PREDICTED BY IDOCK:   -0.17 KCAL/MOL
REMARK 927      BINDING AFFINITY PREDICTED BY RF-SCORE:    0.00 PKD
ROOT
HETATM    1  C   UNL     1      -6.028   8.880  64.472  1.00  0.00    -0.065 C  
HETATM    2  C   UNL     1      -7.448   9.418  64.636  1.00  0.00    -0.108 C  
HETATM    3  C   UNL     1      -8.378   8.795  63.592  1.00  0.00    -0.146 C  
HETATM    4  C   UNL     1      -7.955   9.164  66.063  1.00  0.00    -0.103 C  
ENDROOT
BRANCH   4   5
HETATM    5  O   UNL     1      -9.296   9.648  66.169  1.00  0.00    -0.166 OA 
BRANCH   5   6
HETATM    6  C   UNL     1      -9.450  10.999  66.317  1.00  0.00    -0.193 A  
HETATM    7  C   UNL     1      -9.182  11.532  67.584  1.00  0.00    -0.171 A  
HETATM    8  C   UNL     1      -9.359  12.905  67.821  1.00  0.00    -0.203 A  
HETATM    9  C   UNL     1      -8.705  10.704  68.657  1.00  0.00    -0.148 C  
HETATM   10  C   UNL     1      -9.811  13.766  66.809  1.00  0.00    -0.275 A  
HETATM   11  N   UNL     1      -8.305  10.083  69.554  1.00  0.00    -0.159 NA 
HETATM   12  C   UNL     1      -9.908  11.845  65.304  1.00  0.00    -0.255 A  
HETATM   13  C   UNL     1     -10.088  13.213  65.550  1.00  0.00    -0.271 A  
BRANCH  10  14
HETATM   14  C   UNL     1     -10.019  15.208  67.036  1.00  0.00    -0.241 A  
HETATM   15  N   UNL     1      -9.980  15.802  68.212  1.00  0.00    -0.219 NA 
HETATM   16  C   UNL     1     -10.206  17.170  68.083  1.00  0.00    -0.332 A  
HETATM   17  C   UNL     1     -10.458  17.596  66.789  1.00  0.00    -0.289 A  
HETATM   18  C   UNL     1     -10.157  18.017  69.309  1.00  0.00    -0.094 C  
HETATM   19  C   UNL     1     -10.746  18.933  66.319  1.00  0.00    -0.287 C  
HETATM   20  S   UNL     1     -10.387  16.256  65.724  1.00  0.00    -0.355 SA 
HETATM   21  O   UNL     1     -10.827  19.930  67.021  1.00  0.00    -0.424 OA 
HETATM   22  O   UNL     1     -10.930  19.000  64.973  1.00  0.00    -0.440 OA 
ENDBRANCH  10  14
ENDBRANCH   5   6
ENDBRANCH   4   5
TORSDOF 3
ENDMDL
MODEL      139
REMARK 921   NORMALIZED FREE ENERGY PREDICTED BY IDOCK:   -3.76 KCAL/MOL
REMARK 922        TOTAL FREE ENERGY PREDICTED BY IDOCK:   -5.10 KCAL/MOL
REMARK 923 INTER-LIGAND FREE ENERGY PREDICTED BY IDOCK:   -4.52 KCAL/MOL
REMARK 924 INTRA-LIGAND FREE ENERGY PREDICTED BY IDOCK:   -0.58 KCAL/MOL
REMARK 927      BINDING AFFINITY PREDICTED BY RF-SCORE:    0.00 PKD
ROOT
HETATM    1  C   UNL     1      -8.402   8.109  73.877  1.00  0.00    -0.311 C  
HETATM    2  C   UNL     1      -9.224   6.942  73.333  1.00  0.00    -0.170 C  
HETATM    3  C   UNL     1     -10.014   6.275  74.461  1.00  0.00    -0.356 C  
HETATM    4  C   UNL     1     -10.151   7.420  72.205  1.00  0.00    -0.190 C  
ENDROOT
BRANCH   4   5
HETATM    5  O   UNL     1     -10.928   6.312  71.746  1.00  0.00    -0.238 OA 
BRANCH   5   6
HETATM    6  C   UNL     1     -10.680   5.876  70.473  1.00  0.00    -0.294 A  
HETATM    7  C   UNL     1      -9.973   4.674  70.341  1.00  0.00    -0.300 A  
HETATM    8  C   UNL     1      -9.647   4.186  69.065  1.00  0.00    -0.232 A  
HETATM    9  C   UNL     1      -9.587   3.905  71.492  1.00  0.00    -0.166 C  
HETATM   10  C   UNL     1     -10.007   4.888  67.904  1.00  0.00    -0.181 A  
HETATM   11  N   UNL     1      -9.263   3.239  72.386  1.00  0.00    -0.099 NA 
HETATM   12  C   UNL     1     -11.037   6.586  69.324  1.00  0.00    -0.393 A  
HETATM   13  C   UNL     1     -10.702   6.097  68.055  1.00  0.00    -0.370 A  
BRANCH  10  14
HETATM   14  C   UNL     1      -9.663   4.405  66.554  1.00  0.00    -0.215 A  
HETATM   15  N   UNL     1     -10.498   4.349  65.534  1.00  0.00    -0.251 NA 
HETATM   16  C   UNL     1      -9.860   3.858  64.399  1.00  0.00    -0.188 A  
HETATM   17  C   UNL     1      -8.534   3.503  64.588  1.00  0.00    -0.096 A  
HETATM   18  C   UNL     1     -10.638   3.763  63.132  1.00  0.00    -0.217 C  
HETATM   19  C   UNL     1      -7.602   2.951  63.629  1.00  0.00    -0.067 C  
HETATM   20  S   UNL     1      -8.085   3.815  66.211  1.00  0.00    -0.101 SA 
HETATM   21  O   UNL     1      -7.856   2.689  62.462  1.00  0.00    -0.063 OA 
HETATM   22  O   UNL     1      -6.364   2.732  64.149  1.00  0.00    -0.021 OA 
ENDBRANCH  10  14
ENDBRANCH   5   6
ENDBRANCH   4   5
TORSDOF 3
ENDMDL
MODEL      140
REMARK 921   NORMALIZED FREE ENERGY PREDICTED BY IDOCK:   -3.76 KCAL/MOL
REMARK 922        TOTAL FREE ENERGY PREDICTED BY IDOCK:   -5.10 KCAL/MOL
REMARK 923 INTER-LIGAND FREE ENERGY PREDICTED BY IDOCK:   -4.50 KCAL/MOL
REMARK 924 INTRA-LIGAND FREE ENERGY PREDICTED BY IDOCK:   -0.60 KCAL/MOL
REMARK 927      BINDING AFFINITY PREDICTED BY RF-SCORE:    0.00 PKD
ROOT
HETATM    1  C   UNL     1      -9.837   7.343  72.105  1.00  0.00    -0.205 C  
HETATM    2  C   UNL     1      -9.606   7.763  70.655  1.00  0.00    -0.166 C  
HETATM    3  C   UNL     1      -9.618   6.538  69.738  1.00  0.00    -0.161 C  
HETATM    4  C   UNL     1     -10.656   8.797  70.224  1.00  0.00    -0.216 C  
ENDROOT
BRANCH   4   5
HETATM    5  O   UNL     1     -10.431   9.139  68.854  1.00  0.00    -0.218 OA 
BRANCH   5   6
HETATM    6  C   UNL     1     -10.150  10.451  68.589  1.00  0.00    -0.176 A  
HETATM    7  C   UNL     1      -8.853  10.745  68.150  1.00  0.00    -0.133 A  
HETATM    8  C   UNL     1      -8.481  12.076  67.897  1.00  0.00    -0.160 A  
HETATM    9  C   UNL     1      -7.887   9.706  67.926  1.00  0.00    -0.087 C  
HETATM   10  C   UNL     1      -9.385  13.133  68.086  1.00  0.00    -0.217 A  
HETATM   11  N   UNL     1      -7.073   8.904  67.717  1.00  0.00    -0.079 NA 
HETATM   12  C   UNL     1     -11.056  11.496  68.788  1.00  0.00    -0.288 A  
HETATM   13  C   UNL     1     -10.675  12.822  68.540  1.00  0.00    -0.275 A  
BRANCH  10  14
HETATM   14  C   UNL     1      -9.014  14.539  67.844  1.00  0.00    -0.187 A  
HETATM   15  N   UNL     1      -8.075  14.942  67.010  1.00  0.00    -0.202 NA 
HETATM   16  C   UNL     1      -7.981  16.330  67.005  1.00  0.00    -0.213 A  
HETATM   17  C   UNL     1      -8.839  16.973  67.882  1.00  0.00    -0.224 A  
HETATM   18  C   UNL     1      -6.997  16.972  66.086  1.00  0.00    -0.103 C  
HETATM   19  C   UNL     1      -8.980  18.391  68.130  1.00  0.00    -0.309 C  
HETATM   20  S   UNL     1      -9.790  15.810  68.704  1.00  0.00    -0.219 SA 
HETATM   21  O   UNL     1      -8.328  19.274  67.593  1.00  0.00    -0.280 OA 
HETATM   22  O   UNL     1      -9.938  18.681  69.053  1.00  0.00    -0.385 OA 
ENDBRANCH  10  14
ENDBRANCH   5   6
ENDBRANCH   4   5
TORSDOF 3
ENDMDL
MODEL      141
REMARK 921   NORMALIZED FREE ENERGY PREDICTED BY IDOCK:   -3.75 KCAL/MOL
REMARK 922        TOTAL FREE ENERGY PREDICTED BY IDOCK:   -5.09 KCAL/MOL
REMARK 923 INTER-LIGAND FREE ENERGY PREDICTED BY IDOCK:   -4.55 KCAL/MOL
REMARK 924 INTRA-LIGAND FREE ENERGY PREDICTED BY IDOCK:   -0.55 KCAL/MOL
REMARK 927      BINDING AFFINITY PREDICTED BY RF-SCORE:    0.00 PKD
ROOT
HETATM    1  C   UNL     1      -8.459   2.289  65.842  1.00  0.00    -0.101 C  
HETATM    2  C   UNL     1      -8.281   3.775  65.539  1.00  0.00    -0.101 C  
HETATM    3  C   UNL     1      -9.478   4.305  64.747  1.00  0.00    -0.167 C  
HETATM    4  C   UNL     1      -8.074   4.566  66.840  1.00  0.00    -0.102 C  
ENDROOT
BRANCH   4   5
HETATM    5  O   UNL     1      -7.947   5.953  66.521  1.00  0.00    -0.100 OA 
BRANCH   5   6
HETATM    6  C   UNL     1      -8.721   6.820  67.242  1.00  0.00    -0.119 A  
HETATM    7  C   UNL     1      -9.002   8.060  66.652  1.00  0.00    -0.179 A  
HETATM    8  C   UNL     1      -9.756   9.016  67.351  1.00  0.00    -0.217 A  
HETATM    9  C   UNL     1      -8.550   8.375  65.326  1.00  0.00    -0.150 C  
HETATM   10  C   UNL     1     -10.235   8.761  68.646  1.00  0.00    -0.214 A  
HETATM   11  N   UNL     1      -8.221   8.675  64.253  1.00  0.00    -0.165 NA 
HETATM   12  C   UNL     1      -9.186   6.559  68.533  1.00  0.00    -0.125 A  
HETATM   13  C   UNL     1      -9.933   7.521  69.226  1.00  0.00    -0.179 A  
BRANCH  10  14
HETATM   14  C   UNL     1     -11.016   9.754  69.407  1.00  0.00    -0.212 A  
HETATM   15  N   UNL     1     -11.874   9.468  70.366  1.00  0.00    -0.183 NA 
HETATM   16  C   UNL     1     -12.435  10.629  70.890  1.00  0.00    -0.397 A  
HETATM   17  C   UNL     1     -12.017  11.801  70.280  1.00  0.00    -0.343 A  
HETATM   18  C   UNL     1     -13.401  10.505  72.018  1.00  0.00    -0.420 C  
HETATM   19  C   UNL     1     -12.415  13.161  70.569  1.00  0.00    -0.248 C  
HETATM   20  S   UNL     1     -10.886  11.431  69.049  1.00  0.00    -0.211 SA 
HETATM   21  O   UNL     1     -13.226  13.497  71.421  1.00  0.00    -0.331 OA 
HETATM   22  O   UNL     1     -11.793  14.081  69.783  1.00  0.00    -0.284 OA 
ENDBRANCH  10  14
ENDBRANCH   5   6
ENDBRANCH   4   5
TORSDOF 3
ENDMDL
MODEL      142
REMARK 921   NORMALIZED FREE ENERGY PREDICTED BY IDOCK:   -3.74 KCAL/MOL
REMARK 922        TOTAL FREE ENERGY PREDICTED BY IDOCK:   -5.08 KCAL/MOL
REMARK 923 INTER-LIGAND FREE ENERGY PREDICTED BY IDOCK:   -4.64 KCAL/MOL
REMARK 924 INTRA-LIGAND FREE ENERGY PREDICTED BY IDOCK:   -0.44 KCAL/MOL
REMARK 927      BINDING AFFINITY PREDICTED BY RF-SCORE:    0.00 PKD
ROOT
HETATM    1  C   UNL     1      -9.527   4.215  71.323  1.00  0.00    -0.230 C  
HETATM    2  C   UNL     1      -8.909   4.780  70.046  1.00  0.00    -0.122 C  
HETATM    3  C   UNL     1      -8.914   3.723  68.939  1.00  0.00    -0.178 C  
HETATM    4  C   UNL     1      -9.649   6.053  69.611  1.00  0.00    -0.148 C  
ENDROOT
BRANCH   4   5
HETATM    5  O   UNL     1      -9.068   6.532  68.396  1.00  0.00    -0.125 OA 
BRANCH   5   6
HETATM    6  C   UNL     1      -9.352   7.824  68.049  1.00  0.00    -0.141 A  
HETATM    7  C   UNL     1      -9.057   8.208  66.735  1.00  0.00    -0.191 A  
HETATM    8  C   UNL     1      -9.283   9.530  66.320  1.00  0.00    -0.219 A  
HETATM    9  C   UNL     1      -8.541   7.266  65.781  1.00  0.00    -0.131 C  
HETATM   10  C   UNL     1      -9.797  10.493  67.205  1.00  0.00    -0.213 A  
HETATM   11  N   UNL     1      -8.136   6.543  64.967  1.00  0.00    -0.128 NA 
HETATM   12  C   UNL     1      -9.856   8.775  68.940  1.00  0.00    -0.183 A  
HETATM   13  C   UNL     1     -10.073  10.095  68.521  1.00  0.00    -0.186 A  
BRANCH  10  14
HETATM   14  C   UNL     1     -10.029  11.891  66.799  1.00  0.00    -0.195 A  
HETATM   15  N   UNL     1     -10.940  12.286  65.931  1.00  0.00    -0.290 NA 
HETATM   16  C   UNL     1     -10.910  13.669  65.777  1.00  0.00    -0.273 A  
HETATM   17  C   UNL     1      -9.929  14.312  66.514  1.00  0.00    -0.281 A  
HETATM   18  C   UNL     1     -11.902  14.304  64.864  1.00  0.00    -0.414 C  
HETATM   19  C   UNL     1      -9.620  15.724  66.567  1.00  0.00    -0.265 C  
HETATM   20  S   UNL     1      -9.052  13.159  67.427  1.00  0.00    -0.219 SA 
HETATM   21  O   UNL     1     -10.192  16.600  65.933  1.00  0.00    -0.340 OA 
HETATM   22  O   UNL     1      -8.596  16.018  67.413  1.00  0.00    -0.169 OA 
ENDBRANCH  10  14
ENDBRANCH   5   6
ENDBRANCH   4   5
TORSDOF 3
ENDMDL
MODEL      143
REMARK 921   NORMALIZED FREE ENERGY PREDICTED BY IDOCK:   -3.72 KCAL/MOL
REMARK 922        TOTAL FREE ENERGY PREDICTED BY IDOCK:   -5.07 KCAL/MOL
REMARK 923 INTER-LIGAND FREE ENERGY PREDICTED BY IDOCK:   -5.28 KCAL/MOL
REMARK 924 INTRA-LIGAND FREE ENERGY PREDICTED BY IDOCK:    0.21 KCAL/MOL
REMARK 927      BINDING AFFINITY PREDICTED BY RF-SCORE:    0.00 PKD
ROOT
HETATM    1  C   UNL     1     -10.539   9.239  71.328  1.00  0.00    -0.417 C  
HETATM    2  C   UNL     1     -10.575   9.894  69.949  1.00  0.00    -0.312 C  
HETATM    3  C   UNL     1     -10.492   8.830  68.852  1.00  0.00    -0.217 C  
HETATM    4  C   UNL     1     -11.836  10.758  69.800  1.00  0.00    -0.335 C  
ENDROOT
BRANCH   4   5
HETATM    5  O   UNL     1     -11.853  11.325  68.488  1.00  0.00    -0.438 OA 
BRANCH   5   6
HETATM    6  C   UNL     1     -11.222  12.529  68.333  1.00  0.00    -0.272 A  
HETATM    7  C   UNL     1      -9.987  12.516  67.672  1.00  0.00    -0.201 A  
HETATM    8  C   UNL     1      -9.262  13.708  67.513  1.00  0.00    -0.218 A  
HETATM    9  C   UNL     1      -9.444  11.303  67.127  1.00  0.00    -0.170 C  
HETATM   10  C   UNL     1      -9.747  14.927  68.014  1.00  0.00    -0.212 A  
HETATM   11  N   UNL     1      -8.967  10.354  66.656  1.00  0.00    -0.140 NA 
HETATM   12  C   UNL     1     -11.710  13.734  68.843  1.00  0.00    -0.374 A  
HETATM   13  C   UNL     1     -10.978  14.919  68.685  1.00  0.00    -0.263 A  
BRANCH  10  14
HETATM   14  C   UNL     1      -8.998  16.190  67.874  1.00  0.00    -0.183 A  
HETATM   15  N   UNL     1      -7.762  16.292  67.428  1.00  0.00    -0.147 NA 
HETATM   16  C   UNL     1      -7.351  17.621  67.408  1.00  0.00    -0.185 A  
HETATM   17  C   UNL     1      -8.287  18.524  67.887  1.00  0.00    -0.265 A  
HETATM   18  C   UNL     1      -5.989  17.936  66.891  1.00  0.00    -0.176 C  
HETATM   19  C   UNL     1      -8.171  19.960  68.016  1.00  0.00    -0.263 C  
HETATM   20  S   UNL     1      -9.707  17.684  68.345  1.00  0.00    -0.337 SA 
HETATM   21  O   UNL     1      -7.186  20.622  67.723  1.00  0.00    -0.301 OA 
HETATM   22  O   UNL     1      -9.294  20.545  68.513  1.00  0.00     0.145 OA 
ENDBRANCH  10  14
ENDBRANCH   5   6
ENDBRANCH   4   5
TORSDOF 3
ENDMDL
MODEL      144
REMARK 921   NORMALIZED FREE ENERGY PREDICTED BY IDOCK:   -3.67 KCAL/MOL
REMARK 922        TOTAL FREE ENERGY PREDICTED BY IDOCK:   -5.01 KCAL/MOL
REMARK 923 INTER-LIGAND FREE ENERGY PREDICTED BY IDOCK:   -4.54 KCAL/MOL
REMARK 924 INTRA-LIGAND FREE ENERGY PREDICTED BY IDOCK:   -0.47 KCAL/MOL
REMARK 927      BINDING AFFINITY PREDICTED BY RF-SCORE:    0.00 PKD
ROOT
HETATM    1  C   UNL     1      -7.019   2.997  71.661  1.00  0.00    -0.031 C  
HETATM    2  C   UNL     1      -8.437   3.506  71.407  1.00  0.00    -0.093 C  
HETATM    3  C   UNL     1      -9.292   3.351  72.667  1.00  0.00    -0.150 C  
HETATM    4  C   UNL     1      -8.404   4.964  70.926  1.00  0.00    -0.107 C  
ENDROOT
BRANCH   4   5
HETATM    5  O   UNL     1      -9.746   5.416  70.734  1.00  0.00    -0.164 OA 
BRANCH   5   6
HETATM    6  C   UNL     1      -9.901   6.701  70.289  1.00  0.00    -0.174 A  
HETATM    7  C   UNL     1     -10.418   7.629  71.202  1.00  0.00    -0.220 A  
HETATM    8  C   UNL     1     -10.643   8.957  70.803  1.00  0.00    -0.281 A  
HETATM    9  C   UNL     1     -10.707   7.260  72.560  1.00  0.00    -0.262 C  
HETATM   10  C   UNL     1     -10.369   9.380  69.492  1.00  0.00    -0.223 A  
HETATM   11  N   UNL     1     -10.944   7.018  73.670  1.00  0.00    -0.171 NA 
HETATM   12  C   UNL     1      -9.632   7.108  68.980  1.00  0.00    -0.146 A  
HETATM   13  C   UNL     1      -9.866   8.433  68.588  1.00  0.00    -0.180 A  
BRANCH  10  14
HETATM   14  C   UNL     1     -10.611  10.763  69.044  1.00  0.00    -0.219 A  
HETATM   15  N   UNL     1     -10.126  11.297  67.941  1.00  0.00    -0.174 NA 
HETATM   16  C   UNL     1     -10.549  12.616  67.801  1.00  0.00    -0.220 A  
HETATM   17  C   UNL     1     -11.333  13.086  68.844  1.00  0.00    -0.287 A  
HETATM   18  C   UNL     1     -10.133  13.371  66.586  1.00  0.00    -0.275 C  
HETATM   19  C   UNL     1     -11.914  14.399  69.014  1.00  0.00    -0.307 C  
HETATM   20  S   UNL     1     -11.553  11.840  69.998  1.00  0.00    -0.174 SA 
HETATM   21  O   UNL     1     -11.787  15.338  68.241  1.00  0.00    -0.336 OA 
HETATM   22  O   UNL     1     -12.645  14.517  70.155  1.00  0.00    -0.341 OA 
ENDBRANCH  10  14
ENDBRANCH   5   6
ENDBRANCH   4   5
TORSDOF 3
ENDMDL
MODEL      145
REMARK 921   NORMALIZED FREE ENERGY PREDICTED BY IDOCK:   -3.67 KCAL/MOL
REMARK 922        TOTAL FREE ENERGY PREDICTED BY IDOCK:   -5.00 KCAL/MOL
REMARK 923 INTER-LIGAND FREE ENERGY PREDICTED BY IDOCK:   -4.84 KCAL/MOL
REMARK 924 INTRA-LIGAND FREE ENERGY PREDICTED BY IDOCK:   -0.16 KCAL/MOL
REMARK 927      BINDING AFFINITY PREDICTED BY RF-SCORE:    0.00 PKD
ROOT
HETATM    1  C   UNL     1      -8.592  14.478  67.698  1.00  0.00    -0.184 C  
HETATM    2  C   UNL     1      -9.720  13.449  67.669  1.00  0.00    -0.222 C  
HETATM    3  C   UNL     1     -10.992  14.035  68.287  1.00  0.00    -0.272 C  
HETATM    4  C   UNL     1      -9.965  12.964  66.233  1.00  0.00    -0.270 C  
ENDROOT
BRANCH   4   5
HETATM    5  O   UNL     1     -11.048  12.031  66.239  1.00  0.00    -0.289 OA 
BRANCH   5   6
HETATM    6  C   UNL     1     -10.794  10.802  66.782  1.00  0.00    -0.194 A  
HETATM    7  C   UNL     1     -10.193   9.852  65.946  1.00  0.00    -0.264 A  
HETATM    8  C   UNL     1      -9.941   8.555  66.423  1.00  0.00    -0.314 A  
HETATM    9  C   UNL     1      -9.805  10.178  64.602  1.00  0.00    -0.291 C  
HETATM   10  C   UNL     1     -10.288   8.180  67.731  1.00  0.00    -0.295 A  
HETATM   11  N   UNL     1      -9.459  10.394  63.515  1.00  0.00    -0.292 NA 
HETATM   12  C   UNL     1     -11.150  10.438  68.083  1.00  0.00    -0.344 A  
HETATM   13  C   UNL     1     -10.901   9.140  68.549  1.00  0.00    -0.089 A  
BRANCH  10  14
HETATM   14  C   UNL     1     -10.047   6.821  68.251  1.00  0.00    -0.161 A  
HETATM   15  N   UNL     1      -9.669   5.789  67.524  1.00  0.00    -0.114 NA 
HETATM   16  C   UNL     1      -9.519   4.654  68.316  1.00  0.00    -0.147 A  
HETATM   17  C   UNL     1      -9.831   4.837  69.654  1.00  0.00    -0.221 A  
HETATM   18  C   UNL     1      -9.053   3.394  67.671  1.00  0.00    -0.204 C  
HETATM   19  C   UNL     1      -9.799   3.869  70.728  1.00  0.00    -0.141 C  
HETATM   20  S   UNL     1     -10.297   6.464  69.914  1.00  0.00    -0.211 SA 
HETATM   21  O   UNL     1      -9.492   2.691  70.613  1.00  0.00    -0.141 OA 
HETATM   22  O   UNL     1     -10.155   4.392  71.932  1.00  0.00    -0.179 OA 
ENDBRANCH  10  14
ENDBRANCH   5   6
ENDBRANCH   4   5
TORSDOF 3
ENDMDL
MODEL      146
REMARK 921   NORMALIZED FREE ENERGY PREDICTED BY IDOCK:   -3.61 KCAL/MOL
REMARK 922        TOTAL FREE ENERGY PREDICTED BY IDOCK:   -4.93 KCAL/MOL
REMARK 923 INTER-LIGAND FREE ENERGY PREDICTED BY IDOCK:   -4.25 KCAL/MOL
REMARK 924 INTRA-LIGAND FREE ENERGY PREDICTED BY IDOCK:   -0.68 KCAL/MOL
REMARK 927      BINDING AFFINITY PREDICTED BY RF-SCORE:    0.00 PKD
ROOT
HETATM    1  C   UNL     1     -12.636  14.294  72.579  1.00  0.00    -0.319 C  
HETATM    2  C   UNL     1     -12.916  12.844  72.193  1.00  0.00    -0.350 C  
HETATM    3  C   UNL     1     -14.409  12.535  72.326  1.00  0.00     0.511 C  
HETATM    4  C   UNL     1     -12.408  12.561  70.771  1.00  0.00    -0.286 C  
ENDROOT
BRANCH   4   5
HETATM    5  O   UNL     1     -12.718  11.208  70.432  1.00  0.00    -0.250 OA 
BRANCH   5   6
HETATM    6  C   UNL     1     -11.723  10.287  70.615  1.00  0.00    -0.348 A  
HETATM    7  C   UNL     1     -11.992   9.229  71.492  1.00  0.00    -0.439 A  
HETATM    8  C   UNL     1     -11.002   8.269  71.761  1.00  0.00    -0.342 A  
HETATM    9  C   UNL     1     -13.277   9.085  72.116  1.00  0.00    -0.446 C  
HETATM   10  C   UNL     1      -9.730   8.350  71.172  1.00  0.00    -0.236 A  
HETATM   11  N   UNL     1     -14.302   8.914  72.636  1.00  0.00    -0.584 NA 
HETATM   12  C   UNL     1     -10.458  10.383  70.029  1.00  0.00    -0.235 A  
HETATM   13  C   UNL     1      -9.474   9.425  70.307  1.00  0.00    -0.294 A  
BRANCH  10  14
HETATM   14  C   UNL     1      -8.669   7.365  71.449  1.00  0.00    -0.125 A  
HETATM   15  N   UNL     1      -7.397   7.516  71.139  1.00  0.00    -0.070 NA 
HETATM   16  C   UNL     1      -6.654   6.411  71.546  1.00  0.00    -0.054 A  
HETATM   17  C   UNL     1      -7.397   5.399  72.134  1.00  0.00    -0.093 A  
HETATM   18  C   UNL     1      -5.181   6.420  71.317  1.00  0.00    -0.018 C  
HETATM   19  C   UNL     1      -6.940   4.125  72.645  1.00  0.00    -0.056 C  
HETATM   20  S   UNL     1      -9.044   5.861  72.192  1.00  0.00    -0.142 SA 
HETATM   21  O   UNL     1      -5.785   3.724  72.623  1.00  0.00    -0.007 OA 
HETATM   22  O   UNL     1      -7.941   3.371  73.175  1.00  0.00    -0.068 OA 
ENDBRANCH  10  14
ENDBRANCH   5   6
ENDBRANCH   4   5
TORSDOF 3
ENDMDL
MODEL      147
REMARK 921   NORMALIZED FREE ENERGY PREDICTED BY IDOCK:   -3.56 KCAL/MOL
REMARK 922        TOTAL FREE ENERGY PREDICTED BY IDOCK:   -4.87 KCAL/MOL
REMARK 923 INTER-LIGAND FREE ENERGY PREDICTED BY IDOCK:   -4.35 KCAL/MOL
REMARK 924 INTRA-LIGAND FREE ENERGY PREDICTED BY IDOCK:   -0.52 KCAL/MOL
REMARK 927      BINDING AFFINITY PREDICTED BY RF-SCORE:    0.00 PKD
ROOT
HETATM    1  C   UNL     1      -8.211  20.073  66.021  1.00  0.00    -0.265 C  
HETATM    2  C   UNL     1      -8.438  19.272  67.301  1.00  0.00    -0.314 C  
HETATM    3  C   UNL     1      -9.841  19.535  67.853  1.00  0.00    -0.485 C  
HETATM    4  C   UNL     1      -8.208  17.775  67.043  1.00  0.00    -0.221 C  
ENDROOT
BRANCH   4   5
HETATM    5  O   UNL     1      -8.463  17.054  68.250  1.00  0.00    -0.217 OA 
BRANCH   5   6
HETATM    6  C   UNL     1      -8.520  15.692  68.149  1.00  0.00    -0.147 A  
HETATM    7  C   UNL     1      -9.753  15.087  68.421  1.00  0.00    -0.216 A  
HETATM    8  C   UNL     1      -9.876  13.689  68.378  1.00  0.00    -0.223 A  
HETATM    9  C   UNL     1     -10.918  15.871  68.727  1.00  0.00    -0.301 C  
HETATM   10  C   UNL     1      -8.776  12.870  68.073  1.00  0.00    -0.191 A  
HETATM   11  N   UNL     1     -11.892  16.457  68.966  1.00  0.00    -0.098 NA 
HETATM   12  C   UNL     1      -7.417  14.887  67.853  1.00  0.00    -0.153 A  
HETATM   13  C   UNL     1      -7.546  13.492  67.818  1.00  0.00    -0.163 A  
BRANCH  10  14
HETATM   14  C   UNL     1      -8.875  11.400  68.036  1.00  0.00    -0.155 A  
HETATM   15  N   UNL     1      -9.476  10.705  67.091  1.00  0.00    -0.155 NA 
HETATM   16  C   UNL     1      -9.382   9.340  67.344  1.00  0.00    -0.127 A  
HETATM   17  C   UNL     1      -8.733   9.013  68.524  1.00  0.00    -0.133 A  
HETATM   18  C   UNL     1      -9.969   8.391  66.356  1.00  0.00    -0.291 C  
HETATM   19  C   UNL     1      -8.485   7.703  69.085  1.00  0.00    -0.138 C  
HETATM   20  S   UNL     1      -8.219  10.446  69.307  1.00  0.00    -0.142 SA 
HETATM   21  O   UNL     1      -8.835   6.641  68.590  1.00  0.00    -0.124 OA 
HETATM   22  O   UNL     1      -7.802   7.744  70.261  1.00  0.00    -0.088 OA 
ENDBRANCH  10  14
ENDBRANCH   5   6
ENDBRANCH   4   5
TORSDOF 3
ENDMDL
MODEL      148
REMARK 921   NORMALIZED FREE ENERGY PREDICTED BY IDOCK:   -3.55 KCAL/MOL
REMARK 922        TOTAL FREE ENERGY PREDICTED BY IDOCK:   -4.86 KCAL/MOL
REMARK 923 INTER-LIGAND FREE ENERGY PREDICTED BY IDOCK:   -4.59 KCAL/MOL
REMARK 924 INTRA-LIGAND FREE ENERGY PREDICTED BY IDOCK:   -0.28 KCAL/MOL
REMARK 927      BINDING AFFINITY PREDICTED BY RF-SCORE:    0.00 PKD
ROOT
HETATM    1  C   UNL     1      -6.284   3.476  67.560  1.00  0.00    -0.036 C  
HETATM    2  C   UNL     1      -7.122   4.466  68.366  1.00  0.00    -0.056 C  
HETATM    3  C   UNL     1      -6.473   4.728  69.728  1.00  0.00    -0.035 C  
HETATM    4  C   UNL     1      -7.316   5.770  67.577  1.00  0.00    -0.077 C  
ENDROOT
BRANCH   4   5
HETATM    5  O   UNL     1      -8.073   6.683  68.375  1.00  0.00    -0.113 OA 
BRANCH   5   6
HETATM    6  C   UNL     1      -8.599   7.768  67.730  1.00  0.00    -0.121 A  
HETATM    7  C   UNL     1      -7.808   8.922  67.680  1.00  0.00    -0.101 A  
HETATM    8  C   UNL     1      -8.300  10.087  67.070  1.00  0.00    -0.121 A  
HETATM    9  C   UNL     1      -6.478   8.940  68.224  1.00  0.00    -0.059 C  
HETATM   10  C   UNL     1      -9.587  10.128  66.510  1.00  0.00    -0.236 A  
HETATM   11  N   UNL     1      -5.394   9.004  68.636  1.00  0.00    -0.034 NA 
HETATM   12  C   UNL     1      -9.884   7.799  67.183  1.00  0.00    -0.270 A  
HETATM   13  C   UNL     1     -10.371   8.967  66.581  1.00  0.00    -0.289 A  
BRANCH  10  14
HETATM   14  C   UNL     1     -10.133  11.342  65.878  1.00  0.00    -0.243 A  
HETATM   15  N   UNL     1     -10.957  11.355  64.848  1.00  0.00    -0.256 NA 
HETATM   16  C   UNL     1     -11.294  12.660  64.500  1.00  0.00    -0.333 A  
HETATM   17  C   UNL     1     -10.677  13.640  65.261  1.00  0.00    -0.336 A  
HETATM   18  C   UNL     1     -12.254  12.871  63.379  1.00  0.00    -0.574 C  
HETATM   19  C   UNL     1     -10.795  15.077  65.149  1.00  0.00    -0.407 C  
HETATM   20  S   UNL     1      -9.679  12.902  66.440  1.00  0.00    -0.254 SA 
HETATM   21  O   UNL     1     -11.475  15.671  64.324  1.00  0.00    -0.347 OA 
HETATM   22  O   UNL     1     -10.057  15.749  66.073  1.00  0.00    -0.290 OA 
ENDBRANCH  10  14
ENDBRANCH   5   6
ENDBRANCH   4   5
TORSDOF 3
ENDMDL
MODEL      149
REMARK 921   NORMALIZED FREE ENERGY PREDICTED BY IDOCK:   -3.54 KCAL/MOL
REMARK 922        TOTAL FREE ENERGY PREDICTED BY IDOCK:   -4.85 KCAL/MOL
REMARK 923 INTER-LIGAND FREE ENERGY PREDICTED BY IDOCK:   -4.39 KCAL/MOL
REMARK 924 INTRA-LIGAND FREE ENERGY PREDICTED BY IDOCK:   -0.46 KCAL/MOL
REMARK 927      BINDING AFFINITY PREDICTED BY RF-SCORE:    0.00 PKD
ROOT
HETATM    1  C   UNL     1      -6.466   6.769  63.406  1.00  0.00    -0.042 C  
HETATM    2  C   UNL     1      -7.351   6.424  64.601  1.00  0.00    -0.073 C  
HETATM    3  C   UNL     1      -7.382   4.910  64.823  1.00  0.00    -0.064 C  
HETATM    4  C   UNL     1      -6.867   7.166  65.857  1.00  0.00    -0.057 C  
ENDROOT
BRANCH   4   5
HETATM    5  O   UNL     1      -7.695   6.792  66.960  1.00  0.00    -0.097 OA 
BRANCH   5   6
HETATM    6  C   UNL     1      -8.478   7.776  67.499  1.00  0.00    -0.120 A  
HETATM    7  C   UNL     1      -8.058   8.324  68.718  1.00  0.00    -0.115 A  
HETATM    8  C   UNL     1      -8.833   9.309  69.351  1.00  0.00    -0.149 A  
HETATM    9  C   UNL     1      -6.827   7.914  69.336  1.00  0.00    -0.047 C  
HETATM   10  C   UNL     1     -10.039   9.758  68.789  1.00  0.00    -0.187 A  
HETATM   11  N   UNL     1      -5.836   7.630  69.870  1.00  0.00    -0.023 NA 
HETATM   12  C   UNL     1      -9.680   8.209  66.935  1.00  0.00    -0.291 A  
HETATM   13  C   UNL     1     -10.452   9.188  67.576  1.00  0.00    -0.335 A  
BRANCH  10  14
HETATM   14  C   UNL     1     -10.879  10.780  69.441  1.00  0.00    -0.244 A  
HETATM   15  N   UNL     1     -11.733  10.547  70.418  1.00  0.00    -0.317 NA 
HETATM   16  C   UNL     1     -12.360  11.724  70.819  1.00  0.00    -0.337 A  
HETATM   17  C   UNL     1     -11.995  12.849  70.097  1.00  0.00    -0.301 A  
HETATM   18  C   UNL     1     -13.331  11.663  71.947  1.00  0.00    -0.403 C  
HETATM   19  C   UNL     1     -12.466  14.208  70.245  1.00  0.00    -0.353 C  
HETATM   20  S   UNL     1     -10.832  12.416  68.916  1.00  0.00    -0.157 SA 
HETATM   21  O   UNL     1     -13.303  14.585  71.052  1.00  0.00    -0.369 OA 
HETATM   22  O   UNL     1     -11.883  15.075  69.374  1.00  0.00    -0.303 OA 
ENDBRANCH  10  14
ENDBRANCH   5   6
ENDBRANCH   4   5
TORSDOF 3
ENDMDL
MODEL      150
REMARK 921   NORMALIZED FREE ENERGY PREDICTED BY IDOCK:   -3.47 KCAL/MOL
REMARK 922        TOTAL FREE ENERGY PREDICTED BY IDOCK:   -4.76 KCAL/MOL
REMARK 923 INTER-LIGAND FREE ENERGY PREDICTED BY IDOCK:   -4.39 KCAL/MOL
REMARK 924 INTRA-LIGAND FREE ENERGY PREDICTED BY IDOCK:   -0.37 KCAL/MOL
REMARK 927      BINDING AFFINITY PREDICTED BY RF-SCORE:    0.00 PKD
ROOT
HETATM    1  C   UNL     1     -10.634  19.875  68.220  1.00  0.00    -0.296 C  
HETATM    2  C   UNL     1      -9.875  19.007  67.218  1.00  0.00    -0.386 C  
HETATM    3  C   UNL     1      -9.575  19.802  65.945  1.00  0.00    -0.318 C  
HETATM    4  C   UNL     1      -8.589  18.458  67.853  1.00  0.00    -0.272 C  
ENDROOT
BRANCH   4   5
HETATM    5  O   UNL     1      -7.888  17.682  66.878  1.00  0.00    -0.204 OA 
BRANCH   5   6
HETATM    6  C   UNL     1      -8.192  16.350  66.823  1.00  0.00    -0.251 A  
HETATM    7  C   UNL     1      -7.393  15.485  67.582  1.00  0.00    -0.197 A  
HETATM    8  C   UNL     1      -7.620  14.100  67.541  1.00  0.00    -0.200 A  
HETATM    9  C   UNL     1      -6.346  15.987  68.429  1.00  0.00    -0.109 C  
HETATM   10  C   UNL     1      -8.635  13.552  66.741  1.00  0.00    -0.043 A  
HETATM   11  N   UNL     1      -5.498  16.340  69.139  1.00  0.00    -0.112 NA 
HETATM   12  C   UNL     1      -9.200  15.815  66.017  1.00  0.00    -0.379 A  
HETATM   13  C   UNL     1      -9.416  14.431  65.977  1.00  0.00    -0.239 A  
BRANCH  10  14
HETATM   14  C   UNL     1      -8.884  12.101  66.669  1.00  0.00    -0.182 A  
HETATM   15  N   UNL     1      -8.773  11.367  65.579  1.00  0.00    -0.047 NA 
HETATM   16  C   UNL     1      -9.066  10.033  65.849  1.00  0.00    -0.159 A  
HETATM   17  C   UNL     1      -9.442   9.776  67.157  1.00  0.00    -0.154 A  
HETATM   18  C   UNL     1      -8.951   9.042  64.741  1.00  0.00    -0.146 C  
HETATM   19  C   UNL     1      -9.823   8.515  67.755  1.00  0.00    -0.175 C  
HETATM   20  S   UNL     1      -9.403  11.231  68.059  1.00  0.00    -0.172 SA 
HETATM   21  O   UNL     1      -9.887   7.443  67.171  1.00  0.00    -0.163 OA 
HETATM   22  O   UNL     1     -10.120   8.618  69.079  1.00  0.00    -0.188 OA 
ENDBRANCH  10  14
ENDBRANCH   5   6
ENDBRANCH   4   5
TORSDOF 3
ENDMDL
MODEL      151
REMARK 921   NORMALIZED FREE ENERGY PREDICTED BY IDOCK:   -3.44 KCAL/MOL
REMARK 922        TOTAL FREE ENERGY PREDICTED BY IDOCK:   -4.73 KCAL/MOL
REMARK 923 INTER-LIGAND FREE ENERGY PREDICTED BY IDOCK:   -4.36 KCAL/MOL
REMARK 924 INTRA-LIGAND FREE ENERGY PREDICTED BY IDOCK:   -0.37 KCAL/MOL
REMARK 927      BINDING AFFINITY PREDICTED BY RF-SCORE:    0.00 PKD
ROOT
HETATM    1  C   UNL     1      -9.630  20.225  67.708  1.00  0.00    -0.486 C  
HETATM    2  C   UNL     1      -8.882  19.269  66.781  1.00  0.00    -0.344 C  
HETATM    3  C   UNL     1      -7.438  19.739  66.586  1.00  0.00    -0.276 C  
HETATM    4  C   UNL     1      -8.937  17.837  67.332  1.00  0.00    -0.240 C  
ENDROOT
BRANCH   4   5
HETATM    5  O   UNL     1      -8.198  16.979  66.460  1.00  0.00    -0.227 OA 
BRANCH   5   6
HETATM    6  C   UNL     1      -7.984  15.700  66.895  1.00  0.00    -0.243 A  
HETATM    7  C   UNL     1      -8.898  14.726  66.475  1.00  0.00    -0.223 A  
HETATM    8  C   UNL     1      -8.765  13.399  66.917  1.00  0.00    -0.154 A  
HETATM    9  C   UNL     1      -9.971  15.047  65.576  1.00  0.00    -0.356 C  
HETATM   10  C   UNL     1      -7.730  13.022  67.787  1.00  0.00    -0.151 A  
HETATM   11  N   UNL     1     -10.847  15.250  64.840  1.00  0.00    -0.434 NA 
HETATM   12  C   UNL     1      -6.954  15.338  67.768  1.00  0.00    -0.185 A  
HETATM   13  C   UNL     1      -6.832  14.013  68.209  1.00  0.00    -0.108 A  
BRANCH  10  14
HETATM   14  C   UNL     1      -7.577  11.640  68.278  1.00  0.00    -0.120 A  
HETATM   15  N   UNL     1      -6.986  11.298  69.405  1.00  0.00    -0.119 NA 
HETATM   16  C   UNL     1      -7.019   9.918  69.582  1.00  0.00    -0.086 A  
HETATM   17  C   UNL     1      -7.610   9.215  68.545  1.00  0.00    -0.085 A  
HETATM   18  C   UNL     1      -6.433   9.347  70.828  1.00  0.00    -0.086 C  
HETATM   19  C   UNL     1      -7.788   7.786  68.409  1.00  0.00    -0.121 C  
HETATM   20  S   UNL     1      -8.149  10.313  67.347  1.00  0.00    -0.110 SA 
HETATM   21  O   UNL     1      -7.416   6.945  69.215  1.00  0.00    -0.090 OA 
HETATM   22  O   UNL     1      -8.428   7.432  67.262  1.00  0.00    -0.117 OA 
ENDBRANCH  10  14
ENDBRANCH   5   6
ENDBRANCH   4   5
TORSDOF 3
ENDMDL
MODEL      152
REMARK 921   NORMALIZED FREE ENERGY PREDICTED BY IDOCK:   -3.40 KCAL/MOL
REMARK 922        TOTAL FREE ENERGY PREDICTED BY IDOCK:   -4.69 KCAL/MOL
REMARK 923 INTER-LIGAND FREE ENERGY PREDICTED BY IDOCK:   -4.30 KCAL/MOL
REMARK 924 INTRA-LIGAND FREE ENERGY PREDICTED BY IDOCK:   -0.38 KCAL/MOL
REMARK 927      BINDING AFFINITY PREDICTED BY RF-SCORE:    0.00 PKD
ROOT
HETATM    1  C   UNL     1     -12.121  13.637  67.239  1.00  0.00    -0.385 C  
HETATM    2  C   UNL     1     -11.027  12.733  67.803  1.00  0.00    -0.266 C  
HETATM    3  C   UNL     1      -9.924  13.573  68.452  1.00  0.00    -0.232 C  
HETATM    4  C   UNL     1     -11.624  11.725  68.796  1.00  0.00    -0.307 C  
ENDROOT
BRANCH   4   5
HETATM    5  O   UNL     1     -10.569  10.922  69.328  1.00  0.00    -0.213 OA 
BRANCH   5   6
HETATM    6  C   UNL     1     -10.361   9.710  68.731  1.00  0.00    -0.213 A  
HETATM    7  C   UNL     1      -9.902   8.670  69.549  1.00  0.00    -0.187 A  
HETATM    8  C   UNL     1      -9.628   7.408  68.996  1.00  0.00    -0.148 A  
HETATM    9  C   UNL     1      -9.723   8.855  70.962  1.00  0.00    -0.252 C  
HETATM   10  C   UNL     1      -9.795   7.163  67.624  1.00  0.00    -0.183 A  
HETATM   11  N   UNL     1      -9.575   8.947  72.110  1.00  0.00    -0.322 NA 
HETATM   12  C   UNL     1     -10.523   9.480  67.362  1.00  0.00    -0.336 A  
HETATM   13  C   UNL     1     -10.241   8.220  66.817  1.00  0.00    -0.375 A  
BRANCH  10  14
HETATM   14  C   UNL     1      -9.499   5.853  67.016  1.00  0.00    -0.125 A  
HETATM   15  N   UNL     1      -9.561   4.696  67.644  1.00  0.00    -0.153 NA 
HETATM   16  C   UNL     1      -9.233   3.649  66.787  1.00  0.00    -0.181 A  
HETATM   17  C   UNL     1      -8.880   4.039  65.505  1.00  0.00    -0.123 A  
HETATM   18  C   UNL     1      -9.291   2.255  67.312  1.00  0.00    -0.078 C  
HETATM   19  C   UNL     1      -8.473   3.212  64.390  1.00  0.00    -0.093 C  
HETATM   20  S   UNL     1      -8.985   5.744  65.378  1.00  0.00     0.037 SA 
HETATM   21  O   UNL     1      -8.362   1.995  64.412  1.00  0.00    -0.080 OA 
HETATM   22  O   UNL     1      -8.210   3.926  63.262  1.00  0.00    -0.086 OA 
ENDBRANCH  10  14
ENDBRANCH   5   6
ENDBRANCH   4   5
TORSDOF 3
ENDMDL
MODEL      153
REMARK 921   NORMALIZED FREE ENERGY PREDICTED BY IDOCK:   -3.37 KCAL/MOL
REMARK 922        TOTAL FREE ENERGY PREDICTED BY IDOCK:   -4.65 KCAL/MOL
REMARK 923 INTER-LIGAND FREE ENERGY PREDICTED BY IDOCK:   -4.65 KCAL/MOL
REMARK 924 INTRA-LIGAND FREE ENERGY PREDICTED BY IDOCK:   -0.01 KCAL/MOL
REMARK 927      BINDING AFFINITY PREDICTED BY RF-SCORE:    0.00 PKD
ROOT
HETATM    1  C   UNL     1     -14.392   8.694  72.278  1.00  0.00    -0.486 C  
HETATM    2  C   UNL     1     -13.072   9.007  71.577  1.00  0.00    -0.389 C  
HETATM    3  C   UNL     1     -12.962  10.507  71.294  1.00  0.00    -0.532 C  
HETATM    4  C   UNL     1     -11.888   8.505  72.417  1.00  0.00    -0.367 C  
ENDROOT
BRANCH   4   5
HETATM    5  O   UNL     1     -10.671   8.846  71.749  1.00  0.00    -0.314 OA 
BRANCH   5   6
HETATM    6  C   UNL     1     -10.387   8.154  70.603  1.00  0.00    -0.199 A  
HETATM    7  C   UNL     1     -10.025   6.809  70.748  1.00  0.00    -0.201 A  
HETATM    8  C   UNL     1      -9.679   6.048  69.620  1.00  0.00    -0.188 A  
HETATM    9  C   UNL     1     -10.016   6.173  72.036  1.00  0.00    -0.172 C  
HETATM   10  C   UNL     1      -9.680   6.612  68.334  1.00  0.00    -0.126 A  
HETATM   11  N   UNL     1     -10.007   5.607  73.051  1.00  0.00    -0.170 NA 
HETATM   12  C   UNL     1     -10.384   8.728  69.329  1.00  0.00    -0.221 A  
HETATM   13  C   UNL     1     -10.032   7.963  68.209  1.00  0.00    -0.204 A  
BRANCH  10  14
HETATM   14  C   UNL     1      -9.307   5.839  67.135  1.00  0.00    -0.115 A  
HETATM   15  N   UNL     1      -8.071   5.567  66.764  1.00  0.00    -0.105 NA 
HETATM   16  C   UNL     1      -8.061   4.811  65.595  1.00  0.00    -0.111 A  
HETATM   17  C   UNL     1      -9.313   4.549  65.063  1.00  0.00    -0.156 A  
HETATM   18  C   UNL     1      -6.747   4.370  65.046  1.00  0.00    -0.048 C  
HETATM   19  C   UNL     1      -9.648   3.815  63.863  1.00  0.00    -0.157 C  
HETATM   20  S   UNL     1     -10.515   5.248  66.064  1.00  0.00    -0.067 SA 
HETATM   21  O   UNL     1      -8.845   3.304  63.096  1.00  0.00    -0.092 OA 
HETATM   22  O   UNL     1     -10.988   3.734  63.641  1.00  0.00    -0.226 OA 
ENDBRANCH  10  14
ENDBRANCH   5   6
ENDBRANCH   4   5
TORSDOF 3
ENDMDL
MODEL      154
REMARK 921   NORMALIZED FREE ENERGY PREDICTED BY IDOCK:   -3.30 KCAL/MOL
REMARK 922        TOTAL FREE ENERGY PREDICTED BY IDOCK:   -4.57 KCAL/MOL
REMARK 923 INTER-LIGAND FREE ENERGY PREDICTED BY IDOCK:   -4.29 KCAL/MOL
REMARK 924 INTRA-LIGAND FREE ENERGY PREDICTED BY IDOCK:   -0.27 KCAL/MOL
REMARK 927      BINDING AFFINITY PREDICTED BY RF-SCORE:    0.00 PKD
ROOT
HETATM    1  C   UNL     1     -12.531   9.748  71.319  1.00  0.00    -0.461 C  
HETATM    2  C   UNL     1     -11.567   8.569  71.205  1.00  0.00    -0.325 C  
HETATM    3  C   UNL     1     -10.372   8.764  72.141  1.00  0.00    -0.378 C  
HETATM    4  C   UNL     1     -12.299   7.250  71.495  1.00  0.00    -0.362 C  
ENDROOT
BRANCH   4   5
HETATM    5  O   UNL     1     -11.361   6.175  71.414  1.00  0.00    -0.288 OA 
BRANCH   5   6
HETATM    6  C   UNL     1     -10.843   5.906  70.176  1.00  0.00    -0.332 A  
HETATM    7  C   UNL     1      -9.645   5.182  70.133  1.00  0.00    -0.247 A  
HETATM    8  C   UNL     1      -9.034   4.906  68.900  1.00  0.00    -0.136 A  
HETATM    9  C   UNL     1      -9.027   4.690  71.333  1.00  0.00    -0.128 C  
HETATM   10  C   UNL     1      -9.597   5.350  67.693  1.00  0.00    -0.142 A  
HETATM   11  N   UNL     1      -8.493   4.259  72.270  1.00  0.00    -0.103 NA 
HETATM   12  C   UNL     1     -11.409   6.360  68.982  1.00  0.00    -0.332 A  
HETATM   13  C   UNL     1     -10.790   6.086  67.755  1.00  0.00    -0.380 A  
BRANCH  10  14
HETATM   14  C   UNL     1      -8.968   5.086  66.385  1.00  0.00    -0.123 A  
HETATM   15  N   UNL     1      -8.944   5.931  65.373  1.00  0.00    -0.066 NA 
HETATM   16  C   UNL     1      -8.264   5.383  64.289  1.00  0.00    -0.129 A  
HETATM   17  C   UNL     1      -7.808   4.089  64.484  1.00  0.00    -0.085 A  
HETATM   18  C   UNL     1      -8.097   6.213  63.062  1.00  0.00    -0.079 C  
HETATM   19  C   UNL     1      -7.088   3.238  63.563  1.00  0.00    -0.049 C  
HETATM   20  S   UNL     1      -8.224   3.571  66.062  1.00  0.00    -0.098 SA 
HETATM   21  O   UNL     1      -6.771   3.535  62.421  1.00  0.00    -0.025 OA 
HETATM   22  O   UNL     1      -6.778   2.022  64.089  1.00  0.00    -0.025 OA 
ENDBRANCH  10  14
ENDBRANCH   5   6
ENDBRANCH   4   5
TORSDOF 3
ENDMDL
MODEL      155
REMARK 921   NORMALIZED FREE ENERGY PREDICTED BY IDOCK:   -3.27 KCAL/MOL
REMARK 922        TOTAL FREE ENERGY PREDICTED BY IDOCK:   -4.53 KCAL/MOL
REMARK 923 INTER-LIGAND FREE ENERGY PREDICTED BY IDOCK:   -4.06 KCAL/MOL
REMARK 924 INTRA-LIGAND FREE ENERGY PREDICTED BY IDOCK:   -0.47 KCAL/MOL
REMARK 927      BINDING AFFINITY PREDICTED BY RF-SCORE:    0.00 PKD
ROOT
HETATM    1  C   UNL     1      -9.470   1.549  68.961  1.00  0.00    -0.170 C  
HETATM    2  C   UNL     1      -8.552   2.426  68.113  1.00  0.00    -0.109 C  
HETATM    3  C   UNL     1      -8.510   1.916  66.671  1.00  0.00    -0.097 C  
HETATM    4  C   UNL     1      -9.004   3.893  68.177  1.00  0.00    -0.121 C  
ENDROOT
BRANCH   4   5
HETATM    5  O   UNL     1      -8.145   4.677  67.346  1.00  0.00    -0.100 OA 
BRANCH   5   6
HETATM    6  C   UNL     1      -8.618   5.900  66.958  1.00  0.00    -0.110 A  
HETATM    7  C   UNL     1      -7.716   6.753  66.310  1.00  0.00    -0.098 A  
HETATM    8  C   UNL     1      -8.120   8.040  65.920  1.00  0.00    -0.117 A  
HETATM    9  C   UNL     1      -6.375   6.332  66.010  1.00  0.00    -0.039 C  
HETATM   10  C   UNL     1      -9.420   8.503  66.176  1.00  0.00    -0.286 A  
HETATM   11  N   UNL     1      -5.287   6.037  65.731  1.00  0.00    -0.013 NA 
HETATM   12  C   UNL     1      -9.913   6.353  67.225  1.00  0.00    -0.184 A  
HETATM   13  C   UNL     1     -10.306   7.642  66.839  1.00  0.00    -0.388 A  
BRANCH  10  14
HETATM   14  C   UNL     1      -9.865   9.855  65.792  1.00  0.00    -0.287 A  
HETATM   15  N   UNL     1     -10.604  10.138  64.737  1.00  0.00     0.265 NA 
HETATM   16  C   UNL     1     -10.858  11.504  64.663  1.00  0.00    -0.310 A  
HETATM   17  C   UNL     1     -10.262  12.259  65.660  1.00  0.00    -0.261 A  
HETATM   18  C   UNL     1     -11.718  12.008  63.554  1.00  0.00    -0.566 C  
HETATM   19  C   UNL     1     -10.311  13.691  65.859  1.00  0.00    -0.301 C  
HETATM   20  S   UNL     1      -9.391  11.228  66.713  1.00  0.00    -0.181 SA 
HETATM   21  O   UNL     1     -10.899  14.488  65.142  1.00  0.00    -0.345 OA 
HETATM   22  O   UNL     1      -9.620  14.104  66.956  1.00  0.00    -0.244 OA 
ENDBRANCH  10  14
ENDBRANCH   5   6
ENDBRANCH   4   5
TORSDOF 3
ENDMDL
MODEL      156
REMARK 921   NORMALIZED FREE ENERGY PREDICTED BY IDOCK:   -3.24 KCAL/MOL
REMARK 922        TOTAL FREE ENERGY PREDICTED BY IDOCK:   -4.49 KCAL/MOL
REMARK 923 INTER-LIGAND FREE ENERGY PREDICTED BY IDOCK:   -3.97 KCAL/MOL
REMARK 924 INTRA-LIGAND FREE ENERGY PREDICTED BY IDOCK:   -0.52 KCAL/MOL
REMARK 927      BINDING AFFINITY PREDICTED BY RF-SCORE:    0.00 PKD
ROOT
HETATM    1  C   UNL     1     -10.463  18.562  68.861  1.00  0.00     0.021 C  
HETATM    2  C   UNL     1     -10.751  17.632  67.684  1.00  0.00    -0.318 C  
HETATM    3  C   UNL     1      -9.618  17.706  66.658  1.00  0.00    -0.301 C  
HETATM    4  C   UNL     1     -10.968  16.194  68.179  1.00  0.00    -0.341 C  
ENDROOT
BRANCH   4   5
HETATM    5  O   UNL     1     -11.198  15.348  67.051  1.00  0.00    -0.312 OA 
BRANCH   5   6
HETATM    6  C   UNL     1     -10.388  14.253  66.931  1.00  0.00    -0.268 A  
HETATM    7  C   UNL     1     -10.485  13.520  65.742  1.00  0.00    -0.293 A  
HETATM    8  C   UNL     1      -9.714  12.359  65.566  1.00  0.00    -0.150 A  
HETATM    9  C   UNL     1     -11.349  13.940  64.674  1.00  0.00    -0.375 C  
HETATM   10  C   UNL     1      -8.843  11.905  66.569  1.00  0.00    -0.178 A  
HETATM   11  N   UNL     1     -12.020  14.242  63.776  1.00  0.00    -0.316 NA 
HETATM   12  C   UNL     1      -9.531  13.806  67.940  1.00  0.00    -0.214 A  
HETATM   13  C   UNL     1      -8.769  12.644  67.759  1.00  0.00    -0.179 A  
BRANCH  10  14
HETATM   14  C   UNL     1      -8.033  10.682  66.416  1.00  0.00    -0.142 A  
HETATM   15  N   UNL     1      -6.957  10.394  67.120  1.00  0.00    -0.086 NA 
HETATM   16  C   UNL     1      -6.432   9.162  66.739  1.00  0.00    -0.067 A  
HETATM   17  C   UNL     1      -7.109   8.540  65.703  1.00  0.00    -0.079 A  
HETATM   18  C   UNL     1      -5.232   8.648  67.458  1.00  0.00    -0.034 C  
HETATM   19  C   UNL     1      -6.817   7.274  65.066  1.00  0.00    -0.047 C  
HETATM   20  S   UNL     1      -8.434   9.512  65.222  1.00  0.00    -0.159 SA 
HETATM   21  O   UNL     1      -5.883   6.537  65.346  1.00  0.00    -0.025 OA 
HETATM   22  O   UNL     1      -7.701   6.953  64.083  1.00  0.00    -0.106 OA 
ENDBRANCH  10  14
ENDBRANCH   5   6
ENDBRANCH   4   5
TORSDOF 3
ENDMDL
MODEL      157
REMARK 921   NORMALIZED FREE ENERGY PREDICTED BY IDOCK:   -3.23 KCAL/MOL
REMARK 922        TOTAL FREE ENERGY PREDICTED BY IDOCK:   -4.49 KCAL/MOL
REMARK 923 INTER-LIGAND FREE ENERGY PREDICTED BY IDOCK:   -4.75 KCAL/MOL
REMARK 924 INTRA-LIGAND FREE ENERGY PREDICTED BY IDOCK:    0.26 KCAL/MOL
REMARK 927      BINDING AFFINITY PREDICTED BY RF-SCORE:    0.00 PKD
ROOT
HETATM    1  C   UNL     1      -7.666   3.825  72.129  1.00  0.00    -0.063 C  
HETATM    2  C   UNL     1      -8.858   4.564  71.524  1.00  0.00    -0.147 C  
HETATM    3  C   UNL     1     -10.018   3.597  71.281  1.00  0.00    -0.144 C  
HETATM    4  C   UNL     1      -9.279   5.731  72.431  1.00  0.00    -0.143 C  
ENDROOT
BRANCH   4   5
HETATM    5  O   UNL     1     -10.416   6.376  71.853  1.00  0.00    -0.204 OA 
BRANCH   5   6
HETATM    6  C   UNL     1     -10.244   6.920  70.609  1.00  0.00    -0.195 A  
HETATM    7  C   UNL     1      -9.376   8.014  70.510  1.00  0.00    -0.155 A  
HETATM    8  C   UNL     1      -9.183   8.649  69.272  1.00  0.00    -0.150 A  
HETATM    9  C   UNL     1      -8.650   8.497  71.651  1.00  0.00    -0.187 C  
HETATM   10  C   UNL     1      -9.856   8.215  68.119  1.00  0.00    -0.194 A  
HETATM   11  N   UNL     1      -8.029   8.918  72.538  1.00  0.00    -0.347 NA 
HETATM   12  C   UNL     1     -10.925   6.484  69.470  1.00  0.00    -0.398 A  
HETATM   13  C   UNL     1     -10.733   7.127  68.240  1.00  0.00    -0.202 A  
BRANCH  10  14
HETATM   14  C   UNL     1      -9.683   8.873  66.811  1.00  0.00    -0.219 A  
HETATM   15  N   UNL     1      -8.898   8.442  65.844  1.00  0.00    -0.167 NA 
HETATM   16  C   UNL     1      -8.969   9.283  64.737  1.00  0.00    -0.168 A  
HETATM   17  C   UNL     1      -9.794  10.384  64.898  1.00  0.00    -0.334 A  
HETATM   18  C   UNL     1      -8.177   8.930  63.525  1.00  0.00    -0.177 C  
HETATM   19  C   UNL     1     -10.073  11.448  63.958  1.00  0.00    -0.320 C  
HETATM   20  S   UNL     1     -10.502  10.343  66.456  1.00  0.00    -0.159 SA 
HETATM   21  O   UNL     1      -9.593  11.550  62.838  1.00  0.00    -0.380 OA 
HETATM   22  O   UNL     1     -10.949  12.371  64.439  1.00  0.00    -0.297 OA 
ENDBRANCH  10  14
ENDBRANCH   5   6
ENDBRANCH   4   5
TORSDOF 3
ENDMDL
MODEL      158
REMARK 921   NORMALIZED FREE ENERGY PREDICTED BY IDOCK:   -3.19 KCAL/MOL
REMARK 922        TOTAL FREE ENERGY PREDICTED BY IDOCK:   -4.43 KCAL/MOL
REMARK 923 INTER-LIGAND FREE ENERGY PREDICTED BY IDOCK:   -3.88 KCAL/MOL
REMARK 924 INTRA-LIGAND FREE ENERGY PREDICTED BY IDOCK:   -0.56 KCAL/MOL
REMARK 927      BINDING AFFINITY PREDICTED BY RF-SCORE:    0.00 PKD
ROOT
HETATM    1  C   UNL     1      -5.527   5.517  62.385  1.00  0.00    -0.014 C  
HETATM    2  C   UNL     1      -6.866   6.131  62.791  1.00  0.00    -0.041 C  
HETATM    3  C   UNL     1      -7.972   5.074  62.747  1.00  0.00    -0.083 C  
HETATM    4  C   UNL     1      -6.759   6.775  64.181  1.00  0.00    -0.045 C  
ENDROOT
BRANCH   4   5
HETATM    5  O   UNL     1      -8.036   7.306  64.542  1.00  0.00    -0.128 OA 
BRANCH   5   6
HETATM    6  C   UNL     1      -8.476   7.035  65.808  1.00  0.00    -0.149 A  
HETATM    7  C   UNL     1      -9.190   8.047  66.462  1.00  0.00    -0.236 A  
HETATM    8  C   UNL     1      -9.638   7.854  67.779  1.00  0.00    -0.174 A  
HETATM    9  C   UNL     1      -9.500   9.286  65.805  1.00  0.00    -0.262 C  
HETATM   10  C   UNL     1      -9.376   6.659  68.469  1.00  0.00    -0.125 A  
HETATM   11  N   UNL     1      -9.788  10.300  65.316  1.00  0.00    -0.286 NA 
HETATM   12  C   UNL     1      -8.203   5.845  66.487  1.00  0.00    -0.110 A  
HETATM   13  C   UNL     1      -8.648   5.662  67.804  1.00  0.00    -0.101 A  
BRANCH  10  14
HETATM   14  C   UNL     1      -9.821   6.438  69.857  1.00  0.00    -0.167 A  
HETATM   15  N   UNL     1     -10.319   7.366  70.650  1.00  0.00    -0.210 NA 
HETATM   16  C   UNL     1     -10.651   6.831  71.891  1.00  0.00    -0.209 A  
HETATM   17  C   UNL     1     -10.357   5.485  72.039  1.00  0.00    -0.213 A  
HETATM   18  C   UNL     1     -11.270   7.727  72.908  1.00  0.00    -0.434 C  
HETATM   19  C   UNL     1     -10.558   4.639  73.195  1.00  0.00    -0.218 C  
HETATM   20  S   UNL     1      -9.674   4.888  70.586  1.00  0.00    -0.218 SA 
HETATM   21  O   UNL     1     -11.024   4.999  74.266  1.00  0.00    -0.310 OA 
HETATM   22  O   UNL     1     -10.168   3.352  72.991  1.00  0.00    -0.144 OA 
ENDBRANCH  10  14
ENDBRANCH   5   6
ENDBRANCH   4   5
TORSDOF 3
ENDMDL
MODEL      159
REMARK 921   NORMALIZED FREE ENERGY PREDICTED BY IDOCK:   -3.17 KCAL/MOL
REMARK 922        TOTAL FREE ENERGY PREDICTED BY IDOCK:   -4.42 KCAL/MOL
REMARK 923 INTER-LIGAND FREE ENERGY PREDICTED BY IDOCK:   -4.02 KCAL/MOL
REMARK 924 INTRA-LIGAND FREE ENERGY PREDICTED BY IDOCK:   -0.40 KCAL/MOL
REMARK 927      BINDING AFFINITY PREDICTED BY RF-SCORE:    0.00 PKD
ROOT
HETATM    1  C   UNL     1      -6.493  18.736  65.299  1.00  0.00    -0.290 C  
HETATM    2  C   UNL     1      -6.591  17.812  66.511  1.00  0.00    -0.256 C  
HETATM    3  C   UNL     1      -5.883  18.437  67.715  1.00  0.00    -0.163 C  
HETATM    4  C   UNL     1      -8.061  17.496  66.825  1.00  0.00    -0.244 C  
ENDROOT
BRANCH   4   5
HETATM    5  O   UNL     1      -8.115  16.660  67.984  1.00  0.00    -0.173 OA 
BRANCH   5   6
HETATM    6  C   UNL     1      -8.084  15.310  67.767  1.00  0.00    -0.146 A  
HETATM    7  C   UNL     1      -9.300  14.623  67.873  1.00  0.00    -0.198 A  
HETATM    8  C   UNL     1      -9.338  13.230  67.704  1.00  0.00    -0.212 A  
HETATM    9  C   UNL     1     -10.530  15.319  68.133  1.00  0.00    -0.246 C  
HETATM   10  C   UNL     1      -8.170  12.497  67.437  1.00  0.00    -0.183 A  
HETATM   11  N   UNL     1     -11.553  15.833  68.328  1.00  0.00    -0.342 NA 
HETATM   12  C   UNL     1      -6.915  14.590  67.509  1.00  0.00    -0.188 A  
HETATM   13  C   UNL     1      -6.960  13.199  67.348  1.00  0.00    -0.117 A  
BRANCH  10  14
HETATM   14  C   UNL     1      -8.181  11.032  67.271  1.00  0.00    -0.125 A  
HETATM   15  N   UNL     1      -7.113  10.286  67.063  1.00  0.00    -0.088 NA 
HETATM   16  C   UNL     1      -7.461   8.942  66.961  1.00  0.00    -0.087 A  
HETATM   17  C   UNL     1      -8.820   8.687  67.053  1.00  0.00    -0.132 A  
HETATM   18  C   UNL     1      -6.375   7.940  66.767  1.00  0.00    -0.054 C  
HETATM   19  C   UNL     1      -9.507   7.417  66.971  1.00  0.00    -0.158 C  
HETATM   20  S   UNL     1      -9.661  10.158  67.294  1.00  0.00    -0.173 SA 
HETATM   21  O   UNL     1      -8.974   6.332  66.786  1.00  0.00    -0.119 OA 
HETATM   22  O   UNL     1     -10.855   7.526  67.120  1.00  0.00    -0.324 OA 
ENDBRANCH  10  14
ENDBRANCH   5   6
ENDBRANCH   4   5
TORSDOF 3
ENDMDL
MODEL      160
REMARK 921   NORMALIZED FREE ENERGY PREDICTED BY IDOCK:   -3.17 KCAL/MOL
REMARK 922        TOTAL FREE ENERGY PREDICTED BY IDOCK:   -4.42 KCAL/MOL
REMARK 923 INTER-LIGAND FREE ENERGY PREDICTED BY IDOCK:   -5.02 KCAL/MOL
REMARK 924 INTRA-LIGAND FREE ENERGY PREDICTED BY IDOCK:    0.61 KCAL/MOL
REMARK 927      BINDING AFFINITY PREDICTED BY RF-SCORE:    0.00 PKD
ROOT
HETATM    1  C   UNL     1      -9.715  19.473  68.655  1.00  0.00    -0.514 C  
HETATM    2  C   UNL     1     -10.503  18.441  67.852  1.00  0.00    -0.416 C  
HETATM    3  C   UNL     1     -10.608  18.872  66.387  1.00  0.00    -0.460 C  
HETATM    4  C   UNL     1      -9.858  17.053  67.984  1.00  0.00    -0.275 C  
ENDROOT
BRANCH   4   5
HETATM    5  O   UNL     1     -10.599  16.122  67.193  1.00  0.00    -0.305 OA 
BRANCH   5   6
HETATM    6  C   UNL     1     -10.339  14.796  67.403  1.00  0.00    -0.242 A  
HETATM    7  C   UNL     1      -9.013  14.376  67.235  1.00  0.00    -0.221 A  
HETATM    8  C   UNL     1      -8.679  13.021  67.393  1.00  0.00    -0.205 A  
HETATM    9  C   UNL     1      -7.968  15.310  66.921  1.00  0.00    -0.159 C  
HETATM   10  C   UNL     1      -9.655  12.063  67.711  1.00  0.00    -0.193 A  
HETATM   11  N   UNL     1      -7.084  16.025  66.682  1.00  0.00    -0.191 NA 
HETATM   12  C   UNL     1     -11.320  13.850  67.711  1.00  0.00    -0.335 A  
HETATM   13  C   UNL     1     -10.980  12.499  67.861  1.00  0.00    -0.262 A  
BRANCH  10  14
HETATM   14  C   UNL     1      -9.333  10.633  67.867  1.00  0.00    -0.148 A  
HETATM   15  N   UNL     1     -10.011   9.641  67.324  1.00  0.00    -0.185 NA 
HETATM   16  C   UNL     1      -9.443   8.414  67.655  1.00  0.00    -0.149 A  
HETATM   17  C   UNL     1      -8.344   8.493  68.496  1.00  0.00    -0.123 A  
HETATM   18  C   UNL     1     -10.051   7.174  67.094  1.00  0.00    -0.293 C  
HETATM   19  C   UNL     1      -7.544   7.417  69.037  1.00  0.00    -0.102 C  
HETATM   20  S   UNL     1      -8.015  10.135  68.851  1.00  0.00    -0.119 SA 
HETATM   21  O   UNL     1      -7.729   6.225  68.839  1.00  0.00    -0.093 OA 
HETATM   22  O   UNL     1      -6.522   7.852  69.823  1.00  0.00    -0.033 OA 
ENDBRANCH  10  14
ENDBRANCH   5   6
ENDBRANCH   4   5
TORSDOF 3
ENDMDL
MODEL      161
REMARK 921   NORMALIZED FREE ENERGY PREDICTED BY IDOCK:   -3.16 KCAL/MOL
REMARK 922        TOTAL FREE ENERGY PREDICTED BY IDOCK:   -4.40 KCAL/MOL
REMARK 923 INTER-LIGAND FREE ENERGY PREDICTED BY IDOCK:   -3.95 KCAL/MOL
REMARK 924 INTRA-LIGAND FREE ENERGY PREDICTED BY IDOCK:   -0.45 KCAL/MOL
REMARK 927      BINDING AFFINITY PREDICTED BY RF-SCORE:    0.00 PKD
ROOT
HETATM    1  C   UNL     1     -12.296  14.202  64.406  1.00  0.00    -0.410 C  
HETATM    2  C   UNL     1     -10.892  13.948  64.950  1.00  0.00    -0.413 C  
HETATM    3  C   UNL     1     -10.120  15.265  65.066  1.00  0.00    -0.250 C  
HETATM    4  C   UNL     1     -10.964  13.218  66.299  1.00  0.00    -0.284 C  
ENDROOT
BRANCH   4   5
HETATM    5  O   UNL     1      -9.637  13.030  66.793  1.00  0.00    -0.234 OA 
BRANCH   5   6
HETATM    6  C   UNL     1      -9.439  11.965  67.628  1.00  0.00    -0.182 A  
HETATM    7  C   UNL     1      -8.147  11.790  68.138  1.00  0.00    -0.150 A  
HETATM    8  C   UNL     1      -7.860  10.694  68.968  1.00  0.00    -0.137 A  
HETATM    9  C   UNL     1      -7.096  12.725  67.847  1.00  0.00    -0.118 C  
HETATM   10  C   UNL     1      -8.849   9.752  69.297  1.00  0.00    -0.171 A  
HETATM   11  N   UNL     1      -6.216  13.458  67.655  1.00  0.00    -0.220 NA 
HETATM   12  C   UNL     1     -10.429  11.030  67.942  1.00  0.00    -0.223 A  
HETATM   13  C   UNL     1     -10.134   9.935  68.766  1.00  0.00    -0.186 A  
BRANCH  10  14
HETATM   14  C   UNL     1      -8.570   8.585  70.154  1.00  0.00    -0.132 A  
HETATM   15  N   UNL     1      -9.382   7.560  70.323  1.00  0.00    -0.161 NA 
HETATM   16  C   UNL     1      -8.820   6.621  71.184  1.00  0.00    -0.137 A  
HETATM   17  C   UNL     1      -7.583   6.974  71.698  1.00  0.00    -0.089 A  
HETATM   18  C   UNL     1      -9.579   5.368  71.462  1.00  0.00    -0.195 C  
HETATM   19  C   UNL     1      -6.746   6.239  72.621  1.00  0.00    -0.069 C  
HETATM   20  S   UNL     1      -7.117   8.496  71.068  1.00  0.00    -0.076 SA 
HETATM   21  O   UNL     1      -7.021   5.158  73.122  1.00  0.00    -0.072 OA 
HETATM   22  O   UNL     1      -5.578   6.874  72.907  1.00  0.00    -0.038 OA 
ENDBRANCH  10  14
ENDBRANCH   5   6
ENDBRANCH   4   5
TORSDOF 3
ENDMDL
MODEL      162
REMARK 921   NORMALIZED FREE ENERGY PREDICTED BY IDOCK:   -3.14 KCAL/MOL
REMARK 922        TOTAL FREE ENERGY PREDICTED BY IDOCK:   -4.38 KCAL/MOL
REMARK 923 INTER-LIGAND FREE ENERGY PREDICTED BY IDOCK:   -4.18 KCAL/MOL
REMARK 924 INTRA-LIGAND FREE ENERGY PREDICTED BY IDOCK:   -0.19 KCAL/MOL
REMARK 927      BINDING AFFINITY PREDICTED BY RF-SCORE:    0.00 PKD
ROOT
HETATM    1  C   UNL     1     -14.118   9.202  72.042  1.00  0.00    -0.380 C  
HETATM    2  C   UNL     1     -12.716   9.154  71.438  1.00  0.00    -0.383 C  
HETATM    3  C   UNL     1     -12.223  10.569  71.125  1.00  0.00    -0.496 C  
HETATM    4  C   UNL     1     -11.752   8.419  72.381  1.00  0.00    -0.382 C  
ENDROOT
BRANCH   4   5
HETATM    5  O   UNL     1     -10.446   8.425  71.802  1.00  0.00    -0.238 OA 
BRANCH   5   6
HETATM    6  C   UNL     1     -10.232   7.558  70.766  1.00  0.00    -0.194 A  
HETATM    7  C   UNL     1      -9.490   6.404  71.048  1.00  0.00    -0.181 A  
HETATM    8  C   UNL     1      -9.196   5.490  70.023  1.00  0.00    -0.172 A  
HETATM    9  C   UNL     1      -9.034   6.116  72.379  1.00  0.00    -0.136 C  
HETATM   10  C   UNL     1      -9.624   5.711  68.705  1.00  0.00    -0.163 A  
HETATM   11  N   UNL     1      -8.654   5.829  73.438  1.00  0.00    -0.118 NA 
HETATM   12  C   UNL     1     -10.657   7.793  69.456  1.00  0.00    -0.221 A  
HETATM   13  C   UNL     1     -10.353   6.879  68.438  1.00  0.00    -0.213 A  
BRANCH  10  14
HETATM   14  C   UNL     1      -9.315   4.775  67.608  1.00  0.00    -0.138 A  
HETATM   15  N   UNL     1     -10.095   4.539  66.572  1.00  0.00    -0.239 NA 
HETATM   16  C   UNL     1      -9.510   3.613  65.713  1.00  0.00    -0.161 A  
HETATM   17  C   UNL     1      -8.288   3.120  66.139  1.00  0.00    -0.101 A  
HETATM   18  C   UNL     1     -10.231   3.252  64.459  1.00  0.00    -0.037 C  
HETATM   19  C   UNL     1      -7.435   2.144  65.496  1.00  0.00    -0.070 C  
HETATM   20  S   UNL     1      -7.865   3.851  67.629  1.00  0.00    -0.082 SA 
HETATM   21  O   UNL     1      -7.679   1.572  64.444  1.00  0.00    -0.058 OA 
HETATM   22  O   UNL     1      -6.288   1.898  66.186  1.00  0.00    -0.023 OA 
ENDBRANCH  10  14
ENDBRANCH   5   6
ENDBRANCH   4   5
TORSDOF 3
ENDMDL
MODEL      163
REMARK 921   NORMALIZED FREE ENERGY PREDICTED BY IDOCK:   -3.12 KCAL/MOL
REMARK 922        TOTAL FREE ENERGY PREDICTED BY IDOCK:   -4.35 KCAL/MOL
REMARK 923 INTER-LIGAND FREE ENERGY PREDICTED BY IDOCK:   -3.90 KCAL/MOL
REMARK 924 INTRA-LIGAND FREE ENERGY PREDICTED BY IDOCK:   -0.46 KCAL/MOL
REMARK 927      BINDING AFFINITY PREDICTED BY RF-SCORE:    0.00 PKD
ROOT
HETATM    1  C   UNL     1      -6.050  15.816  68.115  1.00  0.00    -0.133 C  
HETATM    2  C   UNL     1      -7.334  15.149  68.602  1.00  0.00    -0.121 C  
HETATM    3  C   UNL     1      -8.427  16.197  68.827  1.00  0.00    -0.236 C  
HETATM    4  C   UNL     1      -7.787  14.070  67.608  1.00  0.00    -0.176 C  
ENDROOT
BRANCH   4   5
HETATM    5  O   UNL     1      -9.007  13.493  68.077  1.00  0.00    -0.174 OA 
BRANCH   5   6
HETATM    6  C   UNL     1      -9.128  12.136  67.960  1.00  0.00    -0.190 A  
HETATM    7  C   UNL     1     -10.217  11.538  68.606  1.00  0.00    -0.217 A  
HETATM    8  C   UNL     1     -10.381  10.144  68.564  1.00  0.00    -0.203 A  
HETATM    9  C   UNL     1     -11.196  12.325  69.304  1.00  0.00    -0.213 C  
HETATM   10  C   UNL     1      -9.464   9.323  67.889  1.00  0.00    -0.154 A  
HETATM   11  N   UNL     1     -12.021  12.915  69.868  1.00  0.00    -0.331 NA 
HETATM   12  C   UNL     1      -8.205  11.328  67.291  1.00  0.00    -0.140 A  
HETATM   13  C   UNL     1      -8.372   9.937  67.259  1.00  0.00    -0.121 A  
BRANCH  10  14
HETATM   14  C   UNL     1      -9.605   7.856  67.842  1.00  0.00    -0.147 A  
HETATM   15  N   UNL     1     -10.148   7.179  66.849  1.00  0.00    -0.226 NA 
HETATM   16  C   UNL     1     -10.118   5.812  67.109  1.00  0.00    -0.181 A  
HETATM   17  C   UNL     1      -9.579   5.467  68.338  1.00  0.00    -0.129 A  
HETATM   18  C   UNL     1     -10.652   4.880  66.075  1.00  0.00    -0.312 C  
HETATM   19  C   UNL     1      -9.419   4.151  68.915  1.00  0.00    -0.169 C  
HETATM   20  S   UNL     1      -9.086   6.884  69.162  1.00  0.00    -0.134 SA 
HETATM   21  O   UNL     1      -9.760   3.100  68.393  1.00  0.00    -0.118 OA 
HETATM   22  O   UNL     1      -8.833   4.172  70.143  1.00  0.00    -0.074 OA 
ENDBRANCH  10  14
ENDBRANCH   5   6
ENDBRANCH   4   5
TORSDOF 3
ENDMDL
MODEL      164
REMARK 921   NORMALIZED FREE ENERGY PREDICTED BY IDOCK:   -3.09 KCAL/MOL
REMARK 922        TOTAL FREE ENERGY PREDICTED BY IDOCK:   -4.33 KCAL/MOL
REMARK 923 INTER-LIGAND FREE ENERGY PREDICTED BY IDOCK:   -4.18 KCAL/MOL
REMARK 924 INTRA-LIGAND FREE ENERGY PREDICTED BY IDOCK:   -0.15 KCAL/MOL
REMARK 927      BINDING AFFINITY PREDICTED BY RF-SCORE:    0.00 PKD
ROOT
HETATM    1  C   UNL     1      -6.026   8.737  64.333  1.00  0.00    -0.066 C  
HETATM    2  C   UNL     1      -7.334   9.367  64.809  1.00  0.00    -0.107 C  
HETATM    3  C   UNL     1      -8.496   8.917  63.920  1.00  0.00    -0.147 C  
HETATM    4  C   UNL     1      -7.589   9.021  66.283  1.00  0.00    -0.092 C  
ENDROOT
BRANCH   4   5
HETATM    5  O   UNL     1      -8.835   9.595  66.683  1.00  0.00    -0.135 OA 
BRANCH   5   6
HETATM    6  C   UNL     1      -8.857  10.952  66.855  1.00  0.00    -0.142 A  
HETATM    7  C   UNL     1      -8.322  11.448  68.051  1.00  0.00    -0.143 A  
HETATM    8  C   UNL     1      -8.348  12.828  68.314  1.00  0.00    -0.161 A  
HETATM    9  C   UNL     1      -7.720  10.574  69.019  1.00  0.00    -0.125 C  
HETATM   10  C   UNL     1      -8.912  13.732  67.401  1.00  0.00    -0.224 A  
HETATM   11  N   UNL     1      -7.211   9.914  69.827  1.00  0.00    -0.100 NA 
HETATM   12  C   UNL     1      -9.428  11.843  65.942  1.00  0.00    -0.227 A  
HETATM   13  C   UNL     1      -9.456  13.217  66.215  1.00  0.00    -0.194 A  
BRANCH  10  14
HETATM   14  C   UNL     1      -8.966  15.183  67.660  1.00  0.00    -0.180 A  
HETATM   15  N   UNL     1      -9.967  15.975  67.328  1.00  0.00    -0.238 NA 
HETATM   16  C   UNL     1      -9.713  17.285  67.723  1.00  0.00    -0.270 A  
HETATM   17  C   UNL     1      -8.480  17.480  68.324  1.00  0.00    -0.266 A  
HETATM   18  C   UNL     1     -10.756  18.319  67.468  1.00  0.00    -0.381 C  
HETATM   19  C   UNL     1      -7.906  18.708  68.828  1.00  0.00    -0.289 C  
HETATM   20  S   UNL     1      -7.645  15.987  68.411  1.00  0.00    -0.152 SA 
HETATM   21  O   UNL     1      -8.436  19.809  68.786  1.00  0.00    -0.279 OA 
HETATM   22  O   UNL     1      -6.672  18.538  69.376  1.00  0.00    -0.260 OA 
ENDBRANCH  10  14
ENDBRANCH   5   6
ENDBRANCH   4   5
TORSDOF 3
ENDMDL
MODEL      165
REMARK 921   NORMALIZED FREE ENERGY PREDICTED BY IDOCK:   -3.00 KCAL/MOL
REMARK 922        TOTAL FREE ENERGY PREDICTED BY IDOCK:   -4.21 KCAL/MOL
REMARK 923 INTER-LIGAND FREE ENERGY PREDICTED BY IDOCK:   -3.71 KCAL/MOL
REMARK 924 INTRA-LIGAND FREE ENERGY PREDICTED BY IDOCK:   -0.50 KCAL/MOL
REMARK 927      BINDING AFFINITY PREDICTED BY RF-SCORE:    0.00 PKD
ROOT
HETATM    1  C   UNL     1     -12.302  14.183  64.406  1.00  0.00    -0.410 C  
HETATM    2  C   UNL     1     -10.966  13.727  64.988  1.00  0.00    -0.359 C  
HETATM    3  C   UNL     1     -10.078  14.936  65.294  1.00  0.00    -0.380 C  
HETATM    4  C   UNL     1     -11.194  12.867  66.240  1.00  0.00    -0.301 C  
ENDROOT
BRANCH   4   5
HETATM    5  O   UNL     1      -9.924  12.489  66.777  1.00  0.00    -0.220 OA 
BRANCH   5   6
HETATM    6  C   UNL     1      -9.664  11.148  66.848  1.00  0.00    -0.191 A  
HETATM    7  C   UNL     1      -8.447  10.768  67.426  1.00  0.00    -0.119 A  
HETATM    8  C   UNL     1      -8.094   9.410  67.496  1.00  0.00    -0.110 A  
HETATM    9  C   UNL     1      -7.546  11.742  67.978  1.00  0.00    -0.116 C  
HETATM   10  C   UNL     1      -8.939   8.412  66.984  1.00  0.00    -0.161 A  
HETATM   11  N   UNL     1      -6.789  12.486  68.450  1.00  0.00    -0.077 NA 
HETATM   12  C   UNL     1     -10.509  10.164  66.329  1.00  0.00    -0.192 A  
HETATM   13  C   UNL     1     -10.147   8.811  66.396  1.00  0.00    -0.313 A  
BRANCH  10  14
HETATM   14  C   UNL     1      -8.585   6.981  67.030  1.00  0.00    -0.122 A  
HETATM   15  N   UNL     1      -9.443   5.995  67.206  1.00  0.00    -0.112 NA 
HETATM   16  C   UNL     1      -8.792   4.765  67.189  1.00  0.00    -0.107 A  
HETATM   17  C   UNL     1      -7.416   4.839  67.038  1.00  0.00    -0.086 A  
HETATM   18  C   UNL     1      -9.609   3.526  67.331  1.00  0.00    -0.172 C  
HETATM   19  C   UNL     1      -6.453   3.761  66.998  1.00  0.00    -0.041 C  
HETATM   20  S   UNL     1      -6.946   6.480  66.894  1.00  0.00    -0.069 SA 
HETATM   21  O   UNL     1      -6.714   2.572  67.109  1.00  0.00    -0.039 OA 
HETATM   22  O   UNL     1      -5.175   4.191  66.821  1.00  0.00    -0.011 OA 
ENDBRANCH  10  14
ENDBRANCH   5   6
ENDBRANCH   4   5
TORSDOF 3
ENDMDL
MODEL      166
REMARK 921   NORMALIZED FREE ENERGY PREDICTED BY IDOCK:   -3.00 KCAL/MOL
REMARK 922        TOTAL FREE ENERGY PREDICTED BY IDOCK:   -4.21 KCAL/MOL
REMARK 923 INTER-LIGAND FREE ENERGY PREDICTED BY IDOCK:   -4.12 KCAL/MOL
REMARK 924 INTRA-LIGAND FREE ENERGY PREDICTED BY IDOCK:   -0.09 KCAL/MOL
REMARK 927      BINDING AFFINITY PREDICTED BY RF-SCORE:    0.00 PKD
ROOT
HETATM    1  C   UNL     1      -9.611  16.467  67.976  1.00  0.00    -0.227 C  
HETATM    2  C   UNL     1      -8.955  15.209  67.411  1.00  0.00    -0.193 C  
HETATM    3  C   UNL     1      -7.439  15.396  67.314  1.00  0.00    -0.242 C  
HETATM    4  C   UNL     1      -9.317  13.987  68.268  1.00  0.00    -0.208 C  
ENDROOT
BRANCH   4   5
HETATM    5  O   UNL     1      -8.659  12.837  67.732  1.00  0.00    -0.161 OA 
BRANCH   5   6
HETATM    6  C   UNL     1      -8.632  11.722  68.524  1.00  0.00    -0.123 A  
HETATM    7  C   UNL     1      -9.830  11.009  68.654  1.00  0.00    -0.197 A  
HETATM    8  C   UNL     1      -9.888   9.877  69.484  1.00  0.00    -0.241 A  
HETATM    9  C   UNL     1     -11.013  11.397  67.936  1.00  0.00    -0.240 C  
HETATM   10  C   UNL     1      -8.763   9.443  70.202  1.00  0.00    -0.245 A  
HETATM   11  N   UNL     1     -11.991  11.659  67.368  1.00  0.00    -0.612 NA 
HETATM   12  C   UNL     1      -7.508  11.303  69.240  1.00  0.00    -0.040 A  
HETATM   13  C   UNL     1      -7.575  10.177  70.070  1.00  0.00    -0.164 A  
BRANCH  10  14
HETATM   14  C   UNL     1      -8.802   8.267  71.092  1.00  0.00    -0.151 A  
HETATM   15  N   UNL     1      -9.818   7.435  71.202  1.00  0.00    -0.175 NA 
HETATM   16  C   UNL     1      -9.534   6.426  72.118  1.00  0.00    -0.149 A  
HETATM   17  C   UNL     1      -8.295   6.532  72.730  1.00  0.00    -0.116 A  
HETATM   18  C   UNL     1     -10.554   5.363  72.344  1.00  0.00    -0.276 C  
HETATM   19  C   UNL     1      -7.706   5.667  73.729  1.00  0.00    -0.101 C  
HETATM   20  S   UNL     1      -7.476   7.908  72.126  1.00  0.00    -0.091 SA 
HETATM   21  O   UNL     1      -8.237   4.679  74.216  1.00  0.00    -0.098 OA 
HETATM   22  O   UNL     1      -6.458   6.057  74.106  1.00  0.00    -0.069 OA 
ENDBRANCH  10  14
ENDBRANCH   5   6
ENDBRANCH   4   5
TORSDOF 3
ENDMDL
MODEL      167
REMARK 921   NORMALIZED FREE ENERGY PREDICTED BY IDOCK:   -2.98 KCAL/MOL
REMARK 922        TOTAL FREE ENERGY PREDICTED BY IDOCK:   -4.18 KCAL/MOL
REMARK 923 INTER-LIGAND FREE ENERGY PREDICTED BY IDOCK:   -3.64 KCAL/MOL
REMARK 924 INTRA-LIGAND FREE ENERGY PREDICTED BY IDOCK:   -0.55 KCAL/MOL
REMARK 927      BINDING AFFINITY PREDICTED BY RF-SCORE:    0.00 PKD
ROOT
HETATM    1  C   UNL     1      -9.639  16.539  68.146  1.00  0.00    -0.226 C  
HETATM    2  C   UNL     1      -8.700  15.392  67.777  1.00  0.00    -0.167 C  
HETATM    3  C   UNL     1      -7.418  15.464  68.609  1.00  0.00    -0.130 C  
HETATM    4  C   UNL     1      -9.409  14.042  67.953  1.00  0.00    -0.206 C  
ENDROOT
BRANCH   4   5
HETATM    5  O   UNL     1      -8.492  12.994  67.632  1.00  0.00    -0.161 OA 
BRANCH   5   6
HETATM    6  C   UNL     1      -8.763  11.760  68.157  1.00  0.00    -0.168 A  
HETATM    7  C   UNL     1      -7.809  11.217  69.027  1.00  0.00    -0.103 A  
HETATM    8  C   UNL     1      -8.002   9.937  69.571  1.00  0.00    -0.149 A  
HETATM    9  C   UNL     1      -6.633  11.953  69.398  1.00  0.00    -0.108 C  
HETATM   10  C   UNL     1      -9.138   9.174  69.254  1.00  0.00    -0.146 A  
HETATM   11  N   UNL     1      -5.673  12.509  69.742  1.00  0.00    -0.101 NA 
HETATM   12  C   UNL     1      -9.894  11.008  67.829  1.00  0.00    -0.190 A  
HETATM   13  C   UNL     1     -10.076   9.728  68.371  1.00  0.00    -0.189 A  
BRANCH  10  14
HETATM   14  C   UNL     1      -9.356   7.822  69.799  1.00  0.00    -0.153 A  
HETATM   15  N   UNL     1      -9.343   6.709  69.092  1.00  0.00    -0.135 NA 
HETATM   16  C   UNL     1      -9.571   5.603  69.906  1.00  0.00    -0.161 A  
HETATM   17  C   UNL     1      -9.799   5.902  71.239  1.00  0.00    -0.176 A  
HETATM   18  C   UNL     1      -9.550   4.248  69.285  1.00  0.00    -0.261 C  
HETATM   19  C   UNL     1     -10.082   4.997  72.332  1.00  0.00    -0.187 C  
HETATM   20  S   UNL     1      -9.701   7.596  71.468  1.00  0.00    -0.166 SA 
HETATM   21  O   UNL     1     -10.181   3.782  72.239  1.00  0.00    -0.171 OA 
HETATM   22  O   UNL     1     -10.239   5.631  73.525  1.00  0.00    -0.184 OA 
ENDBRANCH  10  14
ENDBRANCH   5   6
ENDBRANCH   4   5
TORSDOF 3
ENDMDL
MODEL      168
REMARK 921   NORMALIZED FREE ENERGY PREDICTED BY IDOCK:   -2.97 KCAL/MOL
REMARK 922        TOTAL FREE ENERGY PREDICTED BY IDOCK:   -4.18 KCAL/MOL
REMARK 923 INTER-LIGAND FREE ENERGY PREDICTED BY IDOCK:   -4.41 KCAL/MOL
REMARK 924 INTRA-LIGAND FREE ENERGY PREDICTED BY IDOCK:    0.23 KCAL/MOL
REMARK 927      BINDING AFFINITY PREDICTED BY RF-SCORE:    0.00 PKD
ROOT
HETATM    1  C   UNL     1     -12.611  10.357  70.367  1.00  0.00    -0.329 C  
HETATM    2  C   UNL     1     -11.867   9.094  70.794  1.00  0.00    -0.280 C  
HETATM    3  C   UNL     1     -10.687   9.451  71.701  1.00  0.00    -0.298 C  
HETATM    4  C   UNL     1     -12.829   8.114  71.483  1.00  0.00    -0.301 C  
ENDROOT
BRANCH   4   5
HETATM    5  O   UNL     1     -12.093   6.962  71.900  1.00  0.00    -0.311 OA 
BRANCH   5   6
HETATM    6  C   UNL     1     -11.360   6.323  70.938  1.00  0.00    -0.325 A  
HETATM    7  C   UNL     1     -10.391   5.413  71.379  1.00  0.00    -0.294 A  
HETATM    8  C   UNL     1      -9.573   4.750  70.450  1.00  0.00    -0.267 A  
HETATM    9  C   UNL     1     -10.223   5.119  72.776  1.00  0.00    -0.179 C  
HETATM   10  C   UNL     1      -9.698   4.987  69.071  1.00  0.00    -0.238 A  
HETATM   11  N   UNL     1     -10.056   4.835  73.889  1.00  0.00    -0.165 NA 
HETATM   12  C   UNL     1     -11.488   6.572  69.569  1.00  0.00    -0.384 A  
HETATM   13  C   UNL     1     -10.664   5.912  68.648  1.00  0.00    -0.339 A  
BRANCH  10  14
HETATM   14  C   UNL     1      -8.841   4.317  68.076  1.00  0.00    -0.111 A  
HETATM   15  N   UNL     1      -7.540   4.141  68.193  1.00  0.00    -0.067 NA 
HETATM   16  C   UNL     1      -7.031   3.464  67.088  1.00  0.00    -0.057 A  
HETATM   17  C   UNL     1      -7.966   3.166  66.110  1.00  0.00    -0.085 A  
HETATM   18  C   UNL     1      -5.577   3.136  67.064  1.00  0.00    -0.021 C  
HETATM   19  C   UNL     1      -7.766   2.493  64.846  1.00  0.00    -0.073 C  
HETATM   20  S   UNL     1      -9.506   3.728  66.604  1.00  0.00    -0.168 SA 
HETATM   21  O   UNL     1      -6.696   2.080  64.423  1.00  0.00    -0.026 OA 
HETATM   22  O   UNL     1      -8.912   2.350  64.127  1.00  0.00    -0.096 OA 
ENDBRANCH  10  14
ENDBRANCH   5   6
ENDBRANCH   4   5
TORSDOF 3
ENDMDL
MODEL      169
REMARK 921   NORMALIZED FREE ENERGY PREDICTED BY IDOCK:   -2.96 KCAL/MOL
REMARK 922        TOTAL FREE ENERGY PREDICTED BY IDOCK:   -4.17 KCAL/MOL
REMARK 923 INTER-LIGAND FREE ENERGY PREDICTED BY IDOCK:   -3.96 KCAL/MOL
REMARK 924 INTRA-LIGAND FREE ENERGY PREDICTED BY IDOCK:   -0.21 KCAL/MOL
REMARK 927      BINDING AFFINITY PREDICTED BY RF-SCORE:    0.00 PKD
ROOT
HETATM    1  C   UNL     1      -9.653   3.547  70.033  1.00  0.00    -0.226 C  
HETATM    2  C   UNL     1     -10.039   4.739  70.906  1.00  0.00    -0.275 C  
HETATM    3  C   UNL     1      -9.086   4.857  72.098  1.00  0.00    -0.148 C  
HETATM    4  C   UNL     1     -10.059   6.029  70.073  1.00  0.00    -0.186 C  
ENDROOT
BRANCH   4   5
HETATM    5  O   UNL     1     -10.388   7.126  70.928  1.00  0.00    -0.201 OA 
BRANCH   5   6
HETATM    6  C   UNL     1     -10.456   8.360  70.342  1.00  0.00    -0.214 A  
HETATM    7  C   UNL     1      -9.246   9.037  70.148  1.00  0.00    -0.212 A  
HETATM    8  C   UNL     1      -9.243  10.326  69.591  1.00  0.00    -0.155 A  
HETATM    9  C   UNL     1      -7.989   8.433  70.490  1.00  0.00    -0.098 C  
HETATM   10  C   UNL     1     -10.440  10.964  69.226  1.00  0.00    -0.230 A  
HETATM   11  N   UNL     1      -6.946   7.985  70.736  1.00  0.00    -0.044 NA 
HETATM   12  C   UNL     1     -11.654   8.988  69.990  1.00  0.00     0.081 A  
HETATM   13  C   UNL     1     -11.643  10.277  69.440  1.00  0.00    -0.213 A  
BRANCH  10  14
HETATM   14  C   UNL     1     -10.465  12.323  68.653  1.00  0.00    -0.208 A  
HETATM   15  N   UNL     1      -9.733  12.728  67.635  1.00  0.00    -0.200 NA 
HETATM   16  C   UNL     1     -10.000  14.061  67.333  1.00  0.00    -0.243 A  
HETATM   17  C   UNL     1     -10.921  14.670  68.169  1.00  0.00    -0.261 A  
HETATM   18  C   UNL     1      -9.293  14.683  66.177  1.00  0.00    -0.265 C  
HETATM   19  C   UNL     1     -11.403  16.034  68.139  1.00  0.00    -0.289 C  
HETATM   20  S   UNL     1     -11.470  13.541  69.333  1.00  0.00    -0.265 SA 
HETATM   21  O   UNL     1     -11.046  16.896  67.349  1.00  0.00    -0.146 OA 
HETATM   22  O   UNL     1     -12.324  16.298  69.104  1.00  0.00     0.041 OA 
ENDBRANCH  10  14
ENDBRANCH   5   6
ENDBRANCH   4   5
TORSDOF 3
ENDMDL
MODEL      170
REMARK 921   NORMALIZED FREE ENERGY PREDICTED BY IDOCK:   -2.95 KCAL/MOL
REMARK 922        TOTAL FREE ENERGY PREDICTED BY IDOCK:   -4.15 KCAL/MOL
REMARK 923 INTER-LIGAND FREE ENERGY PREDICTED BY IDOCK:   -3.69 KCAL/MOL
REMARK 924 INTRA-LIGAND FREE ENERGY PREDICTED BY IDOCK:   -0.46 KCAL/MOL
REMARK 927      BINDING AFFINITY PREDICTED BY RF-SCORE:    0.00 PKD
ROOT
HETATM    1  C   UNL     1     -12.673  14.043  72.601  1.00  0.00    -0.324 C  
HETATM    2  C   UNL     1     -12.829  12.618  72.073  1.00  0.00    -0.268 C  
HETATM    3  C   UNL     1     -14.267  12.133  72.265  1.00  0.00     0.652 C  
HETATM    4  C   UNL     1     -12.403  12.545  70.599  1.00  0.00    -0.282 C  
ENDROOT
BRANCH   4   5
HETATM    5  O   UNL     1     -12.595  11.208  70.130  1.00  0.00    -0.258 OA 
BRANCH   5   6
HETATM    6  C   UNL     1     -11.768  10.788  69.125  1.00  0.00    -0.296 A  
HETATM    7  C   UNL     1     -10.862   9.766  69.435  1.00  0.00    -0.256 A  
HETATM    8  C   UNL     1      -9.955   9.312  68.464  1.00  0.00    -0.193 A  
HETATM    9  C   UNL     1     -10.850   9.147  70.731  1.00  0.00    -0.268 C  
HETATM   10  C   UNL     1      -9.927   9.871  67.176  1.00  0.00    -0.252 A  
HETATM   11  N   UNL     1     -10.807   8.604  71.756  1.00  0.00    -0.299 NA 
HETATM   12  C   UNL     1     -11.745  11.356  67.849  1.00  0.00    -0.300 A  
HETATM   13  C   UNL     1     -10.832  10.902  66.887  1.00  0.00    -0.307 A  
BRANCH  10  14
HETATM   14  C   UNL     1      -8.974   9.423  66.143  1.00  0.00    -0.161 A  
HETATM   15  N   UNL     1      -8.873   8.189  65.691  1.00  0.00    -0.153 NA 
HETATM   16  C   UNL     1      -7.886   8.100  64.713  1.00  0.00    -0.137 A  
HETATM   17  C   UNL     1      -7.210   9.283  64.463  1.00  0.00    -0.101 A  
HETATM   18  C   UNL     1      -7.657   6.783  64.053  1.00  0.00    -0.108 C  
HETATM   19  C   UNL     1      -6.130   9.526  63.532  1.00  0.00    -0.096 C  
HETATM   20  S   UNL     1      -7.846  10.524  65.457  1.00  0.00    -0.103 SA 
HETATM   21  O   UNL     1      -5.618   8.688  62.804  1.00  0.00    -0.070 OA 
HETATM   22  O   UNL     1      -5.706  10.818  63.529  1.00  0.00    -0.111 OA 
ENDBRANCH  10  14
ENDBRANCH   5   6
ENDBRANCH   4   5
TORSDOF 3
ENDMDL
MODEL      171
REMARK 921   NORMALIZED FREE ENERGY PREDICTED BY IDOCK:   -2.94 KCAL/MOL
REMARK 922        TOTAL FREE ENERGY PREDICTED BY IDOCK:   -4.15 KCAL/MOL
REMARK 923 INTER-LIGAND FREE ENERGY PREDICTED BY IDOCK:   -3.59 KCAL/MOL
REMARK 924 INTRA-LIGAND FREE ENERGY PREDICTED BY IDOCK:   -0.55 KCAL/MOL
REMARK 927      BINDING AFFINITY PREDICTED BY RF-SCORE:    0.00 PKD
ROOT
HETATM    1  C   UNL     1     -11.515  13.464  67.054  1.00  0.00    -0.372 C  
HETATM    2  C   UNL     1     -10.476  12.560  67.715  1.00  0.00    -0.230 C  
HETATM    3  C   UNL     1      -9.258  13.378  68.151  1.00  0.00    -0.215 C  
HETATM    4  C   UNL     1     -11.099  11.805  68.898  1.00  0.00    -0.243 C  
ENDROOT
BRANCH   4   5
HETATM    5  O   UNL     1     -10.092  10.999  69.512  1.00  0.00    -0.110 OA 
BRANCH   5   6
HETATM    6  C   UNL     1      -9.798   9.813  68.897  1.00  0.00    -0.173 A  
HETATM    7  C   UNL     1      -8.506   9.306  69.083  1.00  0.00    -0.133 A  
HETATM    8  C   UNL     1      -8.120   8.114  68.448  1.00  0.00    -0.128 A  
HETATM    9  C   UNL     1      -7.558   9.971  69.934  1.00  0.00    -0.170 C  
HETATM   10  C   UNL     1      -9.006   7.414  67.614  1.00  0.00    -0.126 A  
HETATM   11  N   UNL     1      -6.759  10.460  70.620  1.00  0.00    -0.339 NA 
HETATM   12  C   UNL     1     -10.686   9.129  68.063  1.00  0.00    -0.205 A  
HETATM   13  C   UNL     1     -10.291   7.943  67.428  1.00  0.00    -0.349 A  
BRANCH  10  14
HETATM   14  C   UNL     1      -8.621   6.169  66.924  1.00  0.00    -0.109 A  
HETATM   15  N   UNL     1      -9.033   5.810  65.724  1.00  0.00    -0.154 NA 
HETATM   16  C   UNL     1      -8.479   4.588  65.356  1.00  0.00    -0.123 A  
HETATM   17  C   UNL     1      -7.669   4.006  66.318  1.00  0.00    -0.090 A  
HETATM   18  C   UNL     1      -8.799   4.040  64.007  1.00  0.00    -0.120 C  
HETATM   19  C   UNL     1      -6.963   2.745  66.260  1.00  0.00    -0.052 C  
HETATM   20  S   UNL     1      -7.592   5.025  67.691  1.00  0.00    -0.087 SA 
HETATM   21  O   UNL     1      -6.985   1.961  65.321  1.00  0.00    -0.041 OA 
HETATM   22  O   UNL     1      -6.242   2.482  67.383  1.00  0.00    -0.027 OA 
ENDBRANCH  10  14
ENDBRANCH   5   6
ENDBRANCH   4   5
TORSDOF 3
ENDMDL
MODEL      172
REMARK 921   NORMALIZED FREE ENERGY PREDICTED BY IDOCK:   -2.82 KCAL/MOL
REMARK 922        TOTAL FREE ENERGY PREDICTED BY IDOCK:   -4.00 KCAL/MOL
REMARK 923 INTER-LIGAND FREE ENERGY PREDICTED BY IDOCK:   -3.60 KCAL/MOL
REMARK 924 INTRA-LIGAND FREE ENERGY PREDICTED BY IDOCK:   -0.39 KCAL/MOL
REMARK 927      BINDING AFFINITY PREDICTED BY RF-SCORE:    0.00 PKD
ROOT
HETATM    1  C   UNL     1      -6.781   8.284  73.620  1.00  0.00    -0.145 C  
HETATM    2  C   UNL     1      -7.492   6.986  73.244  1.00  0.00    -0.077 C  
HETATM    3  C   UNL     1      -7.464   6.004  74.418  1.00  0.00    -0.090 C  
HETATM    4  C   UNL     1      -8.929   7.276  72.788  1.00  0.00    -0.135 C  
ENDROOT
BRANCH   4   5
HETATM    5  O   UNL     1      -9.573   6.038  72.479  1.00  0.00    -0.154 OA 
BRANCH   5   6
HETATM    6  C   UNL     1      -9.452   5.589  71.193  1.00  0.00    -0.159 A  
HETATM    7  C   UNL     1     -10.527   5.839  70.330  1.00  0.00    -0.342 A  
HETATM    8  C   UNL     1     -10.490   5.372  69.007  1.00  0.00    -0.252 A  
HETATM    9  C   UNL     1     -11.673   6.589  70.763  1.00  0.00    -0.366 C  
HETATM   10  C   UNL     1      -9.393   4.642  68.522  1.00  0.00    -0.190 A  
HETATM   11  N   UNL     1     -12.615   7.202  71.058  1.00  0.00    -0.338 NA 
HETATM   12  C   UNL     1      -8.358   4.858  70.724  1.00  0.00    -0.103 A  
HETATM   13  C   UNL     1      -8.331   4.389  69.403  1.00  0.00    -0.083 A  
BRANCH  10  14
HETATM   14  C   UNL     1      -9.336   4.127  67.142  1.00  0.00    -0.176 A  
HETATM   15  N   UNL     1     -10.230   4.373  66.205  1.00  0.00    -0.238 NA 
HETATM   16  C   UNL     1      -9.880   3.749  65.011  1.00  0.00    -0.175 A  
HETATM   17  C   UNL     1      -8.723   2.990  65.072  1.00  0.00    -0.112 A  
HETATM   18  C   UNL     1     -10.755   3.950  63.821  1.00  0.00    -0.193 C  
HETATM   19  C   UNL     1      -8.100   2.210  64.025  1.00  0.00    -0.080 C  
HETATM   20  S   UNL     1      -8.061   3.085  66.648  1.00  0.00    -0.086 SA 
HETATM   21  O   UNL     1      -8.523   2.085  62.885  1.00  0.00    -0.071 OA 
HETATM   22  O   UNL     1      -6.954   1.595  64.426  1.00  0.00    -0.036 OA 
ENDBRANCH  10  14
ENDBRANCH   5   6
ENDBRANCH   4   5
TORSDOF 3
ENDMDL
MODEL      173
REMARK 921   NORMALIZED FREE ENERGY PREDICTED BY IDOCK:   -2.68 KCAL/MOL
REMARK 922        TOTAL FREE ENERGY PREDICTED BY IDOCK:   -3.84 KCAL/MOL
REMARK 923 INTER-LIGAND FREE ENERGY PREDICTED BY IDOCK:   -3.39 KCAL/MOL
REMARK 924 INTRA-LIGAND FREE ENERGY PREDICTED BY IDOCK:   -0.45 KCAL/MOL
REMARK 927      BINDING AFFINITY PREDICTED BY RF-SCORE:    0.00 PKD
ROOT
HETATM    1  C   UNL     1      -5.783  15.235  68.100  1.00  0.00    -0.140 C  
HETATM    2  C   UNL     1      -6.804  14.233  68.633  1.00  0.00    -0.098 C  
HETATM    3  C   UNL     1      -7.982  14.965  69.279  1.00  0.00    -0.153 C  
HETATM    4  C   UNL     1      -7.273  13.297  67.509  1.00  0.00    -0.150 C  
ENDROOT
BRANCH   4   5
HETATM    5  O   UNL     1      -8.252  12.398  68.035  1.00  0.00    -0.148 OA 
BRANCH   5   6
HETATM    6  C   UNL     1      -8.269  11.136  67.509  1.00  0.00    -0.119 A  
HETATM    7  C   UNL     1      -9.525  10.542  67.328  1.00  0.00    -0.179 A  
HETATM    8  C   UNL     1      -9.618   9.232  66.831  1.00  0.00    -0.229 A  
HETATM    9  C   UNL     1     -10.737  11.255  67.621  1.00  0.00    -0.226 C  
HETATM   10  C   UNL     1      -8.469   8.489  66.516  1.00  0.00    -0.119 A  
HETATM   11  N   UNL     1     -11.747  11.790  67.829  1.00  0.00    -0.536 NA 
HETATM   12  C   UNL     1      -7.119  10.404  67.206  1.00  0.00    -0.088 A  
HETATM   13  C   UNL     1      -7.220   9.094  66.717  1.00  0.00    -0.086 A  
BRANCH  10  14
HETATM   14  C   UNL     1      -8.539   7.107  66.008  1.00  0.00    -0.152 A  
HETATM   15  N   UNL     1      -8.349   6.752  64.752  1.00  0.00    -0.050 NA 
HETATM   16  C   UNL     1      -8.474   5.373  64.604  1.00  0.00    -0.126 A  
HETATM   17  C   UNL     1      -8.803   4.693  65.766  1.00  0.00    -0.127 A  
HETATM   18  C   UNL     1      -8.249   4.780  63.255  1.00  0.00    -0.106 C  
HETATM   19  C   UNL     1      -9.021   3.275  65.950  1.00  0.00    -0.143 C  
HETATM   20  S   UNL     1      -8.934   5.806  67.060  1.00  0.00    -0.115 SA 
HETATM   21  O   UNL     1      -8.959   2.427  65.072  1.00  0.00    -0.117 OA 
HETATM   22  O   UNL     1      -9.316   2.941  67.236  1.00  0.00    -0.182 OA 
ENDBRANCH  10  14
ENDBRANCH   5   6
ENDBRANCH   4   5
TORSDOF 3
ENDMDL
MODEL      174
REMARK 921   NORMALIZED FREE ENERGY PREDICTED BY IDOCK:   -2.68 KCAL/MOL
REMARK 922        TOTAL FREE ENERGY PREDICTED BY IDOCK:   -3.84 KCAL/MOL
REMARK 923 INTER-LIGAND FREE ENERGY PREDICTED BY IDOCK:   -3.32 KCAL/MOL
REMARK 924 INTRA-LIGAND FREE ENERGY PREDICTED BY IDOCK:   -0.52 KCAL/MOL
REMARK 927      BINDING AFFINITY PREDICTED BY RF-SCORE:    0.00 PKD
ROOT
HETATM    1  C   UNL     1     -10.837  18.499  65.602  1.00  0.00     0.023 C  
HETATM    2  C   UNL     1      -9.694  17.779  66.312  1.00  0.00    -0.277 C  
HETATM    3  C   UNL     1      -9.803  17.970  67.827  1.00  0.00    -0.306 C  
HETATM    4  C   UNL     1      -9.681  16.291  65.933  1.00  0.00    -0.321 C  
ENDROOT
BRANCH   4   5
HETATM    5  O   UNL     1      -8.622  15.644  66.643  1.00  0.00    -0.247 OA 
BRANCH   5   6
HETATM    6  C   UNL     1      -8.832  14.340  67.000  1.00  0.00    -0.226 A  
HETATM    7  C   UNL     1      -7.739  13.644  67.532  1.00  0.00    -0.183 A  
HETATM    8  C   UNL     1      -7.870  12.291  67.883  1.00  0.00    -0.146 A  
HETATM    9  C   UNL     1      -6.476  14.293  67.751  1.00  0.00    -0.166 C  
HETATM   10  C   UNL     1      -9.083  11.606  67.703  1.00  0.00    -0.174 A  
HETATM   11  N   UNL     1      -5.439  14.772  67.961  1.00  0.00    -0.140 NA 
HETATM   12  C   UNL     1     -10.042  13.667  66.810  1.00  0.00    -0.269 A  
HETATM   13  C   UNL     1     -10.163  12.314  67.157  1.00  0.00    -0.224 A  
BRANCH  10  14
HETATM   14  C   UNL     1      -9.242  10.182  68.049  1.00  0.00    -0.138 A  
HETATM   15  N   UNL     1     -10.397   9.562  68.190  1.00  0.00    -0.198 NA 
HETATM   16  C   UNL     1     -10.202   8.220  68.507  1.00  0.00    -0.208 A  
HETATM   17  C   UNL     1      -8.876   7.844  68.645  1.00  0.00    -0.134 A  
HETATM   18  C   UNL     1     -11.399   7.346  68.664  1.00  0.00     0.411 C  
HETATM   19  C   UNL     1      -8.337   6.545  68.982  1.00  0.00    -0.116 C  
HETATM   20  S   UNL     1      -7.866   9.195  68.348  1.00  0.00    -0.103 SA 
HETATM   21  O   UNL     1      -8.996   5.543  69.220  1.00  0.00    -0.111 OA 
HETATM   22  O   UNL     1      -6.977   6.521  69.017  1.00  0.00    -0.069 OA 
ENDBRANCH  10  14
ENDBRANCH   5   6
ENDBRANCH   4   5
TORSDOF 3
ENDMDL
MODEL      175
REMARK 921   NORMALIZED FREE ENERGY PREDICTED BY IDOCK:   -2.61 KCAL/MOL
REMARK 922        TOTAL FREE ENERGY PREDICTED BY IDOCK:   -3.76 KCAL/MOL
REMARK 923 INTER-LIGAND FREE ENERGY PREDICTED BY IDOCK:   -3.28 KCAL/MOL
REMARK 924 INTRA-LIGAND FREE ENERGY PREDICTED BY IDOCK:   -0.48 KCAL/MOL
REMARK 927      BINDING AFFINITY PREDICTED BY RF-SCORE:    0.00 PKD
ROOT
HETATM    1  C   UNL     1      -8.782  17.048  68.740  1.00  0.00    -0.244 C  
HETATM    2  C   UNL     1      -7.695  16.037  68.384  1.00  0.00    -0.147 C  
HETATM    3  C   UNL     1      -6.528  16.140  69.368  1.00  0.00    -0.185 C  
HETATM    4  C   UNL     1      -8.277  14.616  68.349  1.00  0.00    -0.154 C  
ENDROOT
BRANCH   4   5
HETATM    5  O   UNL     1      -7.226  13.695  68.048  1.00  0.00    -0.098 OA 
BRANCH   5   6
HETATM    6  C   UNL     1      -7.555  12.367  68.056  1.00  0.00    -0.128 A  
HETATM    7  C   UNL     1      -7.038  11.592  69.102  1.00  0.00    -0.105 A  
HETATM    8  C   UNL     1      -7.300  10.213  69.152  1.00  0.00    -0.089 A  
HETATM    9  C   UNL     1      -6.254  12.182  70.151  1.00  0.00    -0.061 C  
HETATM   10  C   UNL     1      -8.070   9.582  68.161  1.00  0.00    -0.102 A  
HETATM   11  N   UNL     1      -5.627  12.610  71.030  1.00  0.00    -0.321 NA 
HETATM   12  C   UNL     1      -8.316  11.748  67.061  1.00  0.00    -0.172 A  
HETATM   13  C   UNL     1      -8.567  10.371  67.114  1.00  0.00    -0.130 A  
BRANCH  10  14
HETATM   14  C   UNL     1      -8.346   8.134  68.182  1.00  0.00    -0.129 A  
HETATM   15  N   UNL     1      -7.942   7.273  67.269  1.00  0.00    -0.110 NA 
HETATM   16  C   UNL     1      -8.358   5.983  67.586  1.00  0.00    -0.108 A  
HETATM   17  C   UNL     1      -9.123   5.889  68.738  1.00  0.00    -0.116 A  
HETATM   18  C   UNL     1      -7.956   4.865  66.687  1.00  0.00    -0.103 C  
HETATM   19  C   UNL     1      -9.720   4.712  69.330  1.00  0.00    -0.202 C  
HETATM   20  S   UNL     1      -9.297   7.442  69.436  1.00  0.00    -0.154 SA 
HETATM   21  O   UNL     1      -9.650   3.577  68.880  1.00  0.00    -0.165 OA 
HETATM   22  O   UNL     1     -10.399   4.976  70.479  1.00  0.00    -0.254 OA 
ENDBRANCH  10  14
ENDBRANCH   5   6
ENDBRANCH   4   5
TORSDOF 3
ENDMDL
MODEL      176
REMARK 921   NORMALIZED FREE ENERGY PREDICTED BY IDOCK:   -2.48 KCAL/MOL
REMARK 922        TOTAL FREE ENERGY PREDICTED BY IDOCK:   -3.60 KCAL/MOL
REMARK 923 INTER-LIGAND FREE ENERGY PREDICTED BY IDOCK:   -2.96 KCAL/MOL
REMARK 924 INTRA-LIGAND FREE ENERGY PREDICTED BY IDOCK:   -0.64 KCAL/MOL
REMARK 927      BINDING AFFINITY PREDICTED BY RF-SCORE:    0.00 PKD
ROOT
HETATM    1  C   UNL     1     -11.776  13.669  67.272  1.00  0.00    -0.416 C  
HETATM    2  C   UNL     1     -10.472  12.883  67.147  1.00  0.00    -0.241 C  
HETATM    3  C   UNL     1      -9.326  13.814  66.743  1.00  0.00    -0.276 C  
HETATM    4  C   UNL     1     -10.162  12.149  68.460  1.00  0.00    -0.207 C  
ENDROOT
BRANCH   4   5
HETATM    5  O   UNL     1      -8.921  11.455  68.318  1.00  0.00    -0.162 OA 
BRANCH   5   6
HETATM    6  C   UNL     1      -8.990  10.158  67.890  1.00  0.00    -0.128 A  
HETATM    7  C   UNL     1      -7.949   9.705  67.070  1.00  0.00    -0.109 A  
HETATM    8  C   UNL     1      -7.974   8.397  66.559  1.00  0.00    -0.096 A  
HETATM    9  C   UNL     1      -6.829  10.547  66.751  1.00  0.00    -0.103 C  
HETATM   10  C   UNL     1      -9.036   7.524  66.845  1.00  0.00    -0.152 A  
HETATM   11  N   UNL     1      -5.896  11.180  66.474  1.00  0.00    -0.129 NA 
HETATM   12  C   UNL     1     -10.055   9.300  68.175  1.00  0.00    -0.222 A  
HETATM   13  C   UNL     1     -10.077   7.999  67.655  1.00  0.00    -0.269 A  
BRANCH  10  14
HETATM   14  C   UNL     1      -9.094   6.152  66.308  1.00  0.00    -0.154 A  
HETATM   15  N   UNL     1      -9.200   5.058  67.036  1.00  0.00    -0.117 NA 
HETATM   16  C   UNL     1      -9.240   3.927  66.227  1.00  0.00    -0.163 A  
HETATM   17  C   UNL     1      -9.121   4.181  64.870  1.00  0.00    -0.144 A  
HETATM   18  C   UNL     1      -9.402   2.594  66.875  1.00  0.00    -0.062 C  
HETATM   19  C   UNL     1      -9.108   3.238  63.773  1.00  0.00    -0.097 C  
HETATM   20  S   UNL     1      -8.979   5.868  64.616  1.00  0.00     0.472 SA 
HETATM   21  O   UNL     1      -9.189   2.023  63.881  1.00  0.00    -0.101 OA 
HETATM   22  O   UNL     1      -8.989   3.834  62.556  1.00  0.00    -0.089 OA 
ENDBRANCH  10  14
ENDBRANCH   5   6
ENDBRANCH   4   5
TORSDOF 3
ENDMDL
MODEL      177
REMARK 921   NORMALIZED FREE ENERGY PREDICTED BY IDOCK:   -2.46 KCAL/MOL
REMARK 922        TOTAL FREE ENERGY PREDICTED BY IDOCK:   -3.58 KCAL/MOL
REMARK 923 INTER-LIGAND FREE ENERGY PREDICTED BY IDOCK:   -2.91 KCAL/MOL
REMARK 924 INTRA-LIGAND FREE ENERGY PREDICTED BY IDOCK:   -0.68 KCAL/MOL
REMARK 927      BINDING AFFINITY PREDICTED BY RF-SCORE:    0.00 PKD
ROOT
HETATM    1  C   UNL     1     -10.615  16.287  66.084  1.00  0.00    -0.272 C  
HETATM    2  C   UNL     1      -9.502  15.578  66.854  1.00  0.00    -0.244 C  
HETATM    3  C   UNL     1      -8.578  16.601  67.518  1.00  0.00    -0.199 C  
HETATM    4  C   UNL     1     -10.099  14.608  67.884  1.00  0.00    -0.225 C  
ENDROOT
BRANCH   4   5
HETATM    5  O   UNL     1      -9.033  13.991  68.608  1.00  0.00    -0.177 OA 
BRANCH   5   6
HETATM    6  C   UNL     1      -8.721  12.705  68.261  1.00  0.00    -0.169 A  
HETATM    7  C   UNL     1      -7.394  12.452  67.891  1.00  0.00    -0.112 A  
HETATM    8  C   UNL     1      -7.011  11.164  67.482  1.00  0.00    -0.088 A  
HETATM    9  C   UNL     1      -6.396  13.484  67.939  1.00  0.00    -0.154 C  
HETATM   10  C   UNL     1      -7.939  10.112  67.426  1.00  0.00    -0.110 A  
HETATM   11  N   UNL     1      -5.548  14.277  67.973  1.00  0.00    -0.141 NA 
HETATM   12  C   UNL     1      -9.655  11.668  68.201  1.00  0.00    -0.190 A  
HETATM   13  C   UNL     1      -9.267  10.387  67.786  1.00  0.00    -0.148 A  
BRANCH  10  14
HETATM   14  C   UNL     1      -7.566   8.755  66.986  1.00  0.00    -0.088 A  
HETATM   15  N   UNL     1      -6.463   8.448  66.333  1.00  0.00    -0.057 NA 
HETATM   16  C   UNL     1      -6.405   7.081  66.075  1.00  0.00    -0.046 A  
HETATM   17  C   UNL     1      -7.508   6.363  66.510  1.00  0.00    -0.086 A  
HETATM   18  C   UNL     1      -5.204   6.539  65.379  1.00  0.00    -0.018 C  
HETATM   19  C   UNL     1      -7.767   4.945  66.385  1.00  0.00    -0.092 C  
HETATM   20  S   UNL     1      -8.616   7.424  67.271  1.00  0.00    -0.118 SA 
HETATM   21  O   UNL     1      -7.031   4.134  65.843  1.00  0.00    -0.062 OA 
HETATM   22  O   UNL     1      -8.950   4.566  66.941  1.00  0.00    -0.111 OA 
ENDBRANCH  10  14
ENDBRANCH   5   6
ENDBRANCH   4   5
TORSDOF 3
ENDMDL
MODEL      178
REMARK 921   NORMALIZED FREE ENERGY PREDICTED BY IDOCK:   -2.45 KCAL/MOL
REMARK 922        TOTAL FREE ENERGY PREDICTED BY IDOCK:   -3.57 KCAL/MOL
REMARK 923 INTER-LIGAND FREE ENERGY PREDICTED BY IDOCK:   -2.87 KCAL/MOL
REMARK 924 INTRA-LIGAND FREE ENERGY PREDICTED BY IDOCK:   -0.70 KCAL/MOL
REMARK 927      BINDING AFFINITY PREDICTED BY RF-SCORE:    0.00 PKD
ROOT
HETATM    1  C   UNL     1      -6.912   8.279  73.661  1.00  0.00    -0.157 C  
HETATM    2  C   UNL     1      -7.721   7.030  73.318  1.00  0.00    -0.099 C  
HETATM    3  C   UNL     1      -7.912   6.161  74.562  1.00  0.00    -0.101 C  
HETATM    4  C   UNL     1      -9.068   7.421  72.692  1.00  0.00    -0.143 C  
ENDROOT
BRANCH   4   5
HETATM    5  O   UNL     1      -9.811   6.231  72.417  1.00  0.00    -0.165 OA 
BRANCH   5   6
HETATM    6  C   UNL     1      -9.692   5.713  71.157  1.00  0.00    -0.172 A  
HETATM    7  C   UNL     1      -9.305   4.371  71.057  1.00  0.00    -0.216 A  
HETATM    8  C   UNL     1      -9.123   3.784  69.794  1.00  0.00    -0.192 A  
HETATM    9  C   UNL     1      -9.105   3.562  72.227  1.00  0.00    -0.102 C  
HETATM   10  C   UNL     1      -9.314   4.521  68.614  1.00  0.00    -0.199 A  
HETATM   11  N   UNL     1      -8.945   2.861  73.139  1.00  0.00    -0.082 NA 
HETATM   12  C   UNL     1      -9.878   6.458  69.990  1.00  0.00    -0.193 A  
HETATM   13  C   UNL     1      -9.689   5.867  68.733  1.00  0.00    -0.161 A  
BRANCH  10  14
HETATM   14  C   UNL     1      -9.115   3.932  67.277  1.00  0.00    -0.156 A  
HETATM   15  N   UNL     1      -8.064   3.227  66.909  1.00  0.00    -0.083 NA 
HETATM   16  C   UNL     1      -8.187   2.807  65.588  1.00  0.00    -0.089 A  
HETATM   17  C   UNL     1      -9.335   3.243  64.947  1.00  0.00    -0.149 A  
HETATM   18  C   UNL     1      -7.108   1.957  65.009  1.00  0.00    -0.048 C  
HETATM   19  C   UNL     1      -9.755   3.001  63.584  1.00  0.00    -0.131 C  
HETATM   20  S   UNL     1     -10.277   4.173  66.033  1.00  0.00     0.049 SA 
HETATM   21  O   UNL     1      -9.129   2.361  62.751  1.00  0.00    -0.087 OA 
HETATM   22  O   UNL     1     -10.954   3.568  63.283  1.00  0.00    -0.194 OA 
ENDBRANCH  10  14
ENDBRANCH   5   6
ENDBRANCH   4   5
TORSDOF 3
ENDMDL
MODEL      179
REMARK 921   NORMALIZED FREE ENERGY PREDICTED BY IDOCK:   -2.40 KCAL/MOL
REMARK 922        TOTAL FREE ENERGY PREDICTED BY IDOCK:   -3.50 KCAL/MOL
REMARK 923 INTER-LIGAND FREE ENERGY PREDICTED BY IDOCK:   -3.11 KCAL/MOL
REMARK 924 INTRA-LIGAND FREE ENERGY PREDICTED BY IDOCK:   -0.39 KCAL/MOL
REMARK 927      BINDING AFFINITY PREDICTED BY RF-SCORE:    0.00 PKD
ROOT
HETATM    1  C   UNL     1      -6.463  14.269  67.616  1.00  0.00    -0.151 C  
HETATM    2  C   UNL     1      -6.712  12.914  68.276  1.00  0.00    -0.093 C  
HETATM    3  C   UNL     1      -6.347  12.969  69.761  1.00  0.00    -0.063 C  
HETATM    4  C   UNL     1      -8.171  12.479  68.071  1.00  0.00    -0.166 C  
ENDROOT
BRANCH   4   5
HETATM    5  O   UNL     1      -8.376  11.228  68.730  1.00  0.00    -0.154 OA 
BRANCH   5   6
HETATM    6  C   UNL     1      -8.347  10.110  67.943  1.00  0.00    -0.117 A  
HETATM    7  C   UNL     1      -9.568   9.674  67.414  1.00  0.00    -0.183 A  
HETATM    8  C   UNL     1      -9.621   8.509  66.631  1.00  0.00    -0.292 A  
HETATM    9  C   UNL     1     -10.783  10.408  67.638  1.00  0.00    -0.286 C  
HETATM   10  C   UNL     1      -8.465   7.756  66.369  1.00  0.00    -0.136 A  
HETATM   11  N   UNL     1     -11.789  10.970  67.776  1.00  0.00    -0.591 NA 
HETATM   12  C   UNL     1      -7.192   9.364  67.694  1.00  0.00    -0.083 A  
HETATM   13  C   UNL     1      -7.253   8.199  66.917  1.00  0.00    -0.083 A  
BRANCH  10  14
HETATM   14  C   UNL     1      -8.495   6.522  65.563  1.00  0.00    -0.136 A  
HETATM   15  N   UNL     1      -9.511   5.683  65.501  1.00  0.00     0.030 NA 
HETATM   16  C   UNL     1      -9.226   4.624  64.643  1.00  0.00    -0.118 A  
HETATM   17  C   UNL     1      -7.957   4.654  64.087  1.00  0.00    -0.098 A  
HETATM   18  C   UNL     1     -10.278   3.593  64.414  1.00  0.00    -0.203 C  
HETATM   19  C   UNL     1      -7.347   3.708  63.179  1.00  0.00    -0.050 C  
HETATM   20  S   UNL     1      -7.127   6.047  64.637  1.00  0.00    -0.059 SA 
HETATM   21  O   UNL     1      -7.874   2.688  62.758  1.00  0.00    -0.064 OA 
HETATM   22  O   UNL     1      -6.083   4.053  62.814  1.00  0.00    -0.016 OA 
ENDBRANCH  10  14
ENDBRANCH   5   6
ENDBRANCH   4   5
TORSDOF 3
ENDMDL
MODEL      180
REMARK 921   NORMALIZED FREE ENERGY PREDICTED BY IDOCK:   -2.17 KCAL/MOL
REMARK 922        TOTAL FREE ENERGY PREDICTED BY IDOCK:   -3.24 KCAL/MOL
REMARK 923 INTER-LIGAND FREE ENERGY PREDICTED BY IDOCK:   -3.80 KCAL/MOL
REMARK 924 INTRA-LIGAND FREE ENERGY PREDICTED BY IDOCK:    0.56 KCAL/MOL
REMARK 927      BINDING AFFINITY PREDICTED BY RF-SCORE:    0.00 PKD
ROOT
HETATM    1  C   UNL     1      -6.527   9.160  62.834  1.00  0.00    -0.094 C  
HETATM    2  C   UNL     1      -7.843   9.413  63.567  1.00  0.00    -0.130 C  
HETATM    3  C   UNL     1      -8.997   9.523  62.568  1.00  0.00    -0.268 C  
HETATM    4  C   UNL     1      -8.100   8.307  64.602  1.00  0.00    -0.150 C  
ENDROOT
BRANCH   4   5
HETATM    5  O   UNL     1      -9.353   8.556  65.241  1.00  0.00    -0.012 OA 
BRANCH   5   6
HETATM    6  C   UNL     1      -9.557   9.822  65.717  1.00  0.00    -0.254 A  
HETATM    7  C   UNL     1      -8.992  10.130  66.961  1.00  0.00    -0.148 A  
HETATM    8  C   UNL     1      -9.195  11.397  67.532  1.00  0.00    -0.160 A  
HETATM    9  C   UNL     1      -8.182   9.178  67.670  1.00  0.00    -0.108 C  
HETATM   10  C   UNL     1      -9.967  12.373  66.881  1.00  0.00    -0.223 A  
HETATM   11  N   UNL     1      -7.509   8.452  68.277  1.00  0.00    -0.095 NA 
HETATM   12  C   UNL     1     -10.334  10.782  65.065  1.00  0.00    -0.357 A  
HETATM   13  C   UNL     1     -10.537  12.043  65.643  1.00  0.00    -0.303 A  
BRANCH  10  14
HETATM   14  C   UNL     1     -10.208  13.705  67.465  1.00  0.00    -0.241 A  
HETATM   15  N   UNL     1     -11.374  14.141  67.901  1.00  0.00    -0.279 NA 
HETATM   16  C   UNL     1     -11.262  15.435  68.403  1.00  0.00    -0.315 A  
HETATM   17  C   UNL     1      -9.995  15.988  68.301  1.00  0.00    -0.220 A  
HETATM   18  C   UNL     1     -12.475  16.080  68.981  1.00  0.00     0.558 C  
HETATM   19  C   UNL     1      -9.550  17.303  68.707  1.00  0.00    -0.269 C  
HETATM   20  S   UNL     1      -8.933  14.852  67.585  1.00  0.00    -0.186 SA 
HETATM   21  O   UNL     1     -10.253  18.167  69.209  1.00  0.00    -0.286 OA 
HETATM   22  O   UNL     1      -8.226  17.515  68.475  1.00  0.00    -0.265 OA 
ENDBRANCH  10  14
ENDBRANCH   5   6
ENDBRANCH   4   5
TORSDOF 3
ENDMDL
MODEL      181
REMARK 921   NORMALIZED FREE ENERGY PREDICTED BY IDOCK:   -1.60 KCAL/MOL
REMARK 922        TOTAL FREE ENERGY PREDICTED BY IDOCK:   -2.57 KCAL/MOL
REMARK 923 INTER-LIGAND FREE ENERGY PREDICTED BY IDOCK:   -2.32 KCAL/MOL
REMARK 924 INTRA-LIGAND FREE ENERGY PREDICTED BY IDOCK:   -0.25 KCAL/MOL
REMARK 927      BINDING AFFINITY PREDICTED BY RF-SCORE:    0.00 PKD
ROOT
HETATM    1  C   UNL     1      -8.328  12.666  67.937  1.00  0.00    -0.172 C  
HETATM    2  C   UNL     1      -7.667  11.311  68.180  1.00  0.00    -0.112 C  
HETATM    3  C   UNL     1      -6.189  11.495  68.533  1.00  0.00    -0.050 C  
HETATM    4  C   UNL     1      -8.415  10.539  69.277  1.00  0.00    -0.129 C  
ENDROOT
BRANCH   4   5
HETATM    5  O   UNL     1      -7.749   9.295  69.502  1.00  0.00    -0.075 OA 
BRANCH   5   6
HETATM    6  C   UNL     1      -7.953   8.315  68.570  1.00  0.00    -0.122 A  
HETATM    7  C   UNL     1      -7.258   7.113  68.752  1.00  0.00    -0.094 A  
HETATM    8  C   UNL     1      -7.386   6.077  67.812  1.00  0.00    -0.077 A  
HETATM    9  C   UNL     1      -6.421   6.900  69.900  1.00  0.00    -0.043 C  
HETATM   10  C   UNL     1      -8.198   6.221  66.676  1.00  0.00    -0.111 A  
HETATM   11  N   UNL     1      -5.745   6.672  70.816  1.00  0.00    -0.023 NA 
HETATM   12  C   UNL     1      -8.757   8.473  67.439  1.00  0.00    -0.136 A  
HETATM   13  C   UNL     1      -8.875   7.437  66.502  1.00  0.00    -0.165 A  
BRANCH  10  14
HETATM   14  C   UNL     1      -8.337   5.155  65.667  1.00  0.00    -0.123 A  
HETATM   15  N   UNL     1      -7.361   4.701  64.905  1.00  0.00    -0.070 NA 
HETATM   16  C   UNL     1      -7.818   3.688  64.067  1.00  0.00    -0.084 A  
HETATM   17  C   UNL     1      -9.171   3.411  64.178  1.00  0.00    -0.127 A  
HETATM   18  C   UNL     1      -6.842   3.022  63.160  1.00  0.00    -0.031 C  
HETATM   19  C   UNL     1      -9.956   2.440  63.448  1.00  0.00    -0.123 C  
HETATM   20  S   UNL     1      -9.865   4.425  65.370  1.00  0.00    -0.209 SA 
HETATM   21  O   UNL     1      -9.532   1.695  62.576  1.00  0.00    -0.088 OA 
HETATM   22  O   UNL     1     -11.265   2.419  63.821  1.00  0.00    -0.157 OA 
ENDBRANCH  10  14
ENDBRANCH   5   6
ENDBRANCH   4   5
TORSDOF 3
ENDMDL
MODEL      182
REMARK 921   NORMALIZED FREE ENERGY PREDICTED BY IDOCK:   -1.25 KCAL/MOL
REMARK 922        TOTAL FREE ENERGY PREDICTED BY IDOCK:   -2.16 KCAL/MOL
REMARK 923 INTER-LIGAND FREE ENERGY PREDICTED BY IDOCK:   -1.65 KCAL/MOL
REMARK 924 INTRA-LIGAND FREE ENERGY PREDICTED BY IDOCK:   -0.51 KCAL/MOL
REMARK 927      BINDING AFFINITY PREDICTED BY RF-SCORE:    0.00 PKD
ROOT
HETATM    1  C   UNL     1     -11.535   8.737  71.969  1.00  0.00    -0.441 C  
HETATM    2  C   UNL     1     -11.692   9.403  70.604  1.00  0.00    -0.302 C  
HETATM    3  C   UNL     1     -12.904  10.338  70.604  1.00  0.00    -0.362 C  
HETATM    4  C   UNL     1     -10.406  10.150  70.222  1.00  0.00    -0.174 C  
ENDROOT
BRANCH   4   5
HETATM    5  O   UNL     1     -10.602  10.789  68.959  1.00  0.00    -0.195 OA 
BRANCH   5   6
HETATM    6  C   UNL     1     -10.007  12.009  68.791  1.00  0.00    -0.073 A  
HETATM    7  C   UNL     1     -10.467  12.798  67.729  1.00  0.00    -0.228 A  
HETATM    8  C   UNL     1      -9.875  14.045  67.471  1.00  0.00    -0.236 A  
HETATM    9  C   UNL     1     -11.558  12.369  66.898  1.00  0.00    -0.370 C  
HETATM   10  C   UNL     1      -8.813  14.523  68.256  1.00  0.00    -0.179 A  
HETATM   11  N   UNL     1     -12.444  12.077  66.206  1.00  0.00     0.208 NA 
HETATM   12  C   UNL     1      -8.946  12.471  69.574  1.00  0.00     1.614 A  
HETATM   13  C   UNL     1      -8.356  13.714  69.306  1.00  0.00     0.574 A  
BRANCH  10  14
HETATM   14  C   UNL     1      -8.164  15.821  67.997  1.00  0.00    -0.140 A  
HETATM   15  N   UNL     1      -8.401  16.933  68.665  1.00  0.00    -0.253 NA 
HETATM   16  C   UNL     1      -7.618  17.977  68.182  1.00  0.00    -0.259 A  
HETATM   17  C   UNL     1      -6.812  17.646  67.104  1.00  0.00    -0.165 A  
HETATM   18  C   UNL     1      -7.719  19.308  68.846  1.00  0.00    -0.376 C  
HETATM   19  C   UNL     1      -5.903  18.493  66.364  1.00  0.00    -0.155 C  
HETATM   20  S   UNL     1      -7.031  15.993  66.715  1.00  0.00     0.170 SA 
HETATM   21  O   UNL     1      -5.708  19.681  66.576  1.00  0.00    -0.169 OA 
HETATM   22  O   UNL     1      -5.251  17.837  65.367  1.00  0.00    -0.137 OA 
ENDBRANCH  10  14
ENDBRANCH   5   6
ENDBRANCH   4   5
TORSDOF 3
ENDMDL
MODEL      183
REMARK 921   NORMALIZED FREE ENERGY PREDICTED BY IDOCK:   -1.18 KCAL/MOL
REMARK 922        TOTAL FREE ENERGY PREDICTED BY IDOCK:   -2.07 KCAL/MOL
REMARK 923 INTER-LIGAND FREE ENERGY PREDICTED BY IDOCK:   -1.58 KCAL/MOL
REMARK 924 INTRA-LIGAND FREE ENERGY PREDICTED BY IDOCK:   -0.49 KCAL/MOL
REMARK 927      BINDING AFFINITY PREDICTED BY RF-SCORE:    0.00 PKD
ROOT
HETATM    1  C   UNL     1     -12.609  13.518  72.645  1.00  0.00     0.109 C  
HETATM    2  C   UNL     1     -12.906  12.077  72.236  1.00  0.00     0.116 C  
HETATM    3  C   UNL     1     -14.407  11.794  72.333  1.00  0.00     1.153 C  
HETATM    4  C   UNL     1     -12.372  11.801  70.823  1.00  0.00    -0.337 C  
ENDROOT
BRANCH   4   5
HETATM    5  O   UNL     1     -12.699  10.457  70.461  1.00  0.00    -0.324 OA 
BRANCH   5   6
HETATM    6  C   UNL     1     -11.761   9.772  69.740  1.00  0.00     0.046 A  
HETATM    7  C   UNL     1     -11.107   8.717  70.390  1.00  0.00    -0.261 A  
HETATM    8  C   UNL     1     -10.103   7.996  69.725  1.00  0.00    -0.196 A  
HETATM    9  C   UNL     1     -11.457   8.335  71.730  1.00  0.00    -0.293 C  
HETATM   10  C   UNL     1      -9.725   8.316  68.410  1.00  0.00    -0.170 A  
HETATM   11  N   UNL     1     -11.710   7.977  72.805  1.00  0.00    -0.368 NA 
HETATM   12  C   UNL     1     -11.388  10.104  68.435  1.00  0.00    -0.179 A  
HETATM   13  C   UNL     1     -10.380   9.383  67.780  1.00  0.00    -0.291 A  
BRANCH  10  14
HETATM   14  C   UNL     1      -8.663   7.584  67.696  1.00  0.00    -0.122 A  
HETATM   15  N   UNL     1      -8.087   7.985  66.580  1.00  0.00    -0.101 NA 
HETATM   16  C   UNL     1      -7.118   7.075  66.169  1.00  0.00    -0.073 A  
HETATM   17  C   UNL     1      -6.997   5.954  66.974  1.00  0.00    -0.069 A  
HETATM   18  C   UNL     1      -6.328   7.383  64.943  1.00  0.00    -0.038 C  
HETATM   19  C   UNL     1      -6.108   4.823  66.819  1.00  0.00    -0.031 C  
HETATM   20  S   UNL     1      -8.106   6.064  68.274  1.00  0.00    -0.110 SA 
HETATM   21  O   UNL     1      -5.304   4.671  65.911  1.00  0.00    -0.009 OA 
HETATM   22  O   UNL     1      -6.243   3.897  67.807  1.00  0.00    -0.034 OA 
ENDBRANCH  10  14
ENDBRANCH   5   6
ENDBRANCH   4   5
TORSDOF 3
ENDMDL
MODEL      184
REMARK 921   NORMALIZED FREE ENERGY PREDICTED BY IDOCK:   -1.17 KCAL/MOL
REMARK 922        TOTAL FREE ENERGY PREDICTED BY IDOCK:   -2.07 KCAL/MOL
REMARK 923 INTER-LIGAND FREE ENERGY PREDICTED BY IDOCK:   -1.92 KCAL/MOL
REMARK 924 INTRA-LIGAND FREE ENERGY PREDICTED BY IDOCK:   -0.14 KCAL/MOL
REMARK 927      BINDING AFFINITY PREDICTED BY RF-SCORE:    0.00 PKD
ROOT
HETATM    1  C   UNL     1      -6.592   9.622  72.293  1.00  0.00     0.738 C  
HETATM    2  C   UNL     1      -6.749   8.118  72.081  1.00  0.00    -0.076 C  
HETATM    3  C   UNL     1      -5.732   7.352  72.930  1.00  0.00    -0.044 C  
HETATM    4  C   UNL     1      -8.187   7.681  72.398  1.00  0.00    -0.112 C  
ENDROOT
BRANCH   4   5
HETATM    5  O   UNL     1      -8.287   6.266  72.224  1.00  0.00    -0.109 OA 
BRANCH   5   6
HETATM    6  C   UNL     1      -8.272   5.805  70.936  1.00  0.00    -0.121 A  
HETATM    7  C   UNL     1      -9.462   5.920  70.207  1.00  0.00    -0.191 A  
HETATM    8  C   UNL     1      -9.532   5.430  68.893  1.00  0.00    -0.174 A  
HETATM    9  C   UNL     1     -10.623   6.554  70.768  1.00  0.00    -0.231 C  
HETATM   10  C   UNL     1      -8.427   4.811  68.287  1.00  0.00    -0.100 A  
HETATM   11  N   UNL     1     -11.584   7.068  71.168  1.00  0.00    -0.294 NA 
HETATM   12  C   UNL     1      -7.168   5.184  70.346  1.00  0.00    -0.061 A  
HETATM   13  C   UNL     1      -7.248   4.691  69.036  1.00  0.00    -0.053 A  
BRANCH  10  14
HETATM   14  C   UNL     1      -8.480   4.275  66.914  1.00  0.00    -0.104 A  
HETATM   15  N   UNL     1      -7.449   3.787  66.252  1.00  0.00    -0.079 NA 
HETATM   16  C   UNL     1      -7.834   3.353  64.987  1.00  0.00    -0.082 A  
HETATM   17  C   UNL     1      -9.171   3.560  64.686  1.00  0.00    -0.139 A  
HETATM   18  C   UNL     1      -6.806   2.730  64.106  1.00  0.00    -0.036 C  
HETATM   19  C   UNL     1      -9.880   3.243  63.465  1.00  0.00    -0.144 C  
HETATM   20  S   UNL     1      -9.951   4.288  66.024  1.00  0.00    -0.192 SA 
HETATM   21  O   UNL     1      -9.386   2.738  62.468  1.00  0.00    -0.090 OA 
HETATM   22  O   UNL     1     -11.200   3.568  63.513  1.00  0.00    -0.229 OA 
ENDBRANCH  10  14
ENDBRANCH   5   6
ENDBRANCH   4   5
TORSDOF 3
ENDMDL
MODEL      185
REMARK 921   NORMALIZED FREE ENERGY PREDICTED BY IDOCK:   -0.71 KCAL/MOL
REMARK 922        TOTAL FREE ENERGY PREDICTED BY IDOCK:   -1.52 KCAL/MOL
REMARK 923 INTER-LIGAND FREE ENERGY PREDICTED BY IDOCK:   -0.83 KCAL/MOL
REMARK 924 INTRA-LIGAND FREE ENERGY PREDICTED BY IDOCK:   -0.69 KCAL/MOL
REMARK 927      BINDING AFFINITY PREDICTED BY RF-SCORE:    0.00 PKD
ROOT
HETATM    1  C   UNL     1      -6.267  10.643  71.940  1.00  0.00     1.287 C  
HETATM    2  C   UNL     1      -6.494   9.147  71.737  1.00  0.00     0.012 C  
HETATM    3  C   UNL     1      -5.434   8.340  72.491  1.00  0.00    -0.041 C  
HETATM    4  C   UNL     1      -7.914   8.756  72.174  1.00  0.00     0.054 C  
ENDROOT
BRANCH   4   5
HETATM    5  O   UNL     1      -8.077   7.347  72.004  1.00  0.00    -0.092 OA 
BRANCH   5   6
HETATM    6  C   UNL     1      -8.264   6.902  70.724  1.00  0.00    -0.122 A  
HETATM    7  C   UNL     1      -7.476   5.823  70.306  1.00  0.00    -0.081 A  
HETATM    8  C   UNL     1      -7.584   5.340  68.992  1.00  0.00    -0.078 A  
HETATM    9  C   UNL     1      -6.562   5.174  71.204  1.00  0.00    -0.039 C  
HETATM   10  C   UNL     1      -8.469   5.926  68.072  1.00  0.00    -0.110 A  
HETATM   11  N   UNL     1      -5.819   4.606  71.893  1.00  0.00    -0.012 NA 
HETATM   12  C   UNL     1      -9.142   7.498  69.815  1.00  0.00    -0.140 A  
HETATM   13  C   UNL     1      -9.240   7.014  68.503  1.00  0.00    -0.137 A  
BRANCH  10  14
HETATM   14  C   UNL     1      -8.590   5.448  66.682  1.00  0.00    -0.115 A  
HETATM   15  N   UNL     1      -7.689   5.630  65.738  1.00  0.00    -0.086 NA 
HETATM   16  C   UNL     1      -8.100   5.047  64.542  1.00  0.00    -0.120 A  
HETATM   17  C   UNL     1      -9.352   4.454  64.588  1.00  0.00    -0.150 A  
HETATM   18  C   UNL     1      -7.186   5.115  63.367  1.00  0.00    -0.048 C  
HETATM   19  C   UNL     1     -10.072   3.784  63.527  1.00  0.00    -0.193 C  
HETATM   20  S   UNL     1     -10.003   4.617  66.163  1.00  0.00    -0.266 SA 
HETATM   21  O   UNL     1      -9.676   3.645  62.379  1.00  0.00    -0.101 OA 
HETATM   22  O   UNL     1     -11.280   3.300  63.922  1.00  0.00    -0.253 OA 
ENDBRANCH  10  14
ENDBRANCH   5   6
ENDBRANCH   4   5
TORSDOF 3
ENDMDL
MODEL      186
REMARK 921   NORMALIZED FREE ENERGY PREDICTED BY IDOCK:   -0.63 KCAL/MOL
REMARK 922        TOTAL FREE ENERGY PREDICTED BY IDOCK:   -1.43 KCAL/MOL
REMARK 923 INTER-LIGAND FREE ENERGY PREDICTED BY IDOCK:   -4.06 KCAL/MOL
REMARK 924 INTRA-LIGAND FREE ENERGY PREDICTED BY IDOCK:    2.63 KCAL/MOL
REMARK 927      BINDING AFFINITY PREDICTED BY RF-SCORE:    0.00 PKD
ROOT
HETATM    1  C   UNL     1      -5.238  20.853  69.729  1.00  0.00    -0.410 C  
HETATM    2  C   UNL     1      -6.335  20.276  68.838  1.00  0.00    -0.351 C  
HETATM    3  C   UNL     1      -6.353  20.990  67.484  1.00  0.00    -0.413 C  
HETATM    4  C   UNL     1      -6.146  18.761  68.671  1.00  0.00    -0.219 C  
ENDROOT
BRANCH   4   5
HETATM    5  O   UNL     1      -7.168  18.262  67.805  1.00  0.00    -0.210 OA 
BRANCH   5   6
HETATM    6  C   UNL     1      -7.536  16.956  67.981  1.00  0.00    -0.179 A  
HETATM    7  C   UNL     1      -6.886  16.246  68.998  1.00  0.00    -0.182 A  
HETATM    8  C   UNL     1      -7.184  14.890  69.210  1.00  0.00    -0.172 A  
HETATM    9  C   UNL     1      -5.925  16.881  69.856  1.00  0.00    -0.219 C  
HETATM   10  C   UNL     1      -8.123  14.217  68.411  1.00  0.00    -0.142 A  
HETATM   11  N   UNL     1      -5.151  17.349  70.585  1.00  0.00    -0.254 NA 
HETATM   12  C   UNL     1      -8.467  16.296  67.175  1.00  0.00    -0.213 A  
HETATM   13  C   UNL     1      -8.754  14.941  67.389  1.00  0.00    -0.208 A  
BRANCH  10  14
HETATM   14  C   UNL     1      -8.443  12.791  68.603  1.00  0.00     0.050 A  
HETATM   15  N   UNL     1      -7.562  11.810  68.591  1.00  0.00    -0.126 NA 
HETATM   16  C   UNL     1      -8.184  10.584  68.812  1.00  0.00    -0.134 A  
HETATM   17  C   UNL     1      -9.561  10.650  68.951  1.00  0.00    -0.196 A  
HETATM   18  C   UNL     1      -7.337   9.359  68.875  1.00  0.00    -0.073 C  
HETATM   19  C   UNL     1     -10.498   9.571  69.171  1.00  0.00    -0.210 C  
HETATM   20  S   UNL     1     -10.069  12.280  68.823  1.00  0.00     0.010 SA 
HETATM   21  O   UNL     1     -10.209   8.386  69.258  1.00  0.00    -0.198 OA 
HETATM   22  O   UNL     1     -11.787   9.993  69.277  1.00  0.00    -0.008 OA 
ENDBRANCH  10  14
ENDBRANCH   5   6
ENDBRANCH   4   5
TORSDOF 3
ENDMDL
MODEL      187
REMARK 921   NORMALIZED FREE ENERGY PREDICTED BY IDOCK:   -0.45 KCAL/MOL
REMARK 922        TOTAL FREE ENERGY PREDICTED BY IDOCK:   -1.21 KCAL/MOL
REMARK 923 INTER-LIGAND FREE ENERGY PREDICTED BY IDOCK:   -5.79 KCAL/MOL
REMARK 924 INTRA-LIGAND FREE ENERGY PREDICTED BY IDOCK:    4.58 KCAL/MOL
REMARK 927      BINDING AFFINITY PREDICTED BY RF-SCORE:    0.00 PKD
ROOT
HETATM    1  C   UNL     1     -12.837   6.728  72.088  1.00  0.00    -0.093 C  
HETATM    2  C   UNL     1     -11.717   7.071  71.107  1.00  0.00    -0.366 C  
HETATM    3  C   UNL     1     -11.398   8.567  71.165  1.00  0.00    -0.319 C  
HETATM    4  C   UNL     1     -10.473   6.220  71.398  1.00  0.00    -0.219 C  
ENDROOT
BRANCH   4   5
HETATM    5  O   UNL     1      -9.436   6.592  70.487  1.00  0.00    -0.165 OA 
BRANCH   5   6
HETATM    6  C   UNL     1      -9.666   7.700  69.718  1.00  0.00    -0.171 A  
HETATM    7  C   UNL     1      -9.093   8.902  70.150  1.00  0.00    -0.189 A  
HETATM    8  C   UNL     1      -9.321  10.088  69.433  1.00  0.00    -0.237 A  
HETATM    9  C   UNL     1      -8.249   8.952  71.312  1.00  0.00    -0.157 C  
HETATM   10  C   UNL     1     -10.127  10.100  68.284  1.00  0.00    -0.179 A  
HETATM   11  N   UNL     1      -7.550   9.045  72.234  1.00  0.00    -0.320 NA 
HETATM   12  C   UNL     1     -10.476   7.701  68.580  1.00  0.00    -0.206 A  
HETATM   13  C   UNL     1     -10.704   8.890  67.873  1.00  0.00    -0.185 A  
BRANCH  10  14
HETATM   14  C   UNL     1     -10.394  11.334  67.522  1.00  0.00    -0.194 A  
HETATM   15  N   UNL     1     -11.488  11.572  66.826  1.00  0.00    -0.466 NA 
HETATM   16  C   UNL     1     -11.434  12.830  66.234  1.00  0.00    -0.354 A  
HETATM   17  C   UNL     1     -10.258  13.527  66.461  1.00  0.00    -0.283 A  
HETATM   18  C   UNL     1     -12.607  13.293  65.439  1.00  0.00    -0.526 C  
HETATM   19  C   UNL     1      -9.880  14.838  65.982  1.00  0.00    -0.324 C  
HETATM   20  S   UNL     1      -9.222  12.590  67.451  1.00  0.00    -0.194 SA 
HETATM   21  O   UNL     1     -10.560  15.555  65.263  1.00  0.00    -0.370 OA 
HETATM   22  O   UNL     1      -8.649  15.231  66.410  1.00  0.00    -0.276 OA 
ENDBRANCH  10  14
ENDBRANCH   5   6
ENDBRANCH   4   5
TORSDOF 3
ENDMDL
MODEL      188
REMARK 921   NORMALIZED FREE ENERGY PREDICTED BY IDOCK:   -0.44 KCAL/MOL
REMARK 922        TOTAL FREE ENERGY PREDICTED BY IDOCK:   -1.20 KCAL/MOL
REMARK 923 INTER-LIGAND FREE ENERGY PREDICTED BY IDOCK:   -1.46 KCAL/MOL
REMARK 924 INTRA-LIGAND FREE ENERGY PREDICTED BY IDOCK:    0.26 KCAL/MOL
REMARK 927      BINDING AFFINITY PREDICTED BY RF-SCORE:    0.00 PKD
ROOT
HETATM    1  C   UNL     1     -11.911  17.993  73.917  1.00  0.00     1.167 C  
HETATM    2  C   UNL     1     -12.155  16.633  73.268  1.00  0.00    -0.372 C  
HETATM    3  C   UNL     1     -11.182  15.592  73.828  1.00  0.00     1.319 C  
HETATM    4  C   UNL     1     -13.616  16.200  73.466  1.00  0.00    -0.074 C  
ENDROOT
BRANCH   4   5
HETATM    5  O   UNL     1     -13.798  14.910  72.878  1.00  0.00    -0.480 OA 
BRANCH   5   6
HETATM    6  C   UNL     1     -13.338  14.750  71.600  1.00  0.00    -0.360 A  
HETATM    7  C   UNL     1     -13.060  13.441  71.186  1.00  0.00    -0.254 A  
HETATM    8  C   UNL     1     -12.545  13.204  69.902  1.00  0.00     0.056 A  
HETATM    9  C   UNL     1     -13.309  12.317  72.046  1.00  0.00    -0.386 C  
HETATM   10  C   UNL     1     -12.291  14.261  69.013  1.00  0.00    -0.147 A  
HETATM   11  N   UNL     1     -13.506  11.374  72.694  1.00  0.00     0.403 NA 
HETATM   12  C   UNL     1     -13.082  15.810  70.727  1.00  0.00    -0.158 A  
HETATM   13  C   UNL     1     -12.562  15.566  69.449  1.00  0.00     0.109 A  
BRANCH  10  14
HETATM   14  C   UNL     1     -11.736  14.040  67.664  1.00  0.00    -0.377 A  
HETATM   15  N   UNL     1     -11.772  14.915  66.679  1.00  0.00    -0.280 NA 
HETATM   16  C   UNL     1     -11.153  14.405  65.541  1.00  0.00    -0.326 A  
HETATM   17  C   UNL     1     -10.684  13.107  65.670  1.00  0.00    -0.280 A  
HETATM   18  C   UNL     1     -11.059  15.273  64.334  1.00  0.00    -0.134 C  
HETATM   19  C   UNL     1     -10.016  12.287  64.684  1.00  0.00    -0.186 C  
HETATM   20  S   UNL     1     -11.008  12.538  67.252  1.00  0.00    -0.274 SA 
HETATM   21  O   UNL     1      -9.765  12.622  63.535  1.00  0.00    -0.206 OA 
HETATM   22  O   UNL     1      -9.673  11.057  65.153  1.00  0.00    -0.224 OA 
ENDBRANCH  10  14
ENDBRANCH   5   6
ENDBRANCH   4   5
TORSDOF 3
ENDMDL
MODEL      189
REMARK 921   NORMALIZED FREE ENERGY PREDICTED BY IDOCK:    0.71 KCAL/MOL
REMARK 922        TOTAL FREE ENERGY PREDICTED BY IDOCK:    0.15 KCAL/MOL
REMARK 923 INTER-LIGAND FREE ENERGY PREDICTED BY IDOCK:   -3.75 KCAL/MOL
REMARK 924 INTRA-LIGAND FREE ENERGY PREDICTED BY IDOCK:    3.89 KCAL/MOL
REMARK 927      BINDING AFFINITY PREDICTED BY RF-SCORE:    0.00 PKD
ROOT
HETATM    1  C   UNL     1      -6.332  18.849  70.089  1.00  0.00    -0.027 C  
HETATM    2  C   UNL     1      -6.564  17.889  68.925  1.00  0.00    -0.241 C  
HETATM    3  C   UNL     1      -7.734  16.951  69.232  1.00  0.00    -0.052 C  
HETATM    4  C   UNL     1      -6.798  18.671  67.624  1.00  0.00    -0.205 C  
ENDROOT
BRANCH   4   5
HETATM    5  O   UNL     1      -7.045  17.743  66.566  1.00  0.00    -0.196 OA 
BRANCH   5   6
HETATM    6  C   UNL     1      -7.072  16.419  66.907  1.00  0.00    -0.221 A  
HETATM    7  C   UNL     1      -8.242  15.710  66.606  1.00  0.00    -0.284 A  
HETATM    8  C   UNL     1      -8.356  14.357  66.964  1.00  0.00    -0.172 A  
HETATM    9  C   UNL     1      -9.334  16.332  65.911  1.00  0.00    -0.264 C  
HETATM   10  C   UNL     1      -7.318  13.691  67.634  1.00  0.00    -0.185 A  
HETATM   11  N   UNL     1     -10.240  16.783  65.340  1.00  0.00    -0.623 NA 
HETATM   12  C   UNL     1      -6.035  15.768  67.580  1.00  0.00    -0.172 A  
HETATM   13  C   UNL     1      -6.160  14.419  67.940  1.00  0.00    -0.161 A  
BRANCH  10  14
HETATM   14  C   UNL     1      -7.419  12.275  68.035  1.00  0.00    -0.115 A  
HETATM   15  N   UNL     1      -6.426  11.408  68.008  1.00  0.00    -0.056 NA 
HETATM   16  C   UNL     1      -6.847  10.160  68.459  1.00  0.00    -0.058 A  
HETATM   17  C   UNL     1      -8.191  10.087  68.790  1.00  0.00    -0.115 A  
HETATM   18  C   UNL     1      -5.846   9.059  68.540  1.00  0.00    -0.042 C  
HETATM   19  C   UNL     1      -8.941   8.947  69.270  1.00  0.00    -0.144 C  
HETATM   20  S   UNL     1      -8.922  11.617  68.550  1.00  0.00    -0.094 SA 
HETATM   21  O   UNL     1      -8.490   7.825  69.450  1.00  0.00    -0.131 OA 
HETATM   22  O   UNL     1     -10.249   9.231  69.514  1.00  0.00    -0.191 OA 
ENDBRANCH  10  14
ENDBRANCH   5   6
ENDBRANCH   4   5
TORSDOF 3
ENDMDL
MODEL      190
REMARK 921   NORMALIZED FREE ENERGY PREDICTED BY IDOCK:    0.92 KCAL/MOL
REMARK 922        TOTAL FREE ENERGY PREDICTED BY IDOCK:    0.39 KCAL/MOL
REMARK 923 INTER-LIGAND FREE ENERGY PREDICTED BY IDOCK:   -0.58 KCAL/MOL
REMARK 924 INTRA-LIGAND FREE ENERGY PREDICTED BY IDOCK:    0.97 KCAL/MOL
REMARK 927      BINDING AFFINITY PREDICTED BY RF-SCORE:    0.00 PKD
ROOT
HETATM    1  C   UNL     1     -13.452   8.509  72.256  1.00  0.00    -0.362 C  
HETATM    2  C   UNL     1     -11.936   8.635  72.122  1.00  0.00    -0.449 C  
HETATM    3  C   UNL     1     -11.531  10.108  72.027  1.00  0.00     0.983 C  
HETATM    4  C   UNL     1     -11.236   7.934  73.295  1.00  0.00     0.061 C  
ENDROOT
BRANCH   4   5
HETATM    5  O   UNL     1      -9.823   8.103  73.156  1.00  0.00    -0.279 OA 
BRANCH   5   6
HETATM    6  C   UNL     1      -9.316   7.999  71.890  1.00  0.00    -0.167 A  
HETATM    7  C   UNL     1      -8.049   8.552  71.667  1.00  0.00    -0.195 A  
HETATM    8  C   UNL     1      -7.483   8.519  70.383  1.00  0.00    -0.069 A  
HETATM    9  C   UNL     1      -7.293   9.141  72.738  1.00  0.00     0.721 C  
HETATM   10  C   UNL     1      -8.169   7.946  69.299  1.00  0.00    -0.128 A  
HETATM   11  N   UNL     1      -6.634   9.615  73.568  1.00  0.00     0.345 NA 
HETATM   12  C   UNL     1     -10.011   7.433  70.818  1.00  0.00    -0.182 A  
HETATM   13  C   UNL     1      -9.443   7.410  69.538  1.00  0.00    -0.155 A  
BRANCH  10  14
HETATM   14  C   UNL     1      -7.604   7.913  67.938  1.00  0.00    -0.109 A  
HETATM   15  N   UNL     1      -7.475   6.829  67.199  1.00  0.00    -0.089 NA 
HETATM   16  C   UNL     1      -6.917   7.138  65.961  1.00  0.00    -0.065 A  
HETATM   17  C   UNL     1      -6.587   8.473  65.792  1.00  0.00    -0.056 A  
HETATM   18  C   UNL     1      -6.734   6.040  64.970  1.00  0.00    -0.043 C  
HETATM   19  C   UNL     1      -5.982   9.115  64.645  1.00  0.00    -0.065 C  
HETATM   20  S   UNL     1      -7.007   9.348  67.203  1.00  0.00    -0.086 SA 
HETATM   21  O   UNL     1      -5.644   8.552  63.614  1.00  0.00    -0.064 OA 
HETATM   22  O   UNL     1      -5.808  10.454  64.810  1.00  0.00    -0.127 OA 
ENDBRANCH  10  14
ENDBRANCH   5   6
ENDBRANCH   4   5
TORSDOF 3
ENDMDL
MODEL      191
REMARK 921   NORMALIZED FREE ENERGY PREDICTED BY IDOCK:    0.92 KCAL/MOL
REMARK 922        TOTAL FREE ENERGY PREDICTED BY IDOCK:    0.39 KCAL/MOL
REMARK 923 INTER-LIGAND FREE ENERGY PREDICTED BY IDOCK:   -1.59 KCAL/MOL
REMARK 924 INTRA-LIGAND FREE ENERGY PREDICTED BY IDOCK:    1.98 KCAL/MOL
REMARK 927      BINDING AFFINITY PREDICTED BY RF-SCORE:    0.00 PKD
ROOT
HETATM    1  C   UNL     1     -13.466   8.505  72.297  1.00  0.00    -0.362 C  
HETATM    2  C   UNL     1     -11.989   8.738  71.987  1.00  0.00    -0.446 C  
HETATM    3  C   UNL     1     -11.658  10.230  72.066  1.00  0.00     1.016 C  
HETATM    4  C   UNL     1     -11.106   7.916  72.938  1.00  0.00    -0.379 C  
ENDROOT
BRANCH   4   5
HETATM    5  O   UNL     1      -9.735   8.186  72.642  1.00  0.00    -0.240 OA 
BRANCH   5   6
HETATM    6  C   UNL     1      -9.441   8.522  71.349  1.00  0.00    -0.213 A  
HETATM    7  C   UNL     1      -8.217   9.163  71.122  1.00  0.00    -0.142 A  
HETATM    8  C   UNL     1      -7.868   9.574  69.826  1.00  0.00    -0.128 A  
HETATM    9  C   UNL     1      -7.287   9.396  72.192  1.00  0.00     0.854 C  
HETATM   10  C   UNL     1      -8.731   9.363  68.738  1.00  0.00    -0.131 A  
HETATM   11  N   UNL     1      -6.494   9.595  73.017  1.00  0.00     0.215 NA 
HETATM   12  C   UNL     1     -10.311   8.314  70.276  1.00  0.00    -0.211 A  
HETATM   13  C   UNL     1      -9.958   8.733  68.986  1.00  0.00    -0.197 A  
BRANCH  10  14
HETATM   14  C   UNL     1      -8.394   9.799  67.370  1.00  0.00    -0.114 A  
HETATM   15  N   UNL     1      -7.181  10.091  66.946  1.00  0.00    -0.090 NA 
HETATM   16  C   UNL     1      -7.201  10.457  65.603  1.00  0.00    -0.146 A  
HETATM   17  C   UNL     1      -8.462  10.477  65.027  1.00  0.00    -0.163 A  
HETATM   18  C   UNL     1      -5.909  10.783  64.935  1.00  0.00     0.024 C  
HETATM   19  C   UNL     1      -8.829  10.825  63.672  1.00  0.00    -0.135 C  
HETATM   20  S   UNL     1      -9.627  10.006  66.190  1.00  0.00    -0.226 SA 
HETATM   21  O   UNL     1      -8.055  11.183  62.796  1.00  0.00    -0.040 OA 
HETATM   22  O   UNL     1     -10.165  10.721  63.436  1.00  0.00    -0.330 OA 
ENDBRANCH  10  14
ENDBRANCH   5   6
ENDBRANCH   4   5
TORSDOF 3
ENDMDL
MODEL      192
REMARK 921   NORMALIZED FREE ENERGY PREDICTED BY IDOCK:    1.35 KCAL/MOL
REMARK 922        TOTAL FREE ENERGY PREDICTED BY IDOCK:    0.90 KCAL/MOL
REMARK 923 INTER-LIGAND FREE ENERGY PREDICTED BY IDOCK:   -2.84 KCAL/MOL
REMARK 924 INTRA-LIGAND FREE ENERGY PREDICTED BY IDOCK:    3.74 KCAL/MOL
REMARK 927      BINDING AFFINITY PREDICTED BY RF-SCORE:    0.00 PKD
ROOT
HETATM    1  C   UNL     1      -6.262  19.561  70.671  1.00  0.00    -0.079 C  
HETATM    2  C   UNL     1      -6.220  18.298  69.813  1.00  0.00    -0.174 C  
HETATM    3  C   UNL     1      -5.939  18.655  68.352  1.00  0.00    -0.199 C  
HETATM    4  C   UNL     1      -5.176  17.313  70.362  1.00  0.00    -0.246 C  
ENDROOT
BRANCH   4   5
HETATM    5  O   UNL     1      -5.139  16.162  69.516  1.00  0.00    -0.110 OA 
BRANCH   5   6
HETATM    6  C   UNL     1      -6.272  15.893  68.799  1.00  0.00    -0.109 A  
HETATM    7  C   UNL     1      -6.876  14.647  69.012  1.00  0.00    -0.111 A  
HETATM    8  C   UNL     1      -8.019  14.285  68.280  1.00  0.00    -0.140 A  
HETATM    9  C   UNL     1      -6.363  13.725  69.987  1.00  0.00    -0.084 C  
HETATM   10  C   UNL     1      -8.573  15.149  67.322  1.00  0.00    -0.218 A  
HETATM   11  N   UNL     1      -5.998  12.950  70.771  1.00  0.00    -0.215 NA 
HETATM   12  C   UNL     1      -6.811  16.757  67.842  1.00  0.00    -0.156 A  
HETATM   13  C   UNL     1      -7.947  16.386  67.112  1.00  0.00    -0.215 A  
BRANCH  10  14
HETATM   14  C   UNL     1      -9.763  14.787  66.529  1.00  0.00    -0.278 A  
HETATM   15  N   UNL     1     -10.818  15.557  66.353  1.00  0.00    -0.302 NA 
HETATM   16  C   UNL     1     -11.761  14.928  65.546  1.00  0.00    -0.211 A  
HETATM   17  C   UNL     1     -11.419  13.646  65.147  1.00  0.00    -0.316 A  
HETATM   18  C   UNL     1     -13.008  15.667  65.201  1.00  0.00     1.514 C  
HETATM   19  C   UNL     1     -12.174  12.724  64.328  1.00  0.00    -0.425 C  
HETATM   20  S   UNL     1      -9.879  13.244  65.780  1.00  0.00    -0.140 SA 
HETATM   21  O   UNL     1     -13.282  12.937  63.856  1.00  0.00    -0.306 OA 
HETATM   22  O   UNL     1     -11.530  11.544  64.116  1.00  0.00    -0.320 OA 
ENDBRANCH  10  14
ENDBRANCH   5   6
ENDBRANCH   4   5
TORSDOF 3
ENDMDL
MODEL      193
REMARK 921   NORMALIZED FREE ENERGY PREDICTED BY IDOCK:    1.70 KCAL/MOL
REMARK 922        TOTAL FREE ENERGY PREDICTED BY IDOCK:    1.31 KCAL/MOL
REMARK 923 INTER-LIGAND FREE ENERGY PREDICTED BY IDOCK:    1.90 KCAL/MOL
REMARK 924 INTRA-LIGAND FREE ENERGY PREDICTED BY IDOCK:   -0.59 KCAL/MOL
REMARK 927      BINDING AFFINITY PREDICTED BY RF-SCORE:    0.00 PKD
ROOT
HETATM    1  C   UNL     1      -5.566  12.059  71.101  1.00  0.00     0.044 C  
HETATM    2  C   UNL     1      -6.063  10.616  71.136  1.00  0.00     0.227 C  
HETATM    3  C   UNL     1      -5.137   9.753  71.997  1.00  0.00    -0.076 C  
HETATM    4  C   UNL     1      -7.512  10.562  71.643  1.00  0.00     3.743 C  
ENDROOT
BRANCH   4   5
HETATM    5  O   UNL     1      -7.931   9.197  71.697  1.00  0.00    -0.342 OA 
BRANCH   5   6
HETATM    6  C   UNL     1      -8.056   8.547  70.500  1.00  0.00    -0.112 A  
HETATM    7  C   UNL     1      -7.503   7.263  70.415  1.00  0.00    -0.083 A  
HETATM    8  C   UNL     1      -7.556   6.553  69.204  1.00  0.00    -0.100 A  
HETATM    9  C   UNL     1      -6.892   6.636  71.554  1.00  0.00    -0.066 C  
HETATM   10  C   UNL     1      -8.150   7.109  68.060  1.00  0.00    -0.120 A  
HETATM   11  N   UNL     1      -6.400   6.079  72.446  1.00  0.00    -0.052 NA 
HETATM   12  C   UNL     1      -8.643   9.113  69.366  1.00  0.00    -0.138 A  
HETATM   13  C   UNL     1      -8.687   8.401  68.159  1.00  0.00    -0.143 A  
BRANCH  10  14
HETATM   14  C   UNL     1      -8.206   6.391  66.773  1.00  0.00    -0.110 A  
HETATM   15  N   UNL     1      -8.938   5.321  66.535  1.00  0.00    -0.118 NA 
HETATM   16  C   UNL     1      -8.775   4.892  65.221  1.00  0.00    -0.146 A  
HETATM   17  C   UNL     1      -7.872   5.635  64.477  1.00  0.00    -0.114 A  
HETATM   18  C   UNL     1      -9.561   3.715  64.754  1.00  0.00    -0.173 C  
HETATM   19  C   UNL     1      -7.464   5.447  63.102  1.00  0.00    -0.054 C  
HETATM   20  S   UNL     1      -7.241   6.899  65.445  1.00  0.00    -0.076 SA 
HETATM   21  O   UNL     1      -7.860   4.560  62.360  1.00  0.00    -0.061 OA 
HETATM   22  O   UNL     1      -6.563   6.373  62.679  1.00  0.00    -0.033 OA 
ENDBRANCH  10  14
ENDBRANCH   5   6
ENDBRANCH   4   5
TORSDOF 3
ENDMDL
MODEL      194
REMARK 921   NORMALIZED FREE ENERGY PREDICTED BY IDOCK:    2.00 KCAL/MOL
REMARK 922        TOTAL FREE ENERGY PREDICTED BY IDOCK:    1.66 KCAL/MOL
REMARK 923 INTER-LIGAND FREE ENERGY PREDICTED BY IDOCK:   -0.55 KCAL/MOL
REMARK 924 INTRA-LIGAND FREE ENERGY PREDICTED BY IDOCK:    2.21 KCAL/MOL
REMARK 927      BINDING AFFINITY PREDICTED BY RF-SCORE:    0.00 PKD
ROOT
HETATM    1  C   UNL     1     -12.003  16.037  69.495  1.00  0.00    -0.194 C  
HETATM    2  C   UNL     1     -12.017  14.512  69.582  1.00  0.00    -0.375 C  
HETATM    3  C   UNL     1     -11.636  13.898  68.233  1.00  0.00    -0.372 C  
HETATM    4  C   UNL     1     -11.083  14.031  70.702  1.00  0.00     0.591 C  
ENDROOT
BRANCH   4   5
HETATM    5  O   UNL     1     -11.094  12.603  70.731  1.00  0.00     1.370 OA 
BRANCH   5   6
HETATM    6  C   UNL     1     -10.482  11.965  69.688  1.00  0.00     0.527 A  
HETATM    7  C   UNL     1     -10.713  10.589  69.562  1.00  0.00    -0.291 A  
HETATM    8  C   UNL     1     -10.084   9.861  68.539  1.00  0.00    -0.186 A  
HETATM    9  C   UNL     1     -11.605   9.897  70.450  1.00  0.00    -0.282 C  
HETATM   10  C   UNL     1      -9.210  10.484  67.633  1.00  0.00    -0.153 A  
HETATM   11  N   UNL     1     -12.326   9.294  71.132  1.00  0.00    -0.307 NA 
HETATM   12  C   UNL     1      -9.608  12.593  68.797  1.00  0.00     0.085 A  
HETATM   13  C   UNL     1      -8.979  11.859  67.782  1.00  0.00    -0.173 A  
BRANCH  10  14
HETATM   14  C   UNL     1      -8.526   9.739  66.560  1.00  0.00    -0.124 A  
HETATM   15  N   UNL     1      -8.280  10.206  65.352  1.00  0.00    -0.145 NA 
HETATM   16  C   UNL     1      -7.610   9.260  64.582  1.00  0.00    -0.106 A  
HETATM   17  C   UNL     1      -7.389   8.049  65.217  1.00  0.00    -0.070 A  
HETATM   18  C   UNL     1      -7.210   9.628  63.194  1.00  0.00    -0.112 C  
HETATM   19  C   UNL     1      -6.743   6.863  64.698  1.00  0.00    -0.043 C  
HETATM   20  S   UNL     1      -8.014   8.117  66.810  1.00  0.00    -0.104 SA 
HETATM   21  O   UNL     1      -6.288   6.738  63.570  1.00  0.00    -0.040 OA 
HETATM   22  O   UNL     1      -6.679   5.848  65.602  1.00  0.00    -0.045 OA 
ENDBRANCH  10  14
ENDBRANCH   5   6
ENDBRANCH   4   5
TORSDOF 3
ENDMDL
MODEL      195
REMARK 921   NORMALIZED FREE ENERGY PREDICTED BY IDOCK:    2.68 KCAL/MOL
REMARK 922        TOTAL FREE ENERGY PREDICTED BY IDOCK:    2.46 KCAL/MOL
REMARK 923 INTER-LIGAND FREE ENERGY PREDICTED BY IDOCK:    1.00 KCAL/MOL
REMARK 924 INTRA-LIGAND FREE ENERGY PREDICTED BY IDOCK:    1.46 KCAL/MOL
REMARK 927      BINDING AFFINITY PREDICTED BY RF-SCORE:    0.00 PKD
ROOT
HETATM    1  C   UNL     1      -8.836  18.780  69.845  1.00  0.00     1.199 C  
HETATM    2  C   UNL     1      -7.784  17.679  69.946  1.00  0.00     1.316 C  
HETATM    3  C   UNL     1      -8.432  16.304  69.768  1.00  0.00     0.554 C  
HETATM    4  C   UNL     1      -6.666  17.910  68.919  1.00  0.00    -0.244 C  
ENDROOT
BRANCH   4   5
HETATM    5  O   UNL     1      -5.720  16.844  69.018  1.00  0.00    -0.140 OA 
BRANCH   5   6
HETATM    6  C   UNL     1      -6.163  15.598  68.669  1.00  0.00    -0.100 A  
HETATM    7  C   UNL     1      -6.046  14.590  69.635  1.00  0.00    -0.118 A  
HETATM    8  C   UNL     1      -6.442  13.277  69.333  1.00  0.00    -0.097 A  
HETATM    9  C   UNL     1      -5.544  14.872  70.951  1.00  0.00    -0.118 C  
HETATM   10  C   UNL     1      -6.951  12.943  68.068  1.00  0.00    -0.108 A  
HETATM   11  N   UNL     1      -5.158  15.048  72.032  1.00  0.00    -0.155 NA 
HETATM   12  C   UNL     1      -6.661  15.275  67.404  1.00  0.00    -0.157 A  
HETATM   13  C   UNL     1      -7.049  13.962  67.109  1.00  0.00     0.280 A  
BRANCH  10  14
HETATM   14  C   UNL     1      -7.360  11.570  67.720  1.00  0.00    -0.096 A  
HETATM   15  N   UNL     1      -8.368  11.257  66.930  1.00  0.00    -0.149 NA 
HETATM   16  C   UNL     1      -8.483   9.876  66.797  1.00  0.00    -0.125 A  
HETATM   17  C   UNL     1      -7.566   9.145  67.536  1.00  0.00    -0.088 A  
HETATM   18  C   UNL     1      -9.545   9.334  65.904  1.00  0.00    -0.345 C  
HETATM   19  C   UNL     1      -7.426   7.709  67.633  1.00  0.00    -0.104 C  
HETATM   20  S   UNL     1      -6.537  10.216  68.388  1.00  0.00    -0.053 SA 
HETATM   21  O   UNL     1      -8.131   6.887  67.067  1.00  0.00    -0.114 OA 
HETATM   22  O   UNL     1      -6.402   7.324  68.443  1.00  0.00    -0.034 OA 
ENDBRANCH  10  14
ENDBRANCH   5   6
ENDBRANCH   4   5
TORSDOF 3
ENDMDL
MODEL      196
REMARK 921   NORMALIZED FREE ENERGY PREDICTED BY IDOCK:    2.76 KCAL/MOL
REMARK 922        TOTAL FREE ENERGY PREDICTED BY IDOCK:    2.55 KCAL/MOL
REMARK 923 INTER-LIGAND FREE ENERGY PREDICTED BY IDOCK:    3.02 KCAL/MOL
REMARK 924 INTRA-LIGAND FREE ENERGY PREDICTED BY IDOCK:   -0.47 KCAL/MOL
REMARK 927      BINDING AFFINITY PREDICTED BY RF-SCORE:    0.00 PKD
ROOT
HETATM    1  C   UNL     1      -5.633  19.605  70.782  1.00  0.00    -0.285 C  
HETATM    2  C   UNL     1      -6.775  19.505  69.772  1.00  0.00    -0.265 C  
HETATM    3  C   UNL     1      -6.469  20.355  68.536  1.00  0.00    -0.330 C  
HETATM    4  C   UNL     1      -7.030  18.038  69.396  1.00  0.00    -0.077 C  
ENDROOT
BRANCH   4   5
HETATM    5  O   UNL     1      -8.078  17.987  68.426  1.00  0.00    -0.281 OA 
BRANCH   5   6
HETATM    6  C   UNL     1      -8.357  16.759  67.891  1.00  0.00    -0.195 A  
HETATM    7  C   UNL     1      -7.886  16.511  66.595  1.00  0.00    -0.321 A  
HETATM    8  C   UNL     1      -8.170  15.288  65.966  1.00  0.00     0.939 A  
HETATM    9  C   UNL     1      -7.091  17.478  65.891  1.00  0.00    -0.177 C  
HETATM   10  C   UNL     1      -8.932  14.298  66.608  1.00  0.00    -0.212 A  
HETATM   11  N   UNL     1      -6.434  18.219  65.284  1.00  0.00    -0.394 NA 
HETATM   12  C   UNL     1      -9.123  15.785  68.536  1.00  0.00    -0.194 A  
HETATM   13  C   UNL     1      -9.407  14.570  67.899  1.00  0.00    -0.201 A  
BRANCH  10  14
HETATM   14  C   UNL     1      -9.257  13.013  65.964  1.00  0.00     0.083 A  
HETATM   15  N   UNL     1      -8.704  11.854  66.265  1.00  0.00    -0.127 NA 
HETATM   16  C   UNL     1      -9.237  10.834  65.483  1.00  0.00    -0.202 A  
HETATM   17  C   UNL     1     -10.178  11.247  64.553  1.00  0.00    -0.314 A  
HETATM   18  C   UNL     1      -8.762   9.440  65.712  1.00  0.00    -0.183 C  
HETATM   19  C   UNL     1     -10.902  10.451  63.587  1.00  0.00     1.274 C  
HETATM   20  S   UNL     1     -10.404  12.939  64.686  1.00  0.00    -0.323 SA 
HETATM   21  O   UNL     1     -10.781   9.246  63.427  1.00  0.00     4.411 OA 
HETATM   22  O   UNL     1     -11.768  11.181  62.833  1.00  0.00     0.393 OA 
ENDBRANCH  10  14
ENDBRANCH   5   6
ENDBRANCH   4   5
TORSDOF 3
ENDMDL
MODEL      197
REMARK 921   NORMALIZED FREE ENERGY PREDICTED BY IDOCK:    4.03 KCAL/MOL
REMARK 922        TOTAL FREE ENERGY PREDICTED BY IDOCK:    4.05 KCAL/MOL
REMARK 923 INTER-LIGAND FREE ENERGY PREDICTED BY IDOCK:    0.69 KCAL/MOL
REMARK 924 INTRA-LIGAND FREE ENERGY PREDICTED BY IDOCK:    3.36 KCAL/MOL
REMARK 927      BINDING AFFINITY PREDICTED BY RF-SCORE:    0.00 PKD
ROOT
HETATM    1  C   UNL     1     -10.831   6.878  72.326  1.00  0.00    -0.262 C  
HETATM    2  C   UNL     1     -11.846   8.001  72.131  1.00  0.00    -0.401 C  
HETATM    3  C   UNL     1     -13.048   7.801  73.057  1.00  0.00     1.072 C  
HETATM    4  C   UNL     1     -11.183   9.368  72.360  1.00  0.00     0.716 C  
ENDROOT
BRANCH   4   5
HETATM    5  O   UNL     1     -12.168  10.391  72.204  1.00  0.00     0.018 OA 
BRANCH   5   6
HETATM    6  C   UNL     1     -12.160  11.074  71.019  1.00  0.00    -0.301 A  
HETATM    7  C   UNL     1     -11.069  10.854  70.169  1.00  0.00    -0.238 A  
HETATM    8  C   UNL     1     -10.972  11.552  68.954  1.00  0.00    -0.279 A  
HETATM    9  C   UNL     1     -10.042   9.906  70.501  1.00  0.00    -0.140 C  
HETATM   10  C   UNL     1     -11.950  12.483  68.570  1.00  0.00    -0.266 A  
HETATM   11  N   UNL     1      -9.194   9.141  70.714  1.00  0.00    -0.245 NA 
HETATM   12  C   UNL     1     -13.135  12.004  70.650  1.00  0.00     0.288 A  
HETATM   13  C   UNL     1     -13.028  12.701  69.439  1.00  0.00     1.386 A  
BRANCH  10  14
HETATM   14  C   UNL     1     -11.864  13.240  67.307  1.00  0.00    -0.372 A  
HETATM   15  N   UNL     1     -11.721  12.704  66.111  1.00  0.00    -0.387 NA 
HETATM   16  C   UNL     1     -11.685  13.689  65.128  1.00  0.00    -0.331 A  
HETATM   17  C   UNL     1     -11.763  14.987  65.606  1.00  0.00    -0.123 A  
HETATM   18  C   UNL     1     -11.569  13.267  63.704  1.00  0.00    -0.376 C  
HETATM   19  C   UNL     1     -11.736  16.226  64.861  1.00  0.00     0.282 C  
HETATM   20  S   UNL     1     -11.905  14.959  67.313  1.00  0.00    -0.105 SA 
HETATM   21  O   UNL     1     -11.622  16.322  63.647  1.00  0.00    -0.836 OA 
HETATM   22  O   UNL     1     -11.851  17.329  65.650  1.00  0.00     1.594 OA 
ENDBRANCH  10  14
ENDBRANCH   5   6
ENDBRANCH   4   5
TORSDOF 3
ENDMDL
MODEL      198
REMARK 921   NORMALIZED FREE ENERGY PREDICTED BY IDOCK:    4.55 KCAL/MOL
REMARK 922        TOTAL FREE ENERGY PREDICTED BY IDOCK:    4.65 KCAL/MOL
REMARK 923 INTER-LIGAND FREE ENERGY PREDICTED BY IDOCK:    1.15 KCAL/MOL
REMARK 924 INTRA-LIGAND FREE ENERGY PREDICTED BY IDOCK:    3.50 KCAL/MOL
REMARK 927      BINDING AFFINITY PREDICTED BY RF-SCORE:    0.00 PKD
ROOT
HETATM    1  C   UNL     1     -12.191  16.854  74.156  1.00  0.00    -0.184 C  
HETATM    2  C   UNL     1     -12.598  15.693  73.252  1.00  0.00    -0.619 C  
HETATM    3  C   UNL     1     -11.373  15.120  72.536  1.00  0.00    -0.224 C  
HETATM    4  C   UNL     1     -13.329  14.614  74.065  1.00  0.00     1.927 C  
ENDROOT
BRANCH   4   5
HETATM    5  O   UNL     1     -13.663  13.529  73.196  1.00  0.00    -0.329 OA 
BRANCH   5   6
HETATM    6  C   UNL     1     -13.384  13.700  71.868  1.00  0.00    -0.425 A  
HETATM    7  C   UNL     1     -12.746  12.640  71.212  1.00  0.00    -0.354 A  
HETATM    8  C   UNL     1     -12.392  12.761  69.859  1.00  0.00    -0.138 A  
HETATM    9  C   UNL     1     -12.460  11.407  71.891  1.00  0.00     0.177 C  
HETATM   10  C   UNL     1     -12.656  13.938  69.140  1.00  0.00     0.277 A  
HETATM   11  N   UNL     1     -12.218  10.385  72.388  1.00  0.00     0.751 NA 
HETATM   12  C   UNL     1     -13.645  14.879  71.164  1.00  0.00    -0.467 A  
HETATM   13  C   UNL     1     -13.282  14.995  69.816  1.00  0.00     0.560 A  
BRANCH  10  14
HETATM   14  C   UNL     1     -12.280  14.096  67.723  1.00  0.00    -0.173 A  
HETATM   15  N   UNL     1     -12.527  13.217  66.771  1.00  0.00    -0.256 NA 
HETATM   16  C   UNL     1     -12.053  13.671  65.544  1.00  0.00    -0.411 A  
HETATM   17  C   UNL     1     -11.405  14.895  65.589  1.00  0.00    -0.325 A  
HETATM   18  C   UNL     1     -12.281  12.826  64.338  1.00  0.00    -0.499 C  
HETATM   19  C   UNL     1     -10.789  15.631  64.507  1.00  0.00    -0.090 C  
HETATM   20  S   UNL     1     -11.415  15.486  67.197  1.00  0.00     0.035 SA 
HETATM   21  O   UNL     1     -10.732  15.265  63.342  1.00  0.00     2.284 OA 
HETATM   22  O   UNL     1     -10.251  16.816  64.903  1.00  0.00    -0.363 OA 
ENDBRANCH  10  14
ENDBRANCH   5   6
ENDBRANCH   4   5
TORSDOF 3
ENDMDL
MODEL      199
REMARK 921   NORMALIZED FREE ENERGY PREDICTED BY IDOCK:    5.79 KCAL/MOL
REMARK 922        TOTAL FREE ENERGY PREDICTED BY IDOCK:    6.12 KCAL/MOL
REMARK 923 INTER-LIGAND FREE ENERGY PREDICTED BY IDOCK:    5.59 KCAL/MOL
REMARK 924 INTRA-LIGAND FREE ENERGY PREDICTED BY IDOCK:    0.53 KCAL/MOL
REMARK 927      BINDING AFFINITY PREDICTED BY RF-SCORE:    0.00 PKD
ROOT
HETATM    1  C   UNL     1      -6.538  18.208  73.097  1.00  0.00     6.195 C  
HETATM    2  C   UNL     1      -6.255  18.366  71.605  1.00  0.00     1.736 C  
HETATM    3  C   UNL     1      -5.154  19.405  71.378  1.00  0.00    -0.328 C  
HETATM    4  C   UNL     1      -5.885  17.011  70.984  1.00  0.00     0.634 C  
ENDROOT
BRANCH   4   5
HETATM    5  O   UNL     1      -5.592  17.203  69.598  1.00  0.00    -0.180 OA 
BRANCH   5   6
HETATM    6  C   UNL     1      -6.534  16.765  68.708  1.00  0.00    -0.170 A  
HETATM    7  C   UNL     1      -7.569  17.654  68.392  1.00  0.00    -0.260 A  
HETATM    8  C   UNL     1      -8.594  17.258  67.517  1.00  0.00    -0.213 A  
HETATM    9  C   UNL     1      -7.600  18.986  68.931  1.00  0.00    -0.320 C  
HETATM   10  C   UNL     1      -8.611  15.974  66.950  1.00  0.00    -0.263 A  
HETATM   11  N   UNL     1      -7.666  20.076  69.326  1.00  0.00    -0.019 NA 
HETATM   12  C   UNL     1      -6.545  15.482  68.156  1.00  0.00    -0.138 A  
HETATM   13  C   UNL     1      -7.574  15.092  67.288  1.00  0.00    -0.236 A  
BRANCH  10  14
HETATM   14  C   UNL     1      -9.683  15.528  66.041  1.00  0.00    -0.345 A  
HETATM   15  N   UNL     1     -10.452  16.328  65.329  1.00  0.00    -0.604 NA 
HETATM   16  C   UNL     1     -11.356  15.594  64.566  1.00  0.00    -0.320 A  
HETATM   17  C   UNL     1     -11.285  14.222  64.745  1.00  0.00    -0.385 A  
HETATM   18  C   UNL     1     -12.284  16.330  63.661  1.00  0.00     2.128 C  
HETATM   19  C   UNL     1     -12.085  13.189  64.124  1.00  0.00    -0.430 C  
HETATM   20  S   UNL     1     -10.048  13.857  65.871  1.00  0.00    -0.312 SA 
HETATM   21  O   UNL     1     -12.991  13.376  63.325  1.00  0.00    -0.266 OA 
HETATM   22  O   UNL     1     -11.736  11.934  64.516  1.00  0.00    -0.314 OA 
ENDBRANCH  10  14
ENDBRANCH   5   6
ENDBRANCH   4   5
TORSDOF 3
ENDMDL
MODEL      200
REMARK 921   NORMALIZED FREE ENERGY PREDICTED BY IDOCK:    8.88 KCAL/MOL
REMARK 922        TOTAL FREE ENERGY PREDICTED BY IDOCK:    9.75 KCAL/MOL
REMARK 923 INTER-LIGAND FREE ENERGY PREDICTED BY IDOCK:    4.17 KCAL/MOL
REMARK 924 INTRA-LIGAND FREE ENERGY PREDICTED BY IDOCK:    5.57 KCAL/MOL
REMARK 927      BINDING AFFINITY PREDICTED BY RF-SCORE:    0.00 PKD
ROOT
HETATM    1  C   UNL     1     -12.329   8.878  71.869  1.00  0.00    -0.445 C  
HETATM    2  C   UNL     1     -12.325  10.372  72.188  1.00  0.00     0.214 C  
HETATM    3  C   UNL     1     -11.093  11.043  71.578  1.00  0.00     2.469 C  
HETATM    4  C   UNL     1     -13.624  11.028  71.697  1.00  0.00     0.103 C  
ENDROOT
BRANCH   4   5
HETATM    5  O   UNL     1     -13.569  12.427  71.979  1.00  0.00    -0.421 OA 
BRANCH   5   6
HETATM    6  C   UNL     1     -12.848  13.200  71.111  1.00  0.00    -0.264 A  
HETATM    7  C   UNL     1     -12.560  12.645  69.858  1.00  0.00     0.166 A  
HETATM    8  C   UNL     1     -11.788  13.364  68.931  1.00  0.00    -0.373 A  
HETATM    9  C   UNL     1     -13.057  11.350  69.482  1.00  0.00     1.190 C  
HETATM   10  C   UNL     1     -11.284  14.638  69.236  1.00  0.00    -0.306 A  
HETATM   11  N   UNL     1     -13.445  10.316  69.124  1.00  0.00     2.253 NA 
HETATM   12  C   UNL     1     -12.345  14.464  71.429  1.00  0.00    -0.433 A  
HETATM   13  C   UNL     1     -11.570  15.173  70.500  1.00  0.00    -0.340 A  
BRANCH  10  14
HETATM   14  C   UNL     1     -10.459  15.407  68.286  1.00  0.00    -0.241 A  
HETATM   15  N   UNL     1     -10.834  16.519  67.686  1.00  0.00    -0.306 NA 
HETATM   16  C   UNL     1      -9.822  17.002  66.861  1.00  0.00    -0.271 A  
HETATM   17  C   UNL     1      -8.685  16.211  66.816  1.00  0.00    -0.240 A  
HETATM   18  C   UNL     1     -10.050  18.280  66.129  1.00  0.00    -0.354 C  
HETATM   19  C   UNL     1      -7.473  16.416  66.054  1.00  0.00     0.539 C  
HETATM   20  S   UNL     1      -8.891  14.857  67.844  1.00  0.00    -0.170 SA 
HETATM   21  O   UNL     1      -7.263  17.349  65.292  1.00  0.00     0.188 OA 
HETATM   22  O   UNL     1      -6.541  15.446  66.258  1.00  0.00     1.215 OA 
ENDBRANCH  10  14
ENDBRANCH   5   6
ENDBRANCH   4   5
TORSDOF 3
ENDMDL
MODEL      201
REMARK 921   NORMALIZED FREE ENERGY PREDICTED BY IDOCK:   12.31 KCAL/MOL
REMARK 922        TOTAL FREE ENERGY PREDICTED BY IDOCK:   13.79 KCAL/MOL
REMARK 923 INTER-LIGAND FREE ENERGY PREDICTED BY IDOCK:   11.22 KCAL/MOL
REMARK 924 INTRA-LIGAND FREE ENERGY PREDICTED BY IDOCK:    2.57 KCAL/MOL
REMARK 927      BINDING AFFINITY PREDICTED BY RF-SCORE:    0.00 PKD
ROOT
HETATM    1  C   UNL     1     -11.072   3.351  69.700  1.00  0.00     5.681 C  
HETATM    2  C   UNL     1     -10.745   4.268  68.523  1.00  0.00     1.540 C  
HETATM    3  C   UNL     1     -11.837   5.327  68.353  1.00  0.00     4.506 C  
HETATM    4  C   UNL     1      -9.364   4.912  68.714  1.00  0.00    -0.135 C  
ENDROOT
BRANCH   4   5
HETATM    5  O   UNL     1      -9.108   5.788  67.615  1.00  0.00    -0.109 OA 
BRANCH   5   6
HETATM    6  C   UNL     1      -9.667   7.035  67.683  1.00  0.00    -0.136 A  
HETATM    7  C   UNL     1      -9.038   8.053  66.956  1.00  0.00    -0.170 A  
HETATM    8  C   UNL     1      -9.533   9.366  67.011  1.00  0.00    -0.200 A  
HETATM    9  C   UNL     1      -7.896   7.782  66.127  1.00  0.00    -0.095 C  
HETATM   10  C   UNL     1     -10.652   9.689  67.794  1.00  0.00    -0.320 A  
HETATM   11  N   UNL     1      -6.981   7.615  65.432  1.00  0.00    -0.058 NA 
HETATM   12  C   UNL     1     -10.777   7.346  68.472  1.00  0.00    -0.138 A  
HETATM   13  C   UNL     1     -11.261   8.660  68.527  1.00  0.00     0.463 A  
BRANCH  10  14
HETATM   14  C   UNL     1     -11.182  11.063  67.881  1.00  0.00    -0.310 A  
HETATM   15  N   UNL     1     -11.956  11.515  68.848  1.00  0.00    -0.401 NA 
HETATM   16  C   UNL     1     -12.273  12.855  68.642  1.00  0.00     0.034 A  
HETATM   17  C   UNL     1     -11.757  13.399  67.477  1.00  0.00    -0.366 A  
HETATM   18  C   UNL     1     -13.110  13.552  69.659  1.00  0.00     1.139 C  
HETATM   19  C   UNL     1     -11.911  14.743  66.963  1.00  0.00    -0.203 C  
HETATM   20  S   UNL     1     -10.845  12.211  66.647  1.00  0.00    -0.281 SA 
HETATM   21  O   UNL     1     -12.558  15.635  67.492  1.00  0.00     1.111 OA 
HETATM   22  O   UNL     1     -11.253  14.947  65.790  1.00  0.00    -0.335 OA 
ENDBRANCH  10  14
ENDBRANCH   5   6
ENDBRANCH   4   5
TORSDOF 3
ENDMDL
MODEL      202
REMARK 921   NORMALIZED FREE ENERGY PREDICTED BY IDOCK:   14.88 KCAL/MOL
REMARK 922        TOTAL FREE ENERGY PREDICTED BY IDOCK:   16.80 KCAL/MOL
REMARK 923 INTER-LIGAND FREE ENERGY PREDICTED BY IDOCK:   16.97 KCAL/MOL
REMARK 924 INTRA-LIGAND FREE ENERGY PREDICTED BY IDOCK:   -0.17 KCAL/MOL
REMARK 927      BINDING AFFINITY PREDICTED BY RF-SCORE:    0.00 PKD
ROOT
HETATM    1  C   UNL     1      -7.110  18.055  73.382  1.00  0.00     8.849 C  
HETATM    2  C   UNL     1      -6.661  17.266  72.154  1.00  0.00     5.908 C  
HETATM    3  C   UNL     1      -5.242  17.672  71.748  1.00  0.00     0.363 C  
HETATM    4  C   UNL     1      -6.758  15.757  72.422  1.00  0.00     4.299 C  
ENDROOT
BRANCH   4   5
HETATM    5  O   UNL     1      -6.298  15.053  71.267  1.00  0.00     0.284 OA 
BRANCH   5   6
HETATM    6  C   UNL     1      -7.197  14.895  70.248  1.00  0.00     0.249 A  
HETATM    7  C   UNL     1      -7.062  13.748  69.455  1.00  0.00     0.052 A  
HETATM    8  C   UNL     1      -7.923  13.541  68.365  1.00  0.00    -0.142 A  
HETATM    9  C   UNL     1      -6.064  12.755  69.742  1.00  0.00    -0.131 C  
HETATM   10  C   UNL     1      -8.924  14.471  68.042  1.00  0.00    -0.180 A  
HETATM   11  N   UNL     1      -5.286  11.916  69.939  1.00  0.00    -0.078 NA 
HETATM   12  C   UNL     1      -8.185  15.831  69.931  1.00  0.00     0.334 A  
HETATM   13  C   UNL     1      -9.037  15.620  68.838  1.00  0.00    -0.217 A  
BRANCH  10  14
HETATM   14  C   UNL     1      -9.831  14.284  66.894  1.00  0.00    -0.263 A  
HETATM   15  N   UNL     1     -10.352  13.132  66.520  1.00  0.00    -0.278 NA 
HETATM   16  C   UNL     1     -11.173  13.298  65.409  1.00  0.00    -0.287 A  
HETATM   17  C   UNL     1     -11.233  14.593  64.921  1.00  0.00    -0.396 A  
HETATM   18  C   UNL     1     -11.885  12.105  64.868  1.00  0.00    -0.366 C  
HETATM   19  C   UNL     1     -11.972  15.096  63.783  1.00  0.00     0.402 C  
HETATM   20  S   UNL     1     -10.259  15.614  65.892  1.00  0.00    -0.378 SA 
HETATM   21  O   UNL     1     -12.673  14.425  63.040  1.00  0.00    -0.186 OA 
HETATM   22  O   UNL     1     -11.818  16.434  63.593  1.00  0.00    -0.871 OA 
ENDBRANCH  10  14
ENDBRANCH   5   6
ENDBRANCH   4   5
TORSDOF 3
ENDMDL
MODEL      203
REMARK 921   NORMALIZED FREE ENERGY PREDICTED BY IDOCK:   20.80 KCAL/MOL
REMARK 922        TOTAL FREE ENERGY PREDICTED BY IDOCK:   23.76 KCAL/MOL
REMARK 923 INTER-LIGAND FREE ENERGY PREDICTED BY IDOCK:   20.12 KCAL/MOL
REMARK 924 INTRA-LIGAND FREE ENERGY PREDICTED BY IDOCK:    3.63 KCAL/MOL
REMARK 927      BINDING AFFINITY PREDICTED BY RF-SCORE:    0.00 PKD
ROOT
HETATM    1  C   UNL     1      -6.313  19.506  70.635  1.00  0.00    -0.001 C  
HETATM    2  C   UNL     1      -6.364  18.051  70.175  1.00  0.00     0.183 C  
HETATM    3  C   UNL     1      -6.292  17.972  68.648  1.00  0.00    -0.211 C  
HETATM    4  C   UNL     1      -5.237  17.241  70.834  1.00  0.00    -0.214 C  
ENDROOT
BRANCH   4   5
HETATM    5  O   UNL     1      -5.295  15.896  70.354  1.00  0.00    -0.148 OA 
BRANCH   5   6
HETATM    6  C   UNL     1      -6.388  15.560  69.603  1.00  0.00    -0.163 A  
HETATM    7  C   UNL     1      -7.626  15.547  70.257  1.00  0.00     0.621 A  
HETATM    8  C   UNL     1      -8.786  15.171  69.560  1.00  0.00    -0.131 A  
HETATM    9  C   UNL     1      -7.747  15.933  71.636  1.00  0.00     5.878 C  
HETATM   10  C   UNL     1      -8.733  14.795  68.208  1.00  0.00    -0.170 A  
HETATM   11  N   UNL     1      -7.902  16.249  72.743  1.00  0.00    13.384 NA 
HETATM   12  C   UNL     1      -6.322  15.180  68.260  1.00  0.00    -0.120 A  
HETATM   13  C   UNL     1      -7.483  14.800  67.573  1.00  0.00    -0.221 A  
BRANCH  10  14
HETATM   14  C   UNL     1      -9.933  14.381  67.458  1.00  0.00    -0.224 A  
HETATM   15  N   UNL     1     -10.416  13.155  67.418  1.00  0.00    -0.241 NA 
HETATM   16  C   UNL     1     -11.562  13.100  66.631  1.00  0.00    -0.356 A  
HETATM   17  C   UNL     1     -11.917  14.302  66.040  1.00  0.00    -0.400 A  
HETATM   18  C   UNL     1     -12.275  11.797  66.503  1.00  0.00     0.831 C  
HETATM   19  C   UNL     1     -13.031  14.581  65.161  1.00  0.00     0.078 C  
HETATM   20  S   UNL     1     -10.802  15.517  66.503  1.00  0.00    -0.241 SA 
HETATM   21  O   UNL     1     -13.855  13.763  64.777  1.00  0.00     1.024 OA 
HETATM   22  O   UNL     1     -13.094  15.883  64.772  1.00  0.00     0.966 OA 
ENDBRANCH  10  14
ENDBRANCH   5   6
ENDBRANCH   4   5
TORSDOF 3
ENDMDL
MODEL      204
REMARK 921   NORMALIZED FREE ENERGY PREDICTED BY IDOCK:   23.49 KCAL/MOL
REMARK 922        TOTAL FREE ENERGY PREDICTED BY IDOCK:   26.92 KCAL/MOL
REMARK 923 INTER-LIGAND FREE ENERGY PREDICTED BY IDOCK:   27.19 KCAL/MOL
REMARK 924 INTRA-LIGAND FREE ENERGY PREDICTED BY IDOCK:   -0.27 KCAL/MOL
REMARK 927      BINDING AFFINITY PREDICTED BY RF-SCORE:    0.00 PKD
ROOT
HETATM    1  C   UNL     1     -10.066  18.920  71.472  1.00  0.00     3.629 C  
HETATM    2  C   UNL     1      -9.108  17.815  71.032  1.00  0.00     6.533 C  
HETATM    3  C   UNL     1      -7.667  18.332  71.026  1.00  0.00     5.311 C  
HETATM    4  C   UNL     1      -9.259  16.584  71.937  1.00  0.00     8.805 C  
ENDROOT
BRANCH   4   5
HETATM    5  O   UNL     1      -8.325  15.587  71.520  1.00  0.00     3.569 OA 
BRANCH   5   6
HETATM    6  C   UNL     1      -8.631  14.901  70.376  1.00  0.00     1.258 A  
HETATM    7  C   UNL     1      -7.658  14.022  69.885  1.00  0.00     0.648 A  
HETATM    8  C   UNL     1      -7.887  13.315  68.693  1.00  0.00    -0.063 A  
HETATM    9  C   UNL     1      -6.425  13.804  70.588  1.00  0.00     0.207 C  
HETATM   10  C   UNL     1      -9.078  13.478  67.967  1.00  0.00    -0.201 A  
HETATM   11  N   UNL     1      -5.419  13.580  71.124  1.00  0.00    -0.189 NA 
HETATM   12  C   UNL     1      -9.816  15.077  69.658  1.00  0.00    -0.095 A  
HETATM   13  C   UNL     1     -10.034  14.373  68.466  1.00  0.00    -0.237 A  
BRANCH  10  14
HETATM   14  C   UNL     1      -9.336  12.760  66.705  1.00  0.00    -0.241 A  
HETATM   15  N   UNL     1     -10.078  13.214  65.714  1.00  0.00    -0.289 NA 
HETATM   16  C   UNL     1     -10.111  12.301  64.664  1.00  0.00    -0.250 A  
HETATM   17  C   UNL     1      -9.413  11.127  64.894  1.00  0.00    -0.219 A  
HETATM   18  C   UNL     1     -10.871  12.662  63.433  1.00  0.00    -0.265 C  
HETATM   19  C   UNL     1      -9.265   9.980  64.025  1.00  0.00    -0.272 C  
HETATM   20  S   UNL     1      -8.690  11.188  66.445  1.00  0.00    -0.179 SA 
HETATM   21  O   UNL     1      -9.763   9.861  62.915  1.00  0.00    -0.098 OA 
HETATM   22  O   UNL     1      -8.493   8.997  64.562  1.00  0.00    -0.167 OA 
ENDBRANCH  10  14
ENDBRANCH   5   6
ENDBRANCH   4   5
TORSDOF 3
ENDMDL
MODEL      205
REMARK 921   NORMALIZED FREE ENERGY PREDICTED BY IDOCK:   25.25 KCAL/MOL
REMARK 922        TOTAL FREE ENERGY PREDICTED BY IDOCK:   28.99 KCAL/MOL
REMARK 923 INTER-LIGAND FREE ENERGY PREDICTED BY IDOCK:   22.62 KCAL/MOL
REMARK 924 INTRA-LIGAND FREE ENERGY PREDICTED BY IDOCK:    6.38 KCAL/MOL
REMARK 927      BINDING AFFINITY PREDICTED BY RF-SCORE:    0.00 PKD
ROOT
HETATM    1  C   UNL     1      -6.978  19.398  69.968  1.00  0.00     0.069 C  
HETATM    2  C   UNL     1      -7.306  18.368  68.890  1.00  0.00    -0.269 C  
HETATM    3  C   UNL     1      -8.813  18.103  68.848  1.00  0.00    -0.131 C  
HETATM    4  C   UNL     1      -6.780  18.836  67.525  1.00  0.00    -0.200 C  
ENDROOT
BRANCH   4   5
HETATM    5  O   UNL     1      -7.135  17.867  66.537  1.00  0.00    -0.196 OA 
BRANCH   5   6
HETATM    6  C   UNL     1      -7.628  16.676  66.996  1.00  0.00    -0.202 A  
HETATM    7  C   UNL     1      -7.213  15.518  66.328  1.00  0.00     1.617 A  
HETATM    8  C   UNL     1      -7.710  14.264  66.719  1.00  0.00     0.541 A  
HETATM    9  C   UNL     1      -6.262  15.576  65.253  1.00  0.00    10.014 C  
HETATM   10  C   UNL     1      -8.633  14.142  67.770  1.00  0.00    -0.184 A  
HETATM   11  N   UNL     1      -5.487  15.566  64.388  1.00  0.00    13.116 NA 
HETATM   12  C   UNL     1      -8.552  16.568  68.039  1.00  0.00    -0.184 A  
HETATM   13  C   UNL     1      -9.048  15.314  68.419  1.00  0.00    -0.189 A  
BRANCH  10  14
HETATM   14  C   UNL     1      -9.182  12.839  68.190  1.00  0.00    -0.212 A  
HETATM   15  N   UNL     1     -10.047  12.662  69.168  1.00  0.00     0.208 NA 
HETATM   16  C   UNL     1     -10.373  11.316  69.303  1.00  0.00    -0.070 A  
HETATM   17  C   UNL     1      -9.706  10.469  68.433  1.00  0.00    -0.159 A  
HETATM   18  C   UNL     1     -11.375  10.927  70.336  1.00  0.00    -0.289 C  
HETATM   19  C   UNL     1      -9.802   9.030  68.324  1.00  0.00    -0.166 C  
HETATM   20  S   UNL     1      -8.674  11.387  67.421  1.00  0.00    -0.149 SA 
HETATM   21  O   UNL     1     -10.503   8.310  69.020  1.00  0.00    -0.219 OA 
HETATM   22  O   UNL     1      -9.013   8.513  67.344  1.00  0.00    -0.132 OA 
ENDBRANCH  10  14
ENDBRANCH   5   6
ENDBRANCH   4   5
TORSDOF 3
ENDMDL
MODEL      206
REMARK 921   NORMALIZED FREE ENERGY PREDICTED BY IDOCK:   32.02 KCAL/MOL
REMARK 922        TOTAL FREE ENERGY PREDICTED BY IDOCK:   36.95 KCAL/MOL
REMARK 923 INTER-LIGAND FREE ENERGY PREDICTED BY IDOCK:   32.51 KCAL/MOL
REMARK 924 INTRA-LIGAND FREE ENERGY PREDICTED BY IDOCK:    4.44 KCAL/MOL
REMARK 927      BINDING AFFINITY PREDICTED BY RF-SCORE:    0.00 PKD
ROOT
HETATM    1  C   UNL     1      -9.873  16.883  73.454  1.00  0.00    11.039 C  
HETATM    2  C   UNL     1     -10.667  15.794  72.735  1.00  0.00     2.027 C  
HETATM    3  C   UNL     1     -10.121  15.583  71.321  1.00  0.00     1.287 C  
HETATM    4  C   UNL     1     -10.643  14.491  73.547  1.00  0.00     4.143 C  
ENDROOT
BRANCH   4   5
HETATM    5  O   UNL     1     -11.364  13.487  72.828  1.00  0.00     3.233 OA 
BRANCH   5   6
HETATM    6  C   UNL     1     -11.307  13.552  71.463  1.00  0.00     2.355 A  
HETATM    7  C   UNL     1     -12.390  14.155  70.812  1.00  0.00    -0.439 A  
HETATM    8  C   UNL     1     -12.420  14.220  69.409  1.00  0.00    -0.112 A  
HETATM    9  C   UNL     1     -13.477  14.735  71.551  1.00  0.00    -0.394 C  
HETATM   10  C   UNL     1     -11.382  13.680  68.633  1.00  0.00    -0.321 A  
HETATM   11  N   UNL     1     -14.373  15.231  72.099  1.00  0.00    -0.562 NA 
HETATM   12  C   UNL     1     -10.272  13.005  70.701  1.00  0.00     4.530 A  
HETATM   13  C   UNL     1     -10.312  13.068  69.302  1.00  0.00     0.289 A  
BRANCH  10  14
HETATM   14  C   UNL     1     -11.396  13.721  67.160  1.00  0.00    -0.324 A  
HETATM   15  N   UNL     1     -10.356  13.484  66.385  1.00  0.00    -0.283 NA 
HETATM   16  C   UNL     1     -10.703  13.593  65.042  1.00  0.00    -0.367 A  
HETATM   17  C   UNL     1     -12.020  13.958  64.812  1.00  0.00    -0.406 A  
HETATM   18  C   UNL     1      -9.661  13.316  64.013  1.00  0.00     1.023 C  
HETATM   19  C   UNL     1     -12.690  14.172  63.548  1.00  0.00     0.755 C  
HETATM   20  S   UNL     1     -12.830  14.144  66.310  1.00  0.00     0.363 SA 
HETATM   21  O   UNL     1     -12.173  14.073  62.445  1.00  0.00     0.855 OA 
HETATM   22  O   UNL     1     -14.000  14.511  63.687  1.00  0.00     3.817 OA 
ENDBRANCH  10  14
ENDBRANCH   5   6
ENDBRANCH   4   5
TORSDOF 3
ENDMDL
