MODEL        1
REMARK 921   NORMALIZED FREE ENERGY PREDICTED BY IDOCK:   -8.32 KCAL/MOL
REMARK 922        TOTAL FREE ENERGY PREDICTED BY IDOCK:  -14.53 KCAL/MOL
REMARK 923 INTER-LIGAND FREE ENERGY PREDICTED BY IDOCK:  -13.18 KCAL/MOL
REMARK 924 INTRA-LIGAND FREE ENERGY PREDICTED BY IDOCK:   -1.35 KCAL/MOL
REMARK 927      BINDING AFFINITY PREDICTED BY RF-SCORE:    0.00 PKD
ROOT
HETATM    1  C   UNL     1     -12.532  15.567  71.083  1.00  0.00    -0.491 C  
HETATM    2  C   UNL     1     -12.763  14.111  71.334  1.00  0.00    -0.439 A  
HETATM    3  C   UNL     1     -13.603  13.738  72.368  1.00  0.00    -0.588 A  
HETATM    4  N   UNL     1     -13.889  12.470  72.691  1.00  0.00    -0.184 NA 
HETATM    5  C   UNL     1     -13.283  11.528  71.968  1.00  0.00    -0.337 A  
HETATM    6  C   UNL     1     -12.221  13.071  70.581  1.00  0.00    -0.307 A  
HETATM    7  N   UNL     1     -12.473  11.795  70.924  1.00  0.00    -0.363 NA 
ENDROOT
BRANCH   5   8
HETATM    8  N   UNL     1     -13.545  10.218  72.376  1.00  0.00    -0.554 NA 
HETATM    9  H   UNL     1     -14.368  10.103  72.967  1.00  0.00     0.000 HD 
BRANCH   8  10
HETATM   10  C   UNL     1     -12.844   9.038  72.091  1.00  0.00    -0.410 A  
HETATM   11  C   UNL     1     -11.463   8.962  72.225  1.00  0.00    -0.307 A  
HETATM   12  C   UNL     1     -12.813   6.787  71.138  1.00  0.00    -0.208 A  
HETATM   13  C   UNL     1     -11.423   6.754  71.225  1.00  0.00    -0.302 A  
HETATM   14  C   UNL     1     -10.758   7.841  71.804  1.00  0.00    -0.265 A  
HETATM   15  C   UNL     1     -13.519   7.924  71.567  1.00  0.00    -0.352 A  
BRANCH  13  16
HETATM   16  O   UNL     1     -10.777   5.652  70.707  1.00  0.00    -0.260 OA 
BRANCH  16  17
HETATM   17  C   UNL     1     -10.761   5.663  69.278  1.00  0.00    -0.280 C  
BRANCH  17  18
HETATM   18  C   UNL     1      -9.608   6.456  68.662  1.00  0.00    -0.120 C  
BRANCH  18  19
HETATM   19  N   UNL     1     -10.156   7.451  67.727  1.00  0.00    -0.173 NA 
HETATM   20  C   UNL     1      -9.298   7.720  66.566  1.00  0.00    -0.189 C  
HETATM   21  C   UNL     1     -10.426   8.742  68.347  1.00  0.00    -0.176 C  
HETATM   22  C   UNL     1      -9.676   9.120  66.104  1.00  0.00    -0.357 C  
HETATM   23  C   UNL     1     -10.685   9.613  67.129  1.00  0.00    -0.258 C  
ENDBRANCH  18  19
ENDBRANCH  17  18
ENDBRANCH  16  17
ENDBRANCH  13  16
ENDBRANCH   8  10
ENDBRANCH   5   8
BRANCH   6  24
HETATM   24  N   UNL     1     -11.323  13.375  69.523  1.00  0.00    -0.424 NA 
HETATM   25  H   UNL     1     -10.345  13.384  69.812  1.00  0.00     0.000 HD 
BRANCH  24  26
HETATM   26  C   UNL     1     -11.508  13.668  68.149  1.00  0.00    -0.313 A  
HETATM   27  C   UNL     1     -11.971  12.757  67.196  1.00  0.00    -0.351 A  
HETATM   28  C   UNL     1     -11.049  14.909  67.670  1.00  0.00    -0.315 A  
HETATM   29  C   UNL     1     -11.971  13.056  65.822  1.00  0.00    -0.482 A  
HETATM   30  C   UNL     1     -11.453  14.265  65.361  1.00  0.00    -0.332 A  
HETATM   31  C   UNL     1     -10.969  15.182  66.292  1.00  0.00    -0.335 A  
BRANCH  31  32
HETATM   32  S   UNL     1     -10.287  16.722  65.731  1.00  0.00    -0.237 S  
HETATM   33  O   UNL     1      -8.859  16.526  65.587  1.00  0.00    -0.428 OA 
HETATM   34  O   UNL     1     -11.084  17.191  64.619  1.00  0.00    -1.036 OA 
BRANCH  32  35
HETATM   35  N   UNL     1     -10.460  17.780  67.025  1.00  0.00    -0.343 N  
HETATM   36  C   UNL     1     -10.209  19.670  68.551  1.00  0.00    -0.529 C  
HETATM   37  C   UNL     1      -8.190  18.704  67.489  1.00  0.00    -0.266 C  
HETATM   38  C   UNL     1      -9.857  20.015  66.116  1.00  0.00    -0.553 C  
HETATM   39  C   UNL     1      -9.672  19.017  67.258  1.00  0.00    -0.314 C  
HETATM   40  H   UNL     1     -11.174  17.551  67.716  1.00  0.00     0.000 HD 
ENDBRANCH  32  35
ENDBRANCH  31  32
ENDBRANCH  24  26
ENDBRANCH   6  24
TORSDOF 10
ENDMDL
MODEL        2
REMARK 921   NORMALIZED FREE ENERGY PREDICTED BY IDOCK:   -8.10 KCAL/MOL
REMARK 922        TOTAL FREE ENERGY PREDICTED BY IDOCK:  -14.19 KCAL/MOL
REMARK 923 INTER-LIGAND FREE ENERGY PREDICTED BY IDOCK:  -12.87 KCAL/MOL
REMARK 924 INTRA-LIGAND FREE ENERGY PREDICTED BY IDOCK:   -1.31 KCAL/MOL
REMARK 927      BINDING AFFINITY PREDICTED BY RF-SCORE:    0.00 PKD
ROOT
HETATM    1  C   UNL     1     -13.432  15.599  72.347  1.00  0.00    -0.604 C  
HETATM    2  C   UNL     1     -13.105  14.262  71.764  1.00  0.00    -0.435 A  
HETATM    3  C   UNL     1     -13.548  13.124  72.416  1.00  0.00    -0.567 A  
HETATM    4  N   UNL     1     -13.321  11.874  71.993  1.00  0.00    -0.441 NA 
HETATM    5  C   UNL     1     -12.589  11.750  70.885  1.00  0.00    -0.289 A  
HETATM    6  C   UNL     1     -12.406  14.054  70.576  1.00  0.00    -0.367 A  
HETATM    7  N   UNL     1     -12.141  12.800  70.168  1.00  0.00    -0.337 NA 
ENDROOT
BRANCH   5   8
HETATM    8  N   UNL     1     -12.309  10.434  70.512  1.00  0.00    -0.346 NA 
HETATM    9  H   UNL     1     -12.672  10.154  69.601  1.00  0.00     0.000 HD 
BRANCH   8  10
HETATM   10  C   UNL     1     -11.602   9.441  71.204  1.00  0.00    -0.345 A  
HETATM   11  C   UNL     1     -12.250   8.531  72.031  1.00  0.00    -0.429 A  
HETATM   12  C   UNL     1      -9.470   8.513  71.956  1.00  0.00    -0.364 A  
HETATM   13  C   UNL     1     -10.134   7.649  72.822  1.00  0.00    -0.254 A  
HETATM   14  C   UNL     1     -11.534   7.643  72.826  1.00  0.00    -0.384 A  
HETATM   15  C   UNL     1     -10.200   9.406  71.153  1.00  0.00    -0.361 A  
BRANCH  13  16
HETATM   16  O   UNL     1      -9.366   6.859  73.650  1.00  0.00    -0.150 OA 
BRANCH  16  17
HETATM   17  C   UNL     1      -8.586   5.913  72.917  1.00  0.00    -0.121 C  
BRANCH  17  18
HETATM   18  C   UNL     1      -9.365   4.691  72.427  1.00  0.00    -0.130 C  
BRANCH  18  19
HETATM   19  N   UNL     1      -9.312   4.647  70.957  1.00  0.00    -0.138 NA 
HETATM   20  C   UNL     1      -8.206   5.417  70.373  1.00  0.00    -0.105 C  
HETATM   21  C   UNL     1     -10.530   5.128  70.319  1.00  0.00    -0.226 C  
HETATM   22  C   UNL     1      -8.661   5.766  68.963  1.00  0.00    -0.112 C  
HETATM   23  C   UNL     1     -10.086   5.244  68.870  1.00  0.00    -0.254 C  
ENDBRANCH  18  19
ENDBRANCH  17  18
ENDBRANCH  16  17
ENDBRANCH  13  16
ENDBRANCH   8  10
ENDBRANCH   5   8
BRANCH   6  24
HETATM   24  N   UNL     1     -11.892  15.172  69.868  1.00  0.00    -0.308 NA 
HETATM   25  H   UNL     1     -12.140  16.068  70.290  1.00  0.00     0.000 HD 
BRANCH  24  26
HETATM   26  C   UNL     1     -11.105  15.300  68.697  1.00  0.00    -0.279 A  
HETATM   27  C   UNL     1      -9.836  15.885  68.650  1.00  0.00    -0.212 A  
HETATM   28  C   UNL     1     -11.693  14.960  67.464  1.00  0.00    -0.328 A  
HETATM   29  C   UNL     1      -9.179  16.135  67.432  1.00  0.00    -0.213 A  
HETATM   30  C   UNL     1      -9.805  15.851  66.220  1.00  0.00    -0.325 A  
HETATM   31  C   UNL     1     -11.078  15.284  66.241  1.00  0.00    -0.273 A  
BRANCH  31  32
HETATM   32  S   UNL     1     -11.905  14.930  64.711  1.00  0.00    -0.339 S  
HETATM   33  O   UNL     1     -13.139  14.249  65.043  1.00  0.00    -0.682 OA 
HETATM   34  O   UNL     1     -11.918  16.137  63.914  1.00  0.00    -0.947 OA 
BRANCH  32  35
HETATM   35  N   UNL     1     -10.952  13.773  63.950  1.00  0.00    -0.463 N  
HETATM   36  C   UNL     1     -10.025  11.655  63.163  1.00  0.00    -0.400 C  
HETATM   37  C   UNL     1     -10.852  11.816  65.493  1.00  0.00    -0.348 C  
HETATM   38  C   UNL     1     -12.471  11.845  63.554  1.00  0.00    -0.609 C  
HETATM   39  C   UNL     1     -11.104  12.300  64.061  1.00  0.00    -0.386 C  
HETATM   40  H   UNL     1     -10.198  14.115  63.355  1.00  0.00     0.000 HD 
ENDBRANCH  32  35
ENDBRANCH  31  32
ENDBRANCH  24  26
ENDBRANCH   6  24
TORSDOF 10
ENDMDL
MODEL        3
REMARK 921   NORMALIZED FREE ENERGY PREDICTED BY IDOCK:   -7.95 KCAL/MOL
REMARK 922        TOTAL FREE ENERGY PREDICTED BY IDOCK:  -13.94 KCAL/MOL
REMARK 923 INTER-LIGAND FREE ENERGY PREDICTED BY IDOCK:  -12.27 KCAL/MOL
REMARK 924 INTRA-LIGAND FREE ENERGY PREDICTED BY IDOCK:   -1.68 KCAL/MOL
REMARK 927      BINDING AFFINITY PREDICTED BY RF-SCORE:    0.00 PKD
ROOT
HETATM    1  C   UNL     1     -11.946  12.958  63.695  1.00  0.00    -0.613 C  
HETATM    2  C   UNL     1     -11.191  11.897  64.430  1.00  0.00    -0.401 A  
HETATM    3  C   UNL     1     -10.435  10.993  63.705  1.00  0.00    -0.341 A  
HETATM    4  N   UNL     1      -9.715  10.003  64.247  1.00  0.00    -0.255 NA 
HETATM    5  C   UNL     1      -9.777   9.887  65.574  1.00  0.00    -0.302 A  
HETATM    6  C   UNL     1     -11.151  11.755  65.816  1.00  0.00    -0.297 A  
HETATM    7  N   UNL     1     -10.462  10.738  66.364  1.00  0.00    -0.247 NA 
ENDROOT
BRANCH   5   8
HETATM    8  N   UNL     1      -9.074   8.801  66.101  1.00  0.00    -0.188 NA 
HETATM    9  H   UNL     1      -8.148   8.649  65.703  1.00  0.00     0.000 HD 
BRANCH   8  10
HETATM   10  C   UNL     1      -9.455   7.890  67.096  1.00  0.00    -0.159 A  
HETATM   11  C   UNL     1     -10.584   7.092  66.957  1.00  0.00    -0.413 A  
HETATM   12  C   UNL     1      -9.206   7.035  69.372  1.00  0.00    -0.147 A  
HETATM   13  C   UNL     1     -10.373   6.287  69.234  1.00  0.00    -0.218 A  
HETATM   14  C   UNL     1     -11.039   6.298  68.003  1.00  0.00    -0.365 A  
HETATM   15  C   UNL     1      -8.751   7.834  68.309  1.00  0.00    -0.127 A  
BRANCH  13  16
HETATM   16  O   UNL     1     -10.821   5.594  70.338  1.00  0.00    -0.292 OA 
BRANCH  16  17
HETATM   17  C   UNL     1     -11.091   6.460  71.442  1.00  0.00    -0.277 C  
BRANCH  17  18
HETATM   18  C   UNL     1     -12.422   7.208  71.351  1.00  0.00    -0.388 C  
BRANCH  18  19
HETATM   19  N   UNL     1     -12.181   8.643  71.570  1.00  0.00    -0.306 NA 
HETATM   20  C   UNL     1     -13.319   9.359  72.161  1.00  0.00    -0.468 C  
HETATM   21  C   UNL     1     -11.828   9.363  70.353  1.00  0.00    -0.090 C  
HETATM   22  C   UNL     1     -13.143  10.810  71.737  1.00  0.00    -0.573 C  
HETATM   23  C   UNL     1     -11.933  10.806  70.817  1.00  0.00    -0.464 C  
ENDBRANCH  18  19
ENDBRANCH  17  18
ENDBRANCH  16  17
ENDBRANCH  13  16
ENDBRANCH   8  10
ENDBRANCH   5   8
BRANCH   6  24
HETATM   24  N   UNL     1     -11.927  12.626  66.626  1.00  0.00    -0.529 NA 
HETATM   25  H   UNL     1     -12.913  12.368  66.669  1.00  0.00     0.000 HD 
BRANCH  24  26
HETATM   26  C   UNL     1     -11.613  13.779  67.387  1.00  0.00    -0.362 A  
HETATM   27  C   UNL     1     -12.142  14.070  68.648  1.00  0.00    -0.332 A  
HETATM   28  C   UNL     1     -10.839  14.784  66.777  1.00  0.00    -0.316 A  
HETATM   29  C   UNL     1     -11.924  15.308  69.277  1.00  0.00    -0.327 A  
HETATM   30  C   UNL     1     -11.209  16.314  68.630  1.00  0.00    -0.354 A  
HETATM   31  C   UNL     1     -10.687  16.054  67.364  1.00  0.00    -0.306 A  
BRANCH  31  32
HETATM   32  S   UNL     1      -9.789  17.324  66.509  1.00  0.00    -0.310 S  
HETATM   33  O   UNL     1      -8.988  16.669  65.496  1.00  0.00    -0.376 OA 
HETATM   34  O   UNL     1     -10.718  18.373  66.152  1.00  0.00    -0.347 OA 
BRANCH  32  35
HETATM   35  N   UNL     1      -8.685  17.916  67.630  1.00  0.00    -0.240 N  
HETATM   36  C   UNL     1      -7.465  19.365  69.171  1.00  0.00    -0.342 C  
HETATM   37  C   UNL     1      -8.277  20.301  67.027  1.00  0.00    -0.369 C  
HETATM   38  C   UNL     1      -9.908  19.699  68.860  1.00  0.00    -0.498 C  
HETATM   39  C   UNL     1      -8.616  19.308  68.142  1.00  0.00    -0.327 C  
HETATM   40  H   UNL     1      -7.997  17.257  67.993  1.00  0.00     0.000 HD 
ENDBRANCH  32  35
ENDBRANCH  31  32
ENDBRANCH  24  26
ENDBRANCH   6  24
TORSDOF 10
ENDMDL
MODEL        4
REMARK 921   NORMALIZED FREE ENERGY PREDICTED BY IDOCK:   -7.89 KCAL/MOL
REMARK 922        TOTAL FREE ENERGY PREDICTED BY IDOCK:  -13.85 KCAL/MOL
REMARK 923 INTER-LIGAND FREE ENERGY PREDICTED BY IDOCK:  -11.41 KCAL/MOL
REMARK 924 INTRA-LIGAND FREE ENERGY PREDICTED BY IDOCK:   -2.44 KCAL/MOL
REMARK 927      BINDING AFFINITY PREDICTED BY RF-SCORE:    0.00 PKD
ROOT
HETATM    1  C   UNL     1     -13.493  15.284  72.317  1.00  0.00    -0.552 C  
HETATM    2  C   UNL     1     -13.091  13.978  71.712  1.00  0.00    -0.449 A  
HETATM    3  C   UNL     1     -13.525  12.806  72.307  1.00  0.00    -0.490 A  
HETATM    4  N   UNL     1     -13.234  11.578  71.859  1.00  0.00    -0.456 NA 
HETATM    5  C   UNL     1     -12.445  11.513  70.786  1.00  0.00    -0.349 A  
HETATM    6  C   UNL     1     -12.328  13.830  70.555  1.00  0.00    -0.359 A  
HETATM    7  N   UNL     1     -11.999  12.599  70.124  1.00  0.00    -0.341 NA 
ENDROOT
BRANCH   5   8
HETATM    8  N   UNL     1     -12.101  10.219  70.389  1.00  0.00    -0.354 NA 
HETATM    9  H   UNL     1     -12.798   9.503  70.591  1.00  0.00     0.000 HD 
BRANCH   8  10
HETATM   10  C   UNL     1     -10.939   9.760  69.753  1.00  0.00    -0.256 A  
HETATM   11  C   UNL     1     -10.931   9.432  68.403  1.00  0.00    -0.079 A  
HETATM   12  C   UNL     1      -8.646   8.930  69.906  1.00  0.00    -0.137 A  
HETATM   13  C   UNL     1      -8.677   8.553  68.566  1.00  0.00    -0.139 A  
HETATM   14  C   UNL     1      -9.821   8.841  67.811  1.00  0.00    -0.217 A  
HETATM   15  C   UNL     1      -9.772   9.528  70.497  1.00  0.00    -0.325 A  
BRANCH  13  16
HETATM   16  O   UNL     1      -7.579   7.890  68.063  1.00  0.00    -0.107 OA 
BRANCH  16  17
HETATM   17  C   UNL     1      -6.384   8.665  68.179  1.00  0.00    -0.052 C  
BRANCH  17  18
HETATM   18  C   UNL     1      -6.031   9.478  66.933  1.00  0.00    -0.056 C  
BRANCH  18  19
HETATM   19  N   UNL     1      -6.409  10.883  67.154  1.00  0.00    -0.067 NA 
HETATM   20  C   UNL     1      -6.447  11.278  68.568  1.00  0.00    -0.051 C  
HETATM   21  C   UNL     1      -7.709  11.227  66.595  1.00  0.00    -0.148 C  
HETATM   22  C   UNL     1      -7.408  12.457  68.629  1.00  0.00    -0.102 C  
HETATM   23  C   UNL     1      -7.951  12.593  67.216  1.00  0.00    -0.166 C  
ENDBRANCH  18  19
ENDBRANCH  17  18
ENDBRANCH  16  17
ENDBRANCH  13  16
ENDBRANCH   8  10
ENDBRANCH   5   8
BRANCH   6  24
HETATM   24  N   UNL     1     -11.819  14.987  69.907  1.00  0.00    -0.303 NA 
HETATM   25  H   UNL     1     -12.026  15.854  70.403  1.00  0.00     0.000 HD 
BRANCH  24  26
HETATM   26  C   UNL     1     -11.083  15.184  68.712  1.00  0.00    -0.267 A  
HETATM   27  C   UNL     1      -9.864  15.863  68.631  1.00  0.00    -0.212 A  
HETATM   28  C   UNL     1     -11.685  14.813  67.495  1.00  0.00    -0.370 A  
HETATM   29  C   UNL     1      -9.269  16.173  67.395  1.00  0.00    -0.213 A  
HETATM   30  C   UNL     1      -9.911  15.854  66.201  1.00  0.00    -0.343 A  
HETATM   31  C   UNL     1     -11.136  15.193  66.257  1.00  0.00    -0.309 A  
BRANCH  31  32
HETATM   32  S   UNL     1     -11.985  14.792  64.750  1.00  0.00    -0.369 S  
HETATM   33  O   UNL     1     -13.189  14.078  65.118  1.00  0.00    -0.768 OA 
HETATM   34  O   UNL     1     -12.053  15.987  63.937  1.00  0.00    -0.880 OA 
BRANCH  32  35
HETATM   35  N   UNL     1     -11.013  13.654  63.984  1.00  0.00    -0.551 N  
HETATM   36  C   UNL     1     -10.081  11.559  63.145  1.00  0.00    -0.395 C  
HETATM   37  C   UNL     1     -11.023  11.626  65.435  1.00  0.00    -0.328 C  
HETATM   38  C   UNL     1     -12.541  11.775  63.421  1.00  0.00    -0.458 C  
HETATM   39  C   UNL     1     -11.194  12.181  64.017  1.00  0.00    -0.390 C  
HETATM   40  H   UNL     1     -10.224  14.010  63.444  1.00  0.00     0.000 HD 
ENDBRANCH  32  35
ENDBRANCH  31  32
ENDBRANCH  24  26
ENDBRANCH   6  24
TORSDOF 10
ENDMDL
MODEL        5
REMARK 921   NORMALIZED FREE ENERGY PREDICTED BY IDOCK:   -7.86 KCAL/MOL
REMARK 922        TOTAL FREE ENERGY PREDICTED BY IDOCK:  -13.81 KCAL/MOL
REMARK 923 INTER-LIGAND FREE ENERGY PREDICTED BY IDOCK:  -12.04 KCAL/MOL
REMARK 924 INTRA-LIGAND FREE ENERGY PREDICTED BY IDOCK:   -1.77 KCAL/MOL
REMARK 927      BINDING AFFINITY PREDICTED BY RF-SCORE:    0.00 PKD
ROOT
HETATM    1  C   UNL     1     -13.769  15.385  72.266  1.00  0.00    -0.629 C  
HETATM    2  C   UNL     1     -13.247  14.088  71.735  1.00  0.00    -0.454 A  
HETATM    3  C   UNL     1     -13.635  12.911  72.351  1.00  0.00    -0.478 A  
HETATM    4  N   UNL     1     -13.237  11.690  71.969  1.00  0.00    -0.457 NA 
HETATM    5  C   UNL     1     -12.386  11.642  70.945  1.00  0.00    -0.336 A  
HETATM    6  C   UNL     1     -12.411  13.952  70.628  1.00  0.00    -0.381 A  
HETATM    7  N   UNL     1     -11.977  12.732  70.265  1.00  0.00    -0.328 NA 
ENDROOT
BRANCH   5   8
HETATM    8  N   UNL     1     -11.934  10.362  70.618  1.00  0.00    -0.321 NA 
HETATM    9  H   UNL     1     -12.536   9.598  70.924  1.00  0.00     0.000 HD 
BRANCH   8  10
HETATM   10  C   UNL     1     -10.776   9.972  69.932  1.00  0.00    -0.286 A  
HETATM   11  C   UNL     1     -10.774   9.790  68.554  1.00  0.00    -0.252 A  
HETATM   12  C   UNL     1      -8.483   9.128  69.984  1.00  0.00    -0.164 A  
HETATM   13  C   UNL     1      -8.521   8.897  68.611  1.00  0.00    -0.128 A  
HETATM   14  C   UNL     1      -9.668   9.265  67.897  1.00  0.00    -0.180 A  
HETATM   15  C   UNL     1      -9.605   9.661  70.641  1.00  0.00    -0.214 A  
BRANCH  13  16
HETATM   16  O   UNL     1      -7.426   8.290  68.036  1.00  0.00    -0.094 OA 
BRANCH  16  17
HETATM   17  C   UNL     1      -6.981   7.160  68.790  1.00  0.00    -0.082 C  
BRANCH  17  18
HETATM   18  C   UNL     1      -7.407   5.807  68.219  1.00  0.00    -0.080 C  
BRANCH  18  19
HETATM   19  N   UNL     1      -8.537   5.290  69.006  1.00  0.00    -0.094 NA 
HETATM   20  C   UNL     1      -9.852   5.753  68.544  1.00  0.00    -0.141 C  
HETATM   21  C   UNL     1      -8.458   5.623  70.422  1.00  0.00    -0.127 C  
HETATM   22  C   UNL     1     -10.760   5.662  69.762  1.00  0.00    -0.401 C  
HETATM   23  C   UNL     1      -9.847   5.236  70.901  1.00  0.00    -0.257 C  
ENDBRANCH  18  19
ENDBRANCH  17  18
ENDBRANCH  16  17
ENDBRANCH  13  16
ENDBRANCH   8  10
ENDBRANCH   5   8
BRANCH   6  24
HETATM   24  N   UNL     1     -11.944  15.117  69.964  1.00  0.00    -0.314 NA 
HETATM   25  H   UNL     1     -12.230  15.985  70.418  1.00  0.00     0.000 HD 
BRANCH  24  26
HETATM   26  C   UNL     1     -11.162  15.322  68.800  1.00  0.00    -0.287 A  
HETATM   27  C   UNL     1      -9.944  16.006  68.769  1.00  0.00    -0.224 A  
HETATM   28  C   UNL     1     -11.714  14.953  67.559  1.00  0.00    -0.328 A  
HETATM   29  C   UNL     1      -9.301  16.323  67.560  1.00  0.00    -0.217 A  
HETATM   30  C   UNL     1      -9.895  16.007  66.339  1.00  0.00    -0.308 A  
HETATM   31  C   UNL     1     -11.119  15.341  66.345  1.00  0.00    -0.273 A  
BRANCH  31  32
HETATM   32  S   UNL     1     -11.906  14.942  64.804  1.00  0.00    -0.339 S  
HETATM   33  O   UNL     1     -13.124  14.227  65.122  1.00  0.00    -0.704 OA 
HETATM   34  O   UNL     1     -11.942  16.138  63.992  1.00  0.00    -0.897 OA 
BRANCH  32  35
HETATM   35  N   UNL     1     -10.903  13.807  64.075  1.00  0.00    -0.509 N  
HETATM   36  C   UNL     1      -9.944  11.715  63.257  1.00  0.00    -0.442 C  
HETATM   37  C   UNL     1     -11.012  11.757  65.491  1.00  0.00    -0.344 C  
HETATM   38  C   UNL     1     -12.414  11.951  63.399  1.00  0.00    -0.582 C  
HETATM   39  C   UNL     1     -11.098  12.335  64.076  1.00  0.00    -0.386 C  
HETATM   40  H   UNL     1     -10.082  14.163  63.586  1.00  0.00     0.000 HD 
ENDBRANCH  32  35
ENDBRANCH  31  32
ENDBRANCH  24  26
ENDBRANCH   6  24
TORSDOF 10
ENDMDL
MODEL        6
REMARK 921   NORMALIZED FREE ENERGY PREDICTED BY IDOCK:   -7.76 KCAL/MOL
REMARK 922        TOTAL FREE ENERGY PREDICTED BY IDOCK:  -13.65 KCAL/MOL
REMARK 923 INTER-LIGAND FREE ENERGY PREDICTED BY IDOCK:  -12.54 KCAL/MOL
REMARK 924 INTRA-LIGAND FREE ENERGY PREDICTED BY IDOCK:   -1.10 KCAL/MOL
REMARK 927      BINDING AFFINITY PREDICTED BY RF-SCORE:    0.00 PKD
ROOT
HETATM    1  C   UNL     1     -12.620  15.777  70.956  1.00  0.00    -0.470 C  
HETATM    2  C   UNL     1     -12.836  14.328  71.256  1.00  0.00    -0.422 A  
HETATM    3  C   UNL     1     -13.676  13.981  72.299  1.00  0.00    -0.548 A  
HETATM    4  N   UNL     1     -13.950  12.721  72.662  1.00  0.00    -0.369 NA 
HETATM    5  C   UNL     1     -13.331  11.762  71.975  1.00  0.00    -0.312 A  
HETATM    6  C   UNL     1     -12.280  13.269  70.540  1.00  0.00    -0.340 A  
HETATM    7  N   UNL     1     -12.520  12.003  70.925  1.00  0.00    -0.347 NA 
ENDROOT
BRANCH   5   8
HETATM    8  N   UNL     1     -13.581  10.464  72.425  1.00  0.00    -0.517 NA 
HETATM    9  H   UNL     1     -14.264  10.389  73.178  1.00  0.00     0.000 HD 
BRANCH   8  10
HETATM   10  C   UNL     1     -13.031   9.249  71.994  1.00  0.00    -0.425 A  
HETATM   11  C   UNL     1     -13.835   8.173  71.638  1.00  0.00    -0.434 A  
HETATM   12  C   UNL     1     -11.081   7.802  71.719  1.00  0.00    -0.287 A  
HETATM   13  C   UNL     1     -11.906   6.720  71.422  1.00  0.00    -0.338 A  
HETATM   14  C   UNL     1     -13.289   6.927  71.352  1.00  0.00    -0.267 A  
HETATM   15  C   UNL     1     -11.641   9.058  72.006  1.00  0.00    -0.413 A  
BRANCH  13  16
HETATM   16  O   UNL     1     -11.309   5.492  71.239  1.00  0.00    -0.097 OA 
BRANCH  16  17
HETATM   17  C   UNL     1     -10.501   5.459  70.060  1.00  0.00    -0.303 C  
BRANCH  17  18
HETATM   18  C   UNL     1      -9.304   4.512  70.137  1.00  0.00    -0.147 C  
BRANCH  18  19
HETATM   19  N   UNL     1      -8.127   5.262  70.602  1.00  0.00    -0.105 NA 
HETATM   20  C   UNL     1      -8.111   5.515  72.049  1.00  0.00    -0.115 C  
HETATM   21  C   UNL     1      -7.975   6.559  69.956  1.00  0.00    -0.116 C  
HETATM   22  C   UNL     1      -7.245   6.754  72.230  1.00  0.00    -0.086 C  
HETATM   23  C   UNL     1      -6.900   7.200  70.818  1.00  0.00    -0.053 C  
ENDBRANCH  18  19
ENDBRANCH  17  18
ENDBRANCH  16  17
ENDBRANCH  13  16
ENDBRANCH   8  10
ENDBRANCH   5   8
BRANCH   6  24
HETATM   24  N   UNL     1     -11.381  13.547  69.476  1.00  0.00    -0.417 NA 
HETATM   25  H   UNL     1     -10.403  13.562  69.765  1.00  0.00     0.000 HD 
BRANCH  24  26
HETATM   26  C   UNL     1     -11.564  13.807  68.095  1.00  0.00    -0.335 A  
HETATM   27  C   UNL     1     -12.018  12.871  67.162  1.00  0.00    -0.374 A  
HETATM   28  C   UNL     1     -11.114  15.041  67.589  1.00  0.00    -0.317 A  
HETATM   29  C   UNL     1     -12.017  13.139  65.781  1.00  0.00    -0.473 A  
HETATM   30  C   UNL     1     -11.507  14.341  65.295  1.00  0.00    -0.344 A  
HETATM   31  C   UNL     1     -11.032  15.282  66.205  1.00  0.00    -0.300 A  
BRANCH  31  32
HETATM   32  S   UNL     1     -10.359  16.814  65.611  1.00  0.00    -0.186 S  
HETATM   33  O   UNL     1      -8.938  16.610  65.425  1.00  0.00    -0.207 OA 
HETATM   34  O   UNL     1     -11.188  17.278  64.520  1.00  0.00    -1.083 OA 
BRANCH  32  35
HETATM   35  N   UNL     1     -10.488  17.884  66.901  1.00  0.00    -0.351 N  
HETATM   36  C   UNL     1     -10.253  19.827  68.361  1.00  0.00    -0.568 C  
HETATM   37  C   UNL     1      -8.282  19.033  67.088  1.00  0.00    -0.286 C  
HETATM   38  C   UNL     1     -10.214  20.142  65.896  1.00  0.00    -0.452 C  
HETATM   39  C   UNL     1      -9.804  19.196  67.024  1.00  0.00    -0.336 C  
HETATM   40  H   UNL     1     -11.094  17.606  67.673  1.00  0.00     0.000 HD 
ENDBRANCH  32  35
ENDBRANCH  31  32
ENDBRANCH  24  26
ENDBRANCH   6  24
TORSDOF 10
ENDMDL
MODEL        7
REMARK 921   NORMALIZED FREE ENERGY PREDICTED BY IDOCK:   -7.73 KCAL/MOL
REMARK 922        TOTAL FREE ENERGY PREDICTED BY IDOCK:  -13.60 KCAL/MOL
REMARK 923 INTER-LIGAND FREE ENERGY PREDICTED BY IDOCK:  -11.38 KCAL/MOL
REMARK 924 INTRA-LIGAND FREE ENERGY PREDICTED BY IDOCK:   -2.22 KCAL/MOL
REMARK 927      BINDING AFFINITY PREDICTED BY RF-SCORE:    0.00 PKD
ROOT
HETATM    1  C   UNL     1      -8.354  16.531  66.214  1.00  0.00    -0.364 C  
HETATM    2  C   UNL     1      -9.499  16.226  67.126  1.00  0.00    -0.231 A  
HETATM    3  C   UNL     1      -9.380  16.529  68.471  1.00  0.00    -0.229 A  
HETATM    4  N   UNL     1     -10.334  16.306  69.384  1.00  0.00    -0.262 NA 
HETATM    5  C   UNL     1     -11.448  15.722  68.942  1.00  0.00    -0.378 A  
HETATM    6  C   UNL     1     -10.719  15.681  66.728  1.00  0.00    -0.300 A  
HETATM    7  N   UNL     1     -11.665  15.418  67.647  1.00  0.00    -0.209 NA 
ENDROOT
BRANCH   5   8
HETATM    8  N   UNL     1     -12.392  15.437  69.931  1.00  0.00    -0.523 NA 
HETATM    9  H   UNL     1     -12.920  16.240  70.271  1.00  0.00     0.000 HD 
BRANCH   8  10
HETATM   10  C   UNL     1     -12.721  14.211  70.524  1.00  0.00    -0.309 A  
HETATM   11  C   UNL     1     -13.596  14.135  71.600  1.00  0.00    -0.446 A  
HETATM   12  C   UNL     1     -12.297  11.817  70.780  1.00  0.00    -0.433 A  
HETATM   13  C   UNL     1     -13.132  11.774  71.893  1.00  0.00    -0.376 A  
HETATM   14  C   UNL     1     -13.806  12.939  72.276  1.00  0.00    -0.464 A  
HETATM   15  C   UNL     1     -12.091  13.030  70.100  1.00  0.00    -0.377 A  
BRANCH  13  16
HETATM   16  O   UNL     1     -13.227  10.579  72.574  1.00  0.00    -0.136 OA 
BRANCH  16  17
HETATM   17  C   UNL     1     -12.982   9.457  71.724  1.00  0.00    -0.402 C  
BRANCH  17  18
HETATM   18  C   UNL     1     -12.711   8.146  72.465  1.00  0.00    -0.118 C  
BRANCH  18  19
HETATM   19  N   UNL     1     -11.406   7.616  72.040  1.00  0.00    -0.265 NA 
HETATM   20  C   UNL     1     -10.345   8.628  71.957  1.00  0.00    -0.346 C  
HETATM   21  C   UNL     1     -11.445   6.954  70.742  1.00  0.00    -0.335 C  
HETATM   22  C   UNL     1      -9.338   8.073  70.960  1.00  0.00    -0.170 C  
HETATM   23  C   UNL     1      -9.965   6.787  70.445  1.00  0.00    -0.193 C  
ENDBRANCH  18  19
ENDBRANCH  17  18
ENDBRANCH  16  17
ENDBRANCH  13  16
ENDBRANCH   8  10
ENDBRANCH   5   8
BRANCH   6  24
HETATM   24  N   UNL     1     -10.904  15.314  65.369  1.00  0.00    -0.363 NA 
HETATM   25  H   UNL     1     -10.961  16.112  64.737  1.00  0.00     0.000 HD 
BRANCH  24  26
HETATM   26  C   UNL     1     -11.027  14.065  64.710  1.00  0.00    -0.402 A  
HETATM   27  C   UNL     1     -12.139  13.663  63.966  1.00  0.00    -0.474 A  
HETATM   28  C   UNL     1     -10.035  13.094  64.944  1.00  0.00    -0.152 A  
HETATM   29  C   UNL     1     -12.272  12.350  63.480  1.00  0.00    -0.661 A  
HETATM   30  C   UNL     1     -11.311  11.386  63.776  1.00  0.00    -0.310 A  
HETATM   31  C   UNL     1     -10.202  11.759  64.533  1.00  0.00    -0.284 A  
BRANCH  31  32
HETATM   32  S   UNL     1      -8.972  10.545  64.940  1.00  0.00    -0.208 S  
HETATM   33  O   UNL     1      -8.347  10.141  63.697  1.00  0.00    -0.155 OA 
HETATM   34  O   UNL     1      -8.177  11.057  66.034  1.00  0.00    -0.164 OA 
BRANCH  32  35
HETATM   35  N   UNL     1      -9.833   9.199  65.460  1.00  0.00    -0.452 N  
HETATM   36  C   UNL     1     -10.833   7.453  66.844  1.00  0.00    -0.223 C  
HETATM   37  C   UNL     1      -8.528   8.210  67.341  1.00  0.00    -0.126 C  
HETATM   38  C   UNL     1     -10.498   9.723  67.798  1.00  0.00    -0.297 C  
HETATM   39  C   UNL     1      -9.900   8.684  66.851  1.00  0.00    -0.238 C  
HETATM   40  H   UNL     1     -10.360   8.687  64.753  1.00  0.00     0.000 HD 
ENDBRANCH  32  35
ENDBRANCH  31  32
ENDBRANCH  24  26
ENDBRANCH   6  24
TORSDOF 10
ENDMDL
MODEL        8
REMARK 921   NORMALIZED FREE ENERGY PREDICTED BY IDOCK:   -7.68 KCAL/MOL
REMARK 922        TOTAL FREE ENERGY PREDICTED BY IDOCK:  -13.52 KCAL/MOL
REMARK 923 INTER-LIGAND FREE ENERGY PREDICTED BY IDOCK:  -11.61 KCAL/MOL
REMARK 924 INTRA-LIGAND FREE ENERGY PREDICTED BY IDOCK:   -1.91 KCAL/MOL
REMARK 927      BINDING AFFINITY PREDICTED BY RF-SCORE:    0.00 PKD
ROOT
HETATM    1  C   UNL     1     -12.657  14.831  73.380  1.00  0.00    -0.556 C  
HETATM    2  C   UNL     1     -12.457  14.767  71.899  1.00  0.00    -0.410 A  
HETATM    3  C   UNL     1     -11.953  15.877  71.246  1.00  0.00    -0.442 A  
HETATM    4  N   UNL     1     -11.728  15.942  69.927  1.00  0.00    -0.336 NA 
HETATM    5  C   UNL     1     -12.052  14.859  69.221  1.00  0.00    -0.251 A  
HETATM    6  C   UNL     1     -12.707  13.650  71.104  1.00  0.00    -0.353 A  
HETATM    7  N   UNL     1     -12.521  13.722  69.774  1.00  0.00    -0.241 NA 
ENDROOT
BRANCH   5   8
HETATM    8  N   UNL     1     -11.875  14.984  67.841  1.00  0.00    -0.471 NA 
HETATM    9  H   UNL     1     -11.867  15.941  67.489  1.00  0.00     0.000 HD 
BRANCH   8  10
HETATM   10  C   UNL     1     -11.704  13.989  66.869  1.00  0.00    -0.410 A  
HETATM   11  C   UNL     1     -10.512  13.285  66.751  1.00  0.00    -0.270 A  
HETATM   12  C   UNL     1     -12.499  12.859  64.853  1.00  0.00    -0.540 A  
HETATM   13  C   UNL     1     -11.276  12.207  64.718  1.00  0.00    -0.323 A  
HETATM   14  C   UNL     1     -10.296  12.404  65.698  1.00  0.00    -0.284 A  
HETATM   15  C   UNL     1     -12.711  13.747  65.922  1.00  0.00    -0.452 A  
BRANCH  13  16
HETATM   16  O   UNL     1     -11.092  11.419  63.603  1.00  0.00    -0.399 OA 
BRANCH  16  17
HETATM   17  C   UNL     1      -9.712  11.303  63.250  1.00  0.00    -0.382 C  
BRANCH  17  18
HETATM   18  C   UNL     1      -9.281   9.899  62.826  1.00  0.00    -0.268 C  
BRANCH  18  19
HETATM   19  N   UNL     1      -8.339   9.365  63.822  1.00  0.00    -0.171 NA 
HETATM   20  C   UNL     1      -8.942   9.094  65.134  1.00  0.00    -0.189 C  
HETATM   21  C   UNL     1      -7.198  10.238  64.067  1.00  0.00    -0.057 C  
HETATM   22  C   UNL     1      -7.793   9.172  66.128  1.00  0.00    -0.103 C  
HETATM   23  C   UNL     1      -6.589   9.598  65.303  1.00  0.00    -0.087 C  
ENDBRANCH  18  19
ENDBRANCH  17  18
ENDBRANCH  16  17
ENDBRANCH  13  16
ENDBRANCH   8  10
ENDBRANCH   5   8
BRANCH   6  24
HETATM   24  N   UNL     1     -13.256  12.483  71.698  1.00  0.00    -0.365 NA 
HETATM   25  H   UNL     1     -13.993  12.681  72.375  1.00  0.00     0.000 HD 
BRANCH  24  26
HETATM   26  C   UNL     1     -12.991  11.099  71.543  1.00  0.00    -0.437 A  
HETATM   27  C   UNL     1     -13.635  10.081  72.252  1.00  0.00    -0.282 A  
HETATM   28  C   UNL     1     -11.899  10.720  70.740  1.00  0.00    -0.443 A  
HETATM   29  C   UNL     1     -13.211   8.743  72.178  1.00  0.00    -0.456 A  
HETATM   30  C   UNL     1     -12.088   8.397  71.428  1.00  0.00    -0.337 A  
HETATM   31  C   UNL     1     -11.419   9.398  70.728  1.00  0.00    -0.300 A  
BRANCH  31  32
HETATM   32  S   UNL     1      -9.975   8.988  69.780  1.00  0.00    -0.206 S  
HETATM   33  O   UNL     1      -9.482  10.221  69.203  1.00  0.00    -0.193 OA 
HETATM   34  O   UNL     1      -9.116   8.161  70.599  1.00  0.00    -0.145 OA 
BRANCH  32  35
HETATM   35  N   UNL     1     -10.540   8.086  68.480  1.00  0.00    -0.368 N  
HETATM   36  C   UNL     1     -11.025   6.257  66.935  1.00  0.00    -0.404 C  
HETATM   37  C   UNL     1      -8.783   6.388  67.980  1.00  0.00    -0.115 C  
HETATM   38  C   UNL     1     -10.807   5.777  69.363  1.00  0.00    -0.393 C  
HETATM   39  C   UNL     1     -10.272   6.648  68.227  1.00  0.00    -0.171 C  
HETATM   40  H   UNL     1     -11.124   8.573  67.799  1.00  0.00     0.000 HD 
ENDBRANCH  32  35
ENDBRANCH  31  32
ENDBRANCH  24  26
ENDBRANCH   6  24
TORSDOF 10
ENDMDL
MODEL        9
REMARK 921   NORMALIZED FREE ENERGY PREDICTED BY IDOCK:   -7.67 KCAL/MOL
REMARK 922        TOTAL FREE ENERGY PREDICTED BY IDOCK:  -13.50 KCAL/MOL
REMARK 923 INTER-LIGAND FREE ENERGY PREDICTED BY IDOCK:  -12.12 KCAL/MOL
REMARK 924 INTRA-LIGAND FREE ENERGY PREDICTED BY IDOCK:   -1.38 KCAL/MOL
REMARK 927      BINDING AFFINITY PREDICTED BY RF-SCORE:    0.00 PKD
ROOT
HETATM    1  C   UNL     1     -10.790   5.734  70.532  1.00  0.00    -0.348 C  
HETATM    2  C   UNL     1     -11.319   7.063  70.968  1.00  0.00    -0.325 A  
HETATM    3  C   UNL     1     -12.631   7.149  71.399  1.00  0.00    -0.394 A  
HETATM    4  N   UNL     1     -13.218   8.278  71.815  1.00  0.00    -0.341 NA 
HETATM    5  C   UNL     1     -12.471   9.382  71.768  1.00  0.00    -0.391 A  
HETATM    6  C   UNL     1     -10.581   8.245  71.013  1.00  0.00    -0.204 A  
HETATM    7  N   UNL     1     -11.177   9.390  71.392  1.00  0.00    -0.358 NA 
ENDROOT
BRANCH   5   8
HETATM    8  N   UNL     1     -13.134  10.554  72.139  1.00  0.00    -0.546 NA 
HETATM    9  H   UNL     1     -13.801  10.453  72.904  1.00  0.00     0.000 HD 
BRANCH   8  10
HETATM   10  C   UNL     1     -13.017  11.849  71.615  1.00  0.00    -0.342 A  
HETATM   11  C   UNL     1     -12.239  12.112  70.495  1.00  0.00    -0.392 A  
HETATM   12  C   UNL     1     -13.383  14.254  71.850  1.00  0.00    -0.470 A  
HETATM   13  C   UNL     1     -12.552  14.501  70.760  1.00  0.00    -0.351 A  
HETATM   14  C   UNL     1     -12.008  13.414  70.066  1.00  0.00    -0.407 A  
HETATM   15  C   UNL     1     -13.612  12.934  72.276  1.00  0.00    -0.611 A  
BRANCH  13  16
HETATM   16  O   UNL     1     -12.291  15.817  70.443  1.00  0.00    -0.398 OA 
BRANCH  16  17
HETATM   17  C   UNL     1     -11.533  15.937  69.236  1.00  0.00    -0.374 C  
BRANCH  17  18
HETATM   18  C   UNL     1     -10.378  16.936  69.309  1.00  0.00    -0.298 C  
BRANCH  18  19
HETATM   19  N   UNL     1     -10.606  18.006  68.325  1.00  0.00    -0.334 NA 
HETATM   20  C   UNL     1     -10.081  17.711  66.986  1.00  0.00    -0.330 C  
HETATM   21  C   UNL     1     -10.034  19.286  68.719  1.00  0.00    -0.440 C  
HETATM   22  C   UNL     1      -9.842  19.069  66.341  1.00  0.00    -0.422 C  
HETATM   23  C   UNL     1     -10.159  20.081  67.430  1.00  0.00    -0.568 C  
ENDBRANCH  18  19
ENDBRANCH  17  18
ENDBRANCH  16  17
ENDBRANCH  13  16
ENDBRANCH   8  10
ENDBRANCH   5   8
BRANCH   6  24
HETATM   24  N   UNL     1      -9.237   8.242  70.556  1.00  0.00    -0.149 NA 
HETATM   25  H   UNL     1      -8.709   7.422  70.854  1.00  0.00     0.000 HD 
BRANCH  24  26
HETATM   26  C   UNL     1      -8.479   9.144  69.769  1.00  0.00    -0.139 A  
HETATM   27  C   UNL     1      -7.489   9.997  70.267  1.00  0.00    -0.143 A  
HETATM   28  C   UNL     1      -8.844   9.316  68.421  1.00  0.00    -0.129 A  
HETATM   29  C   UNL     1      -6.892  10.987  69.467  1.00  0.00    -0.133 A  
HETATM   30  C   UNL     1      -7.313  11.184  68.154  1.00  0.00    -0.087 A  
HETATM   31  C   UNL     1      -8.311  10.358  67.641  1.00  0.00    -0.114 A  
BRANCH  31  32
HETATM   32  S   UNL     1      -8.880  10.601  65.977  1.00  0.00    -0.181 S  
HETATM   33  O   UNL     1      -7.763  10.314  65.101  1.00  0.00    -0.139 OA 
HETATM   34  O   UNL     1     -10.137   9.904  65.822  1.00  0.00    -0.284 OA 
BRANCH  32  35
HETATM   35  N   UNL     1      -9.140  12.255  65.834  1.00  0.00    -0.435 N  
HETATM   36  C   UNL     1     -10.177  14.439  65.492  1.00  0.00    -0.386 C  
HETATM   37  C   UNL     1     -10.843  12.549  64.036  1.00  0.00    -0.446 C  
HETATM   38  C   UNL     1     -11.520  12.591  66.469  1.00  0.00    -0.418 C  
HETATM   39  C   UNL     1     -10.417  12.913  65.462  1.00  0.00    -0.289 C  
HETATM   40  H   UNL     1      -8.345  12.865  66.021  1.00  0.00     0.000 HD 
ENDBRANCH  32  35
ENDBRANCH  31  32
ENDBRANCH  24  26
ENDBRANCH   6  24
TORSDOF 10
ENDMDL
MODEL       10
REMARK 921   NORMALIZED FREE ENERGY PREDICTED BY IDOCK:   -7.56 KCAL/MOL
REMARK 922        TOTAL FREE ENERGY PREDICTED BY IDOCK:  -13.32 KCAL/MOL
REMARK 923 INTER-LIGAND FREE ENERGY PREDICTED BY IDOCK:  -11.53 KCAL/MOL
REMARK 924 INTRA-LIGAND FREE ENERGY PREDICTED BY IDOCK:   -1.79 KCAL/MOL
REMARK 927      BINDING AFFINITY PREDICTED BY RF-SCORE:    0.00 PKD
ROOT
HETATM    1  C   UNL     1     -12.046  13.746  64.424  1.00  0.00    -0.474 C  
HETATM    2  C   UNL     1     -11.403  12.467  64.856  1.00  0.00    -0.361 A  
HETATM    3  C   UNL     1     -10.786  11.676  63.902  1.00  0.00    -0.405 A  
HETATM    4  N   UNL     1     -10.176  10.513  64.163  1.00  0.00    -0.303 NA 
HETATM    5  C   UNL     1     -10.209  10.102  65.431  1.00  0.00    -0.211 A  
HETATM    6  C   UNL     1     -11.336  12.005  66.169  1.00  0.00    -0.351 A  
HETATM    7  N   UNL     1     -10.759  10.818  66.432  1.00  0.00    -0.205 NA 
ENDROOT
BRANCH   5   8
HETATM    8  N   UNL     1      -9.628   8.852  65.657  1.00  0.00    -0.453 NA 
HETATM    9  H   UNL     1      -9.022   8.513  64.910  1.00  0.00     0.000 HD 
BRANCH   8  10
HETATM   10  C   UNL     1      -9.755   7.996  66.759  1.00  0.00    -0.237 A  
HETATM   11  C   UNL     1     -10.862   7.171  66.915  1.00  0.00    -0.307 A  
HETATM   12  C   UNL     1      -8.990   7.282  68.968  1.00  0.00    -0.134 A  
HETATM   13  C   UNL     1     -10.136   6.507  69.131  1.00  0.00    -0.168 A  
HETATM   14  C   UNL     1     -11.054   6.433  68.077  1.00  0.00    -0.365 A  
HETATM   15  C   UNL     1      -8.803   8.024  67.790  1.00  0.00    -0.126 A  
BRANCH  13  16
HETATM   16  O   UNL     1     -10.311   5.873  70.342  1.00  0.00    -0.201 OA 
BRANCH  16  17
HETATM   17  C   UNL     1     -11.307   6.513  71.143  1.00  0.00    -0.314 C  
BRANCH  17  18
HETATM   18  C   UNL     1     -10.752   7.454  72.213  1.00  0.00    -0.235 C  
BRANCH  18  19
HETATM   19  N   UNL     1     -11.481   8.730  72.153  1.00  0.00    -0.364 NA 
HETATM   20  C   UNL     1     -12.931   8.585  71.966  1.00  0.00    -0.371 C  
HETATM   21  C   UNL     1     -11.015   9.614  71.093  1.00  0.00    -0.360 C  
HETATM   22  C   UNL     1     -13.384   9.888  71.323  1.00  0.00    -0.419 C  
HETATM   23  C   UNL     1     -12.104  10.674  71.084  1.00  0.00    -0.445 C  
ENDBRANCH  18  19
ENDBRANCH  17  18
ENDBRANCH  16  17
ENDBRANCH  13  16
ENDBRANCH   8  10
ENDBRANCH   5   8
BRANCH   6  24
HETATM   24  N   UNL     1     -11.974  12.746  67.198  1.00  0.00    -0.430 NA 
HETATM   25  H   UNL     1     -12.988  12.633  67.211  1.00  0.00     0.000 HD 
BRANCH  24  26
HETATM   26  C   UNL     1     -11.491  13.610  68.213  1.00  0.00    -0.313 A  
HETATM   27  C   UNL     1     -12.133  13.842  69.433  1.00  0.00    -0.384 A  
HETATM   28  C   UNL     1     -10.373  14.413  67.921  1.00  0.00    -0.232 A  
HETATM   29  C   UNL     1     -11.694  14.837  70.324  1.00  0.00    -0.351 A  
HETATM   30  C   UNL     1     -10.625  15.665  69.989  1.00  0.00    -0.342 A  
HETATM   31  C   UNL     1      -9.981  15.464  68.770  1.00  0.00    -0.208 A  
BRANCH  31  32
HETATM   32  S   UNL     1      -8.628  16.518  68.310  1.00  0.00    -0.208 S  
HETATM   33  O   UNL     1      -7.644  16.431  69.369  1.00  0.00    -0.229 OA 
HETATM   34  O   UNL     1      -8.269  16.222  66.941  1.00  0.00    -0.180 OA 
BRANCH  32  35
HETATM   35  N   UNL     1      -9.236  18.083  68.398  1.00  0.00    -0.288 N  
HETATM   36  C   UNL     1     -10.066  20.306  67.823  1.00  0.00    -0.505 C  
HETATM   37  C   UNL     1      -8.170  19.360  66.541  1.00  0.00    -0.326 C  
HETATM   38  C   UNL     1     -10.495  18.407  66.279  1.00  0.00    -0.421 C  
HETATM   39  C   UNL     1      -9.476  18.997  67.254  1.00  0.00    -0.308 C  
HETATM   40  H   UNL     1      -9.461  18.438  69.327  1.00  0.00     0.000 HD 
ENDBRANCH  32  35
ENDBRANCH  31  32
ENDBRANCH  24  26
ENDBRANCH   6  24
TORSDOF 10
ENDMDL
MODEL       11
REMARK 921   NORMALIZED FREE ENERGY PREDICTED BY IDOCK:   -7.50 KCAL/MOL
REMARK 922        TOTAL FREE ENERGY PREDICTED BY IDOCK:  -13.24 KCAL/MOL
REMARK 923 INTER-LIGAND FREE ENERGY PREDICTED BY IDOCK:  -11.69 KCAL/MOL
REMARK 924 INTRA-LIGAND FREE ENERGY PREDICTED BY IDOCK:   -1.55 KCAL/MOL
REMARK 927      BINDING AFFINITY PREDICTED BY RF-SCORE:    0.00 PKD
ROOT
HETATM    1  C   UNL     1     -13.104  15.806  72.373  1.00  0.00    -0.544 C  
HETATM    2  C   UNL     1     -12.960  14.444  71.772  1.00  0.00    -0.419 A  
HETATM    3  C   UNL     1     -13.502  13.360  72.440  1.00  0.00    -0.584 A  
HETATM    4  N   UNL     1     -13.441  12.095  72.004  1.00  0.00    -0.406 NA 
HETATM    5  C   UNL     1     -12.778  11.897  70.864  1.00  0.00    -0.209 A  
HETATM    6  C   UNL     1     -12.343  14.166  70.553  1.00  0.00    -0.364 A  
HETATM    7  N   UNL     1     -12.243  12.893  70.131  1.00  0.00    -0.303 NA 
ENDROOT
BRANCH   5   8
HETATM    8  N   UNL     1     -12.669  10.560  70.475  1.00  0.00    -0.420 NA 
HETATM    9  H   UNL     1     -13.480  10.182  69.986  1.00  0.00     0.000 HD 
BRANCH   8  10
HETATM   10  C   UNL     1     -11.609   9.661  70.657  1.00  0.00    -0.299 A  
HETATM   11  C   UNL     1     -10.314   9.976  70.266  1.00  0.00    -0.301 A  
HETATM   12  C   UNL     1     -10.830   7.410  71.204  1.00  0.00    -0.258 A  
HETATM   13  C   UNL     1      -9.551   7.727  70.753  1.00  0.00    -0.165 A  
HETATM   14  C   UNL     1      -9.295   9.031  70.314  1.00  0.00    -0.227 A  
HETATM   15  C   UNL     1     -11.854   8.371  71.154  1.00  0.00    -0.314 A  
BRANCH  13  16
HETATM   16  O   UNL     1      -8.611   6.720  70.740  1.00  0.00    -0.138 OA 
BRANCH  16  17
HETATM   17  C   UNL     1      -7.643   6.902  69.704  1.00  0.00    -0.101 C  
BRANCH  17  18
HETATM   18  C   UNL     1      -7.912   6.093  68.435  1.00  0.00    -0.108 C  
BRANCH  18  19
HETATM   19  N   UNL     1      -7.719   6.961  67.263  1.00  0.00    -0.107 NA 
HETATM   20  C   UNL     1      -7.097   8.255  67.571  1.00  0.00    -0.083 C  
HETATM   21  C   UNL     1      -8.956   7.258  66.552  1.00  0.00    -0.152 C  
HETATM   22  C   UNL     1      -7.543   9.190  66.456  1.00  0.00    -0.093 C  
HETATM   23  C   UNL     1      -8.506   8.367  65.615  1.00  0.00    -0.179 C  
ENDBRANCH  18  19
ENDBRANCH  17  18
ENDBRANCH  16  17
ENDBRANCH  13  16
ENDBRANCH   8  10
ENDBRANCH   5   8
BRANCH   6  24
HETATM   24  N   UNL     1     -11.734  15.223  69.827  1.00  0.00    -0.300 NA 
HETATM   25  H   UNL     1     -11.858  16.138  70.261  1.00  0.00     0.000 HD 
BRANCH  24  26
HETATM   26  C   UNL     1     -10.990  15.268  68.622  1.00  0.00    -0.257 A  
HETATM   27  C   UNL     1      -9.711  15.820  68.496  1.00  0.00    -0.206 A  
HETATM   28  C   UNL     1     -11.631  14.875  67.432  1.00  0.00    -0.347 A  
HETATM   29  C   UNL     1      -9.096  15.987  67.243  1.00  0.00    -0.217 A  
HETATM   30  C   UNL     1      -9.773  15.653  66.072  1.00  0.00    -0.378 A  
HETATM   31  C   UNL     1     -11.056  15.118  66.171  1.00  0.00    -0.311 A  
BRANCH  31  32
HETATM   32  S   UNL     1     -11.948  14.700  64.695  1.00  0.00    -0.436 S  
HETATM   33  O   UNL     1     -13.120  13.954  65.103  1.00  0.00    -0.773 OA 
HETATM   34  O   UNL     1     -12.076  15.895  63.890  1.00  0.00    -0.768 OA 
BRANCH  32  35
HETATM   35  N   UNL     1     -10.976  13.590  63.889  1.00  0.00    -0.524 N  
HETATM   36  C   UNL     1     -10.016  11.522  63.015  1.00  0.00    -0.352 C  
HETATM   37  C   UNL     1     -10.857  11.569  65.345  1.00  0.00    -0.318 C  
HETATM   38  C   UNL     1     -12.467  11.661  63.400  1.00  0.00    -0.326 C  
HETATM   39  C   UNL     1     -11.108  12.113  63.935  1.00  0.00    -0.404 C  
HETATM   40  H   UNL     1     -10.223  13.968  63.314  1.00  0.00     0.000 HD 
ENDBRANCH  32  35
ENDBRANCH  31  32
ENDBRANCH  24  26
ENDBRANCH   6  24
TORSDOF 10
ENDMDL
MODEL       12
REMARK 921   NORMALIZED FREE ENERGY PREDICTED BY IDOCK:   -7.47 KCAL/MOL
REMARK 922        TOTAL FREE ENERGY PREDICTED BY IDOCK:  -13.19 KCAL/MOL
REMARK 923 INTER-LIGAND FREE ENERGY PREDICTED BY IDOCK:  -11.74 KCAL/MOL
REMARK 924 INTRA-LIGAND FREE ENERGY PREDICTED BY IDOCK:   -1.44 KCAL/MOL
REMARK 927      BINDING AFFINITY PREDICTED BY RF-SCORE:    0.00 PKD
ROOT
HETATM    1  C   UNL     1     -13.687  15.456  72.091  1.00  0.00    -0.618 C  
HETATM    2  C   UNL     1     -13.279  14.102  71.605  1.00  0.00    -0.426 A  
HETATM    3  C   UNL     1     -13.585  12.996  72.379  1.00  0.00    -0.529 A  
HETATM    4  N   UNL     1     -13.275  11.735  72.051  1.00  0.00    -0.464 NA 
HETATM    5  C   UNL     1     -12.599  11.570  70.914  1.00  0.00    -0.341 A  
HETATM    6  C   UNL     1     -12.633  13.843  70.397  1.00  0.00    -0.282 A  
HETATM    7  N   UNL     1     -12.284  12.583  70.082  1.00  0.00    -0.276 NA 
ENDROOT
BRANCH   5   8
HETATM    8  N   UNL     1     -12.228  10.252  70.638  1.00  0.00    -0.310 NA 
HETATM    9  H   UNL     1     -12.540   9.893  69.736  1.00  0.00     0.000 HD 
BRANCH   8  10
HETATM   10  C   UNL     1     -11.490   9.351  71.417  1.00  0.00    -0.379 A  
HETATM   11  C   UNL     1     -10.102   9.393  71.458  1.00  0.00    -0.183 A  
HETATM   12  C   UNL     1     -11.407   7.316  72.768  1.00  0.00    -0.318 A  
HETATM   13  C   UNL     1     -10.015   7.342  72.748  1.00  0.00    -0.215 A  
HETATM   14  C   UNL     1      -9.370   8.411  72.114  1.00  0.00    -0.339 A  
HETATM   15  C   UNL     1     -12.140   8.314  72.104  1.00  0.00    -0.425 A  
BRANCH  13  16
HETATM   16  O   UNL     1      -9.348   6.291  73.338  1.00  0.00    -0.131 OA 
BRANCH  16  17
HETATM   17  C   UNL     1      -9.374   5.115  72.525  1.00  0.00    -0.135 C  
BRANCH  17  18
HETATM   18  C   UNL     1      -8.164   4.953  71.604  1.00  0.00    -0.114 C  
BRANCH  18  19
HETATM   19  N   UNL     1      -8.608   5.068  70.206  1.00  0.00    -0.101 NA 
HETATM   20  C   UNL     1      -8.093   6.254  69.509  1.00  0.00    -0.117 C  
HETATM   21  C   UNL     1     -10.057   5.102  70.059  1.00  0.00    -0.275 C  
HETATM   22  C   UNL     1      -9.093   6.530  68.395  1.00  0.00    -0.123 C  
HETATM   23  C   UNL     1     -10.203   5.512  68.603  1.00  0.00    -0.261 C  
ENDBRANCH  18  19
ENDBRANCH  17  18
ENDBRANCH  16  17
ENDBRANCH  13  16
ENDBRANCH   8  10
ENDBRANCH   5   8
BRANCH   6  24
HETATM   24  N   UNL     1     -12.258  14.931  69.564  1.00  0.00    -0.498 NA 
HETATM   25  H   UNL     1     -12.467  15.843  69.970  1.00  0.00     0.000 HD 
BRANCH  24  26
HETATM   26  C   UNL     1     -11.652  15.008  68.286  1.00  0.00    -0.334 A  
HETATM   27  C   UNL     1     -11.008  16.141  67.777  1.00  0.00    -0.293 A  
HETATM   28  C   UNL     1     -11.839  13.933  67.398  1.00  0.00    -0.437 A  
HETATM   29  C   UNL     1     -10.577  16.212  66.441  1.00  0.00    -0.269 A  
HETATM   30  C   UNL     1     -10.829  15.162  65.560  1.00  0.00    -0.373 A  
HETATM   31  C   UNL     1     -11.486  14.030  66.039  1.00  0.00    -0.338 A  
BRANCH  31  32
HETATM   32  S   UNL     1     -11.837  12.687  64.933  1.00  0.00    -0.410 S  
HETATM   33  O   UNL     1     -13.277  12.612  64.800  1.00  0.00    -0.846 OA 
HETATM   34  O   UNL     1     -10.993  12.829  63.767  1.00  0.00    -0.409 OA 
BRANCH  32  35
HETATM   35  N   UNL     1     -11.397  11.297  65.771  1.00  0.00    -0.021 N  
HETATM   36  C   UNL     1     -10.123   9.444  66.723  1.00  0.00    -0.325 C  
HETATM   37  C   UNL     1      -9.629  10.182  64.411  1.00  0.00    -0.366 C  
HETATM   38  C   UNL     1      -9.010  11.638  66.379  1.00  0.00    -0.198 C  
HETATM   39  C   UNL     1     -10.048  10.679  65.798  1.00  0.00    -0.266 C  
HETATM   40  H   UNL     1     -12.127  10.835  66.313  1.00  0.00     0.000 HD 
ENDBRANCH  32  35
ENDBRANCH  31  32
ENDBRANCH  24  26
ENDBRANCH   6  24
TORSDOF 10
ENDMDL
MODEL       13
REMARK 921   NORMALIZED FREE ENERGY PREDICTED BY IDOCK:   -7.45 KCAL/MOL
REMARK 922        TOTAL FREE ENERGY PREDICTED BY IDOCK:  -13.15 KCAL/MOL
REMARK 923 INTER-LIGAND FREE ENERGY PREDICTED BY IDOCK:  -11.86 KCAL/MOL
REMARK 924 INTRA-LIGAND FREE ENERGY PREDICTED BY IDOCK:   -1.29 KCAL/MOL
REMARK 927      BINDING AFFINITY PREDICTED BY RF-SCORE:    0.00 PKD
ROOT
HETATM    1  C   UNL     1     -10.373   5.205  71.284  1.00  0.00    -0.276 C  
HETATM    2  C   UNL     1     -11.074   6.525  71.329  1.00  0.00    -0.321 A  
HETATM    3  C   UNL     1     -11.238   7.151  72.553  1.00  0.00    -0.290 A  
HETATM    4  N   UNL     1     -11.845   8.332  72.722  1.00  0.00    -0.325 NA 
HETATM    5  C   UNL     1     -12.342   8.902  71.624  1.00  0.00    -0.343 A  
HETATM    6  C   UNL     1     -11.558   7.215  70.219  1.00  0.00    -0.217 A  
HETATM    7  N   UNL     1     -12.204   8.382  70.388  1.00  0.00     0.239 NA 
ENDROOT
BRANCH   5   8
HETATM    8  N   UNL     1     -13.032  10.096  71.844  1.00  0.00    -0.441 NA 
HETATM    9  H   UNL     1     -13.872  10.013  72.417  1.00  0.00     0.000 HD 
BRANCH   8  10
HETATM   10  C   UNL     1     -12.739  11.391  71.396  1.00  0.00    -0.384 A  
HETATM   11  C   UNL     1     -13.256  12.514  72.031  1.00  0.00    -0.524 A  
HETATM   12  C   UNL     1     -11.812  12.865  69.680  1.00  0.00    -0.387 A  
HETATM   13  C   UNL     1     -12.388  13.972  70.299  1.00  0.00    -0.358 A  
HETATM   14  C   UNL     1     -13.084  13.787  71.499  1.00  0.00    -0.435 A  
HETATM   15  C   UNL     1     -11.989  11.581  70.225  1.00  0.00    -0.455 A  
BRANCH  13  16
HETATM   16  O   UNL     1     -12.258  15.192  69.673  1.00  0.00    -0.302 OA 
BRANCH  16  17
HETATM   17  C   UNL     1     -10.949  15.742  69.835  1.00  0.00    -0.333 C  
BRANCH  17  18
HETATM   18  C   UNL     1     -10.246  16.107  68.526  1.00  0.00    -0.241 C  
BRANCH  18  19
HETATM   19  N   UNL     1     -10.626  17.476  68.144  1.00  0.00    -0.378 NA 
HETATM   20  C   UNL     1     -10.526  17.746  66.704  1.00  0.00    -0.300 C  
HETATM   21  C   UNL     1      -9.837  18.503  68.811  1.00  0.00    -0.376 C  
HETATM   22  C   UNL     1     -10.336  19.252  66.591  1.00  0.00    -0.529 C  
HETATM   23  C   UNL     1     -10.232  19.743  68.026  1.00  0.00    -0.581 C  
ENDBRANCH  18  19
ENDBRANCH  17  18
ENDBRANCH  16  17
ENDBRANCH  13  16
ENDBRANCH   8  10
ENDBRANCH   5   8
BRANCH   6  24
HETATM   24  N   UNL     1     -11.455   6.621  68.934  1.00  0.00    -0.602 NA 
HETATM   25  H   UNL     1     -12.049   5.799  68.818  1.00  0.00     0.000 HD 
BRANCH  24  26
HETATM   26  C   UNL     1     -10.696   6.934  67.779  1.00  0.00    -0.254 A  
HETATM   27  C   UNL     1      -9.924   6.017  67.060  1.00  0.00    -0.197 A  
HETATM   28  C   UNL     1     -10.579   8.288  67.411  1.00  0.00    -0.324 A  
HETATM   29  C   UNL     1      -9.061   6.422  66.027  1.00  0.00    -0.118 A  
HETATM   30  C   UNL     1      -8.910   7.773  65.721  1.00  0.00    -0.141 A  
HETATM   31  C   UNL     1      -9.656   8.708  66.436  1.00  0.00    -0.247 A  
BRANCH  31  32
HETATM   32  S   UNL     1      -9.469  10.437  66.079  1.00  0.00    -0.197 S  
HETATM   33  O   UNL     1      -9.855  11.161  67.272  1.00  0.00    -0.173 OA 
HETATM   34  O   UNL     1      -8.167  10.637  65.482  1.00  0.00    -0.160 OA 
BRANCH  32  35
HETATM   35  N   UNL     1     -10.659  10.786  64.945  1.00  0.00    -0.255 N  
HETATM   36  C   UNL     1     -12.302  11.945  63.559  1.00  0.00    -0.603 C  
HETATM   37  C   UNL     1     -12.087  12.569  65.946  1.00  0.00    -0.420 C  
HETATM   38  C   UNL     1     -10.262  13.154  64.301  1.00  0.00    -0.283 C  
HETATM   39  C   UNL     1     -11.294  12.108  64.719  1.00  0.00    -0.325 C  
HETATM   40  H   UNL     1     -10.975  10.016  64.356  1.00  0.00     0.000 HD 
ENDBRANCH  32  35
ENDBRANCH  31  32
ENDBRANCH  24  26
ENDBRANCH   6  24
TORSDOF 10
ENDMDL
MODEL       14
REMARK 921   NORMALIZED FREE ENERGY PREDICTED BY IDOCK:   -7.44 KCAL/MOL
REMARK 922        TOTAL FREE ENERGY PREDICTED BY IDOCK:  -13.14 KCAL/MOL
REMARK 923 INTER-LIGAND FREE ENERGY PREDICTED BY IDOCK:  -12.01 KCAL/MOL
REMARK 924 INTRA-LIGAND FREE ENERGY PREDICTED BY IDOCK:   -1.13 KCAL/MOL
REMARK 927      BINDING AFFINITY PREDICTED BY RF-SCORE:    0.00 PKD
ROOT
HETATM    1  C   UNL     1      -6.587   9.407  64.335  1.00  0.00    -0.090 C  
HETATM    2  C   UNL     1      -7.546   9.140  65.451  1.00  0.00    -0.097 A  
HETATM    3  C   UNL     1      -7.135   8.348  66.508  1.00  0.00    -0.072 A  
HETATM    4  N   UNL     1      -7.899   8.039  67.564  1.00  0.00    -0.116 NA 
HETATM    5  C   UNL     1      -9.144   8.516  67.549  1.00  0.00    -0.134 A  
HETATM    6  C   UNL     1      -8.837   9.659  65.541  1.00  0.00    -0.172 A  
HETATM    7  N   UNL     1      -9.622   9.320  66.579  1.00  0.00    -0.204 NA 
ENDROOT
BRANCH   5   8
HETATM    8  N   UNL     1      -9.937   8.116  68.627  1.00  0.00    -0.184 NA 
HETATM    9  H   UNL     1     -10.012   7.108  68.761  1.00  0.00     0.000 HD 
BRANCH   8  10
HETATM   10  C   UNL     1     -10.644   8.896  69.552  1.00  0.00    -0.228 A  
HETATM   11  C   UNL     1     -11.181   8.343  70.709  1.00  0.00    -0.290 A  
HETATM   12  C   UNL     1     -11.742  11.003  70.124  1.00  0.00    -0.442 A  
HETATM   13  C   UNL     1     -12.319  10.415  71.246  1.00  0.00    -0.401 A  
HETATM   14  C   UNL     1     -12.003   9.086  71.549  1.00  0.00    -0.414 A  
HETATM   15  C   UNL     1     -10.911  10.247  69.280  1.00  0.00    -0.275 A  
BRANCH  13  16
HETATM   16  O   UNL     1     -13.197  11.178  71.986  1.00  0.00    -0.493 OA 
BRANCH  16  17
HETATM   17  C   UNL     1     -13.081  12.571  71.688  1.00  0.00    -0.315 C  
BRANCH  17  18
HETATM   18  C   UNL     1     -14.108  13.459  72.391  1.00  0.00    -0.416 C  
BRANCH  18  19
HETATM   19  N   UNL     1     -13.551  14.812  72.538  1.00  0.00    -0.438 NA 
HETATM   20  C   UNL     1     -12.673  15.223  71.436  1.00  0.00    -0.392 C  
HETATM   21  C   UNL     1     -12.785  14.992  73.764  1.00  0.00    -0.471 C  
HETATM   22  C   UNL     1     -11.753  16.281  72.028  1.00  0.00    -0.528 C  
HETATM   23  C   UNL     1     -12.112  16.330  73.505  1.00  0.00    -0.557 C  
ENDBRANCH  18  19
ENDBRANCH  17  18
ENDBRANCH  16  17
ENDBRANCH  13  16
ENDBRANCH   8  10
ENDBRANCH   5   8
BRANCH   6  24
HETATM   24  N   UNL     1      -9.341  10.454  64.478  1.00  0.00    -0.238 NA 
HETATM   25  H   UNL     1      -8.902  10.255  63.579  1.00  0.00     0.000 HD 
BRANCH  24  26
HETATM   26  C   UNL     1     -10.329  11.468  64.410  1.00  0.00    -0.312 A  
HETATM   27  C   UNL     1     -11.409  11.468  63.522  1.00  0.00    -0.375 A  
HETATM   28  C   UNL     1     -10.135  12.634  65.173  1.00  0.00    -0.257 A  
HETATM   29  C   UNL     1     -12.257  12.581  63.386  1.00  0.00    -0.613 A  
HETATM   30  C   UNL     1     -12.011  13.750  64.104  1.00  0.00    -0.473 A  
HETATM   31  C   UNL     1     -10.929  13.780  64.981  1.00  0.00    -0.357 A  
BRANCH  31  32
HETATM   32  S   UNL     1     -10.581  15.262  65.893  1.00  0.00    -0.353 S  
HETATM   33  O   UNL     1     -10.556  16.351  64.939  1.00  0.00    -0.677 OA 
HETATM   34  O   UNL     1     -11.460  15.305  67.040  1.00  0.00    -0.286 OA 
BRANCH  32  35
HETATM   35  N   UNL     1      -8.992  15.098  66.417  1.00  0.00    -0.375 N  
HETATM   36  C   UNL     1      -6.808  15.508  67.429  1.00  0.00    -0.224 C  
HETATM   37  C   UNL     1      -7.956  17.360  66.252  1.00  0.00    -0.314 C  
HETATM   38  C   UNL     1      -8.836  16.506  68.460  1.00  0.00    -0.228 C  
HETATM   39  C   UNL     1      -8.192  16.126  67.128  1.00  0.00    -0.196 C  
HETATM   40  H   UNL     1      -8.534  14.206  66.228  1.00  0.00     0.000 HD 
ENDBRANCH  32  35
ENDBRANCH  31  32
ENDBRANCH  24  26
ENDBRANCH   6  24
TORSDOF 10
ENDMDL
MODEL       15
REMARK 921   NORMALIZED FREE ENERGY PREDICTED BY IDOCK:   -7.40 KCAL/MOL
REMARK 922        TOTAL FREE ENERGY PREDICTED BY IDOCK:  -13.07 KCAL/MOL
REMARK 923 INTER-LIGAND FREE ENERGY PREDICTED BY IDOCK:  -11.16 KCAL/MOL
REMARK 924 INTRA-LIGAND FREE ENERGY PREDICTED BY IDOCK:   -1.90 KCAL/MOL
REMARK 927      BINDING AFFINITY PREDICTED BY RF-SCORE:    0.00 PKD
ROOT
HETATM    1  C   UNL     1     -11.299  15.027  65.473  1.00  0.00    -0.312 C  
HETATM    2  C   UNL     1     -11.524  14.290  66.755  1.00  0.00    -0.380 A  
HETATM    3  C   UNL     1     -11.510  14.999  67.943  1.00  0.00    -0.340 A  
HETATM    4  N   UNL     1     -11.700  14.454  69.152  1.00  0.00    -0.297 NA 
HETATM    5  C   UNL     1     -11.881  13.134  69.181  1.00  0.00    -0.314 A  
HETATM    6  C   UNL     1     -11.788  12.925  66.860  1.00  0.00    -0.379 A  
HETATM    7  N   UNL     1     -11.940  12.366  68.074  1.00  0.00    -0.412 NA 
ENDROOT
BRANCH   5   8
HETATM    8  N   UNL     1     -12.003  12.587  70.460  1.00  0.00    -0.526 NA 
HETATM    9  H   UNL     1     -12.017  13.264  71.222  1.00  0.00     0.000 HD 
BRANCH   8  10
HETATM   10  C   UNL     1     -12.110  11.245  70.850  1.00  0.00    -0.301 A  
HETATM   11  C   UNL     1     -11.252  10.273  70.352  1.00  0.00    -0.407 A  
HETATM   12  C   UNL     1     -13.369   9.474  71.968  1.00  0.00    -0.535 A  
HETATM   13  C   UNL     1     -12.534   8.509  71.412  1.00  0.00    -0.297 A  
HETATM   14  C   UNL     1     -11.452   8.925  70.627  1.00  0.00    -0.280 A  
HETATM   15  C   UNL     1     -13.160  10.834  71.687  1.00  0.00    -0.551 A  
BRANCH  13  16
HETATM   16  O   UNL     1     -12.840   7.186  71.648  1.00  0.00    -0.361 OA 
BRANCH  16  17
HETATM   17  C   UNL     1     -11.694   6.340  71.528  1.00  0.00    -0.269 C  
BRANCH  17  18
HETATM   18  C   UNL     1     -11.193   5.758  72.851  1.00  0.00    -0.276 C  
BRANCH  18  19
HETATM   19  N   UNL     1      -9.808   6.200  73.075  1.00  0.00    -0.166 NA 
HETATM   20  C   UNL     1      -9.695   7.529  73.691  1.00  0.00    -0.286 C  
HETATM   21  C   UNL     1      -9.009   6.242  71.858  1.00  0.00    -0.139 C  
HETATM   22  C   UNL     1      -8.326   8.048  73.275  1.00  0.00    -0.269 C  
HETATM   23  C   UNL     1      -7.774   6.990  72.334  1.00  0.00    -0.094 C  
ENDBRANCH  18  19
ENDBRANCH  17  18
ENDBRANCH  16  17
ENDBRANCH  13  16
ENDBRANCH   8  10
ENDBRANCH   5   8
BRANCH   6  24
HETATM   24  N   UNL     1     -11.787  12.126  65.687  1.00  0.00    -0.475 NA 
HETATM   25  H   UNL     1     -12.723  11.902  65.348  1.00  0.00     0.000 HD 
BRANCH  24  26
HETATM   26  C   UNL     1     -10.753  11.574  64.891  1.00  0.00    -0.297 A  
HETATM   27  C   UNL     1     -10.490  11.935  63.566  1.00  0.00    -0.505 A  
HETATM   28  C   UNL     1     -10.035  10.478  65.404  1.00  0.00    -0.353 A  
HETATM   29  C   UNL     1      -9.562  11.233  62.776  1.00  0.00    -0.327 A  
HETATM   30  C   UNL     1      -8.909  10.111  63.281  1.00  0.00    -0.238 A  
HETATM   31  C   UNL     1      -9.169   9.721  64.593  1.00  0.00    -0.255 A  
BRANCH  31  32
HETATM   32  S   UNL     1      -8.365   8.284  65.256  1.00  0.00    -0.156 S  
HETATM   33  O   UNL     1      -8.049   7.421  64.136  1.00  0.00    -0.126 OA 
HETATM   34  O   UNL     1      -7.330   8.723  66.165  1.00  0.00    -0.084 OA 
BRANCH  32  35
HETATM   35  N   UNL     1      -9.555   7.469  66.119  1.00  0.00    -0.420 N  
HETATM   36  C   UNL     1     -10.767   6.255  67.857  1.00  0.00    -0.380 C  
HETATM   37  C   UNL     1      -8.385   5.714  67.449  1.00  0.00    -0.100 C  
HETATM   38  C   UNL     1      -9.034   7.912  68.510  1.00  0.00    -0.133 C  
HETATM   39  C   UNL     1      -9.401   6.860  67.464  1.00  0.00    -0.122 C  
HETATM   40  H   UNL     1     -10.470   7.386  65.677  1.00  0.00     0.000 HD 
ENDBRANCH  32  35
ENDBRANCH  31  32
ENDBRANCH  24  26
ENDBRANCH   6  24
TORSDOF 10
ENDMDL
MODEL       16
REMARK 921   NORMALIZED FREE ENERGY PREDICTED BY IDOCK:   -7.38 KCAL/MOL
REMARK 922        TOTAL FREE ENERGY PREDICTED BY IDOCK:  -13.04 KCAL/MOL
REMARK 923 INTER-LIGAND FREE ENERGY PREDICTED BY IDOCK:  -11.39 KCAL/MOL
REMARK 924 INTRA-LIGAND FREE ENERGY PREDICTED BY IDOCK:   -1.65 KCAL/MOL
REMARK 927      BINDING AFFINITY PREDICTED BY RF-SCORE:    0.00 PKD
ROOT
HETATM    1  C   UNL     1     -12.782  11.931  63.475  1.00  0.00    -0.530 C  
HETATM    2  C   UNL     1     -12.076  12.496  64.666  1.00  0.00    -0.496 A  
HETATM    3  C   UNL     1     -12.570  13.650  65.248  1.00  0.00    -0.469 A  
HETATM    4  N   UNL     1     -12.029  14.250  66.316  1.00  0.00    -0.411 NA 
HETATM    5  C   UNL     1     -10.922  13.691  66.808  1.00  0.00    -0.292 A  
HETATM    6  C   UNL     1     -10.957  11.932  65.278  1.00  0.00    -0.302 A  
HETATM    7  N   UNL     1     -10.386  12.552  66.326  1.00  0.00    -0.246 NA 
ENDROOT
BRANCH   5   8
HETATM    8  N   UNL     1     -10.341  14.381  67.874  1.00  0.00    -0.230 NA 
HETATM    9  H   UNL     1     -10.818  14.276  68.770  1.00  0.00     0.000 HD 
BRANCH   8  10
HETATM   10  C   UNL     1      -9.201  15.194  67.896  1.00  0.00    -0.184 A  
HETATM   11  C   UNL     1      -8.649  15.641  69.090  1.00  0.00    -0.251 A  
HETATM   12  C   UNL     1      -7.591  16.592  66.701  1.00  0.00    -0.314 A  
HETATM   13  C   UNL     1      -7.091  17.074  67.908  1.00  0.00    -0.156 A  
HETATM   14  C   UNL     1      -7.609  16.563  69.104  1.00  0.00    -0.210 A  
HETATM   15  C   UNL     1      -8.642  15.659  66.695  1.00  0.00    -0.330 A  
BRANCH  13  16
HETATM   16  O   UNL     1      -6.123  18.054  67.853  1.00  0.00    -0.159 OA 
BRANCH  16  17
HETATM   17  C   UNL     1      -6.503  19.135  66.998  1.00  0.00    -0.194 C  
BRANCH  17  18
HETATM   18  C   UNL     1      -7.132  20.326  67.722  1.00  0.00    -0.304 C  
BRANCH  18  19
HETATM   19  N   UNL     1      -8.567  20.378  67.401  1.00  0.00    -0.342 NA 
HETATM   20  C   UNL     1      -9.425  19.690  68.375  1.00  0.00    -0.370 C  
HETATM   21  C   UNL     1      -8.890  19.813  66.097  1.00  0.00    -0.336 C  
HETATM   22  C   UNL     1     -10.683  19.313  67.606  1.00  0.00    -0.533 C  
HETATM   23  C   UNL     1     -10.406  19.733  66.171  1.00  0.00    -0.627 C  
ENDBRANCH  18  19
ENDBRANCH  17  18
ENDBRANCH  16  17
ENDBRANCH  13  16
ENDBRANCH   8  10
ENDBRANCH   5   8
BRANCH   6  24
HETATM   24  N   UNL     1     -10.374  10.765  64.717  1.00  0.00    -0.327 NA 
HETATM   25  H   UNL     1     -10.506  10.690  63.708  1.00  0.00     0.000 HD 
BRANCH  24  26
HETATM   26  C   UNL     1      -9.645   9.684  65.272  1.00  0.00    -0.277 A  
HETATM   27  C   UNL     1      -8.606   9.009  64.625  1.00  0.00    -0.190 A  
HETATM   28  C   UNL     1     -10.092   9.140  66.491  1.00  0.00    -0.357 A  
HETATM   29  C   UNL     1      -8.037   7.838  65.156  1.00  0.00    -0.137 A  
HETATM   30  C   UNL     1      -8.536   7.280  66.331  1.00  0.00    -0.129 A  
HETATM   31  C   UNL     1      -9.585   7.924  66.984  1.00  0.00    -0.192 A  
BRANCH  31  32
HETATM   32  S   UNL     1     -10.252   7.224  68.473  1.00  0.00    -0.184 S  
HETATM   33  O   UNL     1     -11.266   6.269  68.075  1.00  0.00    -0.323 OA 
HETATM   34  O   UNL     1      -9.149   6.822  69.317  1.00  0.00    -0.139 OA 
BRANCH  32  35
HETATM   35  N   UNL     1     -11.091   8.477  69.214  1.00  0.00    -0.432 N  
HETATM   36  C   UNL     1     -12.064   9.982  70.874  1.00  0.00    -0.448 C  
HETATM   37  C   UNL     1     -12.021   7.548  71.333  1.00  0.00    -0.336 C  
HETATM   38  C   UNL     1      -9.882   8.891  71.347  1.00  0.00    -0.376 C  
HETATM   39  C   UNL     1     -11.240   8.690  70.676  1.00  0.00    -0.252 C  
HETATM   40  H   UNL     1     -11.541   9.157  68.602  1.00  0.00     0.000 HD 
ENDBRANCH  32  35
ENDBRANCH  31  32
ENDBRANCH  24  26
ENDBRANCH   6  24
TORSDOF 10
ENDMDL
MODEL       17
REMARK 921   NORMALIZED FREE ENERGY PREDICTED BY IDOCK:   -7.38 KCAL/MOL
REMARK 922        TOTAL FREE ENERGY PREDICTED BY IDOCK:  -13.04 KCAL/MOL
REMARK 923 INTER-LIGAND FREE ENERGY PREDICTED BY IDOCK:  -12.11 KCAL/MOL
REMARK 924 INTRA-LIGAND FREE ENERGY PREDICTED BY IDOCK:   -0.93 KCAL/MOL
REMARK 927      BINDING AFFINITY PREDICTED BY RF-SCORE:    0.00 PKD
ROOT
HETATM    1  C   UNL     1     -13.004  14.388  71.798  1.00  0.00    -0.419 C  
HETATM    2  C   UNL     1     -12.801  12.963  71.393  1.00  0.00    -0.377 A  
HETATM    3  C   UNL     1     -13.359  11.963  72.170  1.00  0.00    -0.256 A  
HETATM    4  N   UNL     1     -13.250  10.654  71.911  1.00  0.00    -0.462 NA 
HETATM    5  C   UNL     1     -12.521  10.324  70.845  1.00  0.00    -0.370 A  
HETATM    6  C   UNL     1     -12.113  12.542  70.256  1.00  0.00    -0.294 A  
HETATM    7  N   UNL     1     -11.966  11.228  70.013  1.00  0.00    -0.337 NA 
ENDROOT
BRANCH   5   8
HETATM    8  N   UNL     1     -12.365   8.950  70.644  1.00  0.00    -0.486 NA 
HETATM    9  H   UNL     1     -12.708   8.600  69.750  1.00  0.00     0.000 HD 
BRANCH   8  10
HETATM   10  C   UNL     1     -11.807   7.982  71.490  1.00  0.00    -0.292 A  
HETATM   11  C   UNL     1     -12.357   6.712  71.603  1.00  0.00    -0.382 A  
HETATM   12  C   UNL     1     -10.250   7.400  73.282  1.00  0.00    -0.386 A  
HETATM   13  C   UNL     1     -10.853   6.153  73.421  1.00  0.00    -0.221 A  
HETATM   14  C   UNL     1     -11.891   5.805  72.548  1.00  0.00    -0.222 A  
HETATM   15  C   UNL     1     -10.726   8.311  72.323  1.00  0.00    -0.399 A  
BRANCH  13  16
HETATM   16  O   UNL     1     -10.405   5.336  74.436  1.00  0.00    -0.254 OA 
BRANCH  16  17
HETATM   17  C   UNL     1     -10.463   3.954  74.078  1.00  0.00    -0.202 C  
BRANCH  17  18
HETATM   18  C   UNL     1      -9.163   3.392  73.501  1.00  0.00    -0.096 C  
BRANCH  18  19
HETATM   19  N   UNL     1      -9.439   2.805  72.180  1.00  0.00    -0.107 NA 
HETATM   20  C   UNL     1      -8.614   1.633  71.860  1.00  0.00    -0.058 C  
HETATM   21  C   UNL     1      -9.264   3.745  71.080  1.00  0.00    -0.131 C  
HETATM   22  C   UNL     1      -8.575   1.573  70.340  1.00  0.00    -0.086 C  
HETATM   23  C   UNL     1      -9.320   2.816  69.879  1.00  0.00    -0.202 C  
ENDBRANCH  18  19
ENDBRANCH  17  18
ENDBRANCH  16  17
ENDBRANCH  13  16
ENDBRANCH   8  10
ENDBRANCH   5   8
BRANCH   6  24
HETATM   24  N   UNL     1     -11.485  13.509  69.427  1.00  0.00    -0.320 NA 
HETATM   25  H   UNL     1     -10.826  14.105  69.927  1.00  0.00     0.000 HD 
BRANCH  24  26
HETATM   26  C   UNL     1     -11.587  13.816  68.047  1.00  0.00    -0.333 A  
HETATM   27  C   UNL     1     -11.948  12.902  67.053  1.00  0.00    -0.390 A  
HETATM   28  C   UNL     1     -11.146  15.081  67.616  1.00  0.00    -0.317 A  
HETATM   29  C   UNL     1     -11.866  13.221  65.686  1.00  0.00    -0.419 A  
HETATM   30  C   UNL     1     -11.366  14.456  65.277  1.00  0.00    -0.346 A  
HETATM   31  C   UNL     1     -10.983  15.377  66.251  1.00  0.00    -0.278 A  
BRANCH  31  32
HETATM   32  S   UNL     1     -10.325  16.950  65.757  1.00  0.00    -0.206 S  
HETATM   33  O   UNL     1      -8.898  16.777  65.583  1.00  0.00    -0.461 OA 
HETATM   34  O   UNL     1     -11.143  17.465  64.682  1.00  0.00    -1.029 OA 
BRANCH  32  35
HETATM   35  N   UNL     1     -10.490  17.941  67.104  1.00  0.00    -0.366 N  
HETATM   36  C   UNL     1     -10.200  19.727  68.744  1.00  0.00    -0.473 C  
HETATM   37  C   UNL     1      -8.196  18.724  67.690  1.00  0.00    -0.282 C  
HETATM   38  C   UNL     1      -9.751  20.191  66.345  1.00  0.00    -0.538 C  
HETATM   39  C   UNL     1      -9.652  19.122  67.432  1.00  0.00    -0.311 C  
HETATM   40  H   UNL     1     -11.237  17.710  67.759  1.00  0.00     0.000 HD 
ENDBRANCH  32  35
ENDBRANCH  31  32
ENDBRANCH  24  26
ENDBRANCH   6  24
TORSDOF 10
ENDMDL
MODEL       18
REMARK 921   NORMALIZED FREE ENERGY PREDICTED BY IDOCK:   -7.35 KCAL/MOL
REMARK 922        TOTAL FREE ENERGY PREDICTED BY IDOCK:  -12.99 KCAL/MOL
REMARK 923 INTER-LIGAND FREE ENERGY PREDICTED BY IDOCK:  -11.61 KCAL/MOL
REMARK 924 INTRA-LIGAND FREE ENERGY PREDICTED BY IDOCK:   -1.38 KCAL/MOL
REMARK 927      BINDING AFFINITY PREDICTED BY RF-SCORE:    0.00 PKD
ROOT
HETATM    1  C   UNL     1     -12.350  16.307  72.705  1.00  0.00    -0.516 C  
HETATM    2  C   UNL     1     -12.486  14.951  72.089  1.00  0.00    -0.416 A  
HETATM    3  C   UNL     1     -12.998  13.919  72.855  1.00  0.00    -0.245 A  
HETATM    4  N   UNL     1     -13.169  12.664  72.418  1.00  0.00    -0.376 NA 
HETATM    5  C   UNL     1     -12.780  12.419  71.166  1.00  0.00    -0.240 A  
HETATM    6  C   UNL     1     -12.167  14.633  70.770  1.00  0.00    -0.324 A  
HETATM    7  N   UNL     1     -12.300  13.367  70.337  1.00  0.00    -0.333 NA 
ENDROOT
BRANCH   5   8
HETATM    8  N   UNL     1     -12.904  11.087  70.765  1.00  0.00    -0.301 NA 
HETATM    9  H   UNL     1     -13.857  10.723  70.756  1.00  0.00     0.000 HD 
BRANCH   8  10
HETATM   10  C   UNL     1     -11.913  10.178  70.372  1.00  0.00    -0.267 A  
HETATM   11  C   UNL     1     -11.741   8.963  71.023  1.00  0.00    -0.340 A  
HETATM   12  C   UNL     1      -9.911   9.686  69.059  1.00  0.00    -0.183 A  
HETATM   13  C   UNL     1      -9.722   8.500  69.764  1.00  0.00    -0.179 A  
HETATM   14  C   UNL     1     -10.668   8.130  70.727  1.00  0.00    -0.242 A  
HETATM   15  C   UNL     1     -10.999  10.521  69.363  1.00  0.00    -0.297 A  
BRANCH  13  16
HETATM   16  O   UNL     1      -8.590   7.765  69.486  1.00  0.00    -0.133 OA 
BRANCH  16  17
HETATM   17  C   UNL     1      -8.499   6.592  70.298  1.00  0.00    -0.135 C  
BRANCH  17  18
HETATM   18  C   UNL     1      -7.196   6.467  71.089  1.00  0.00    -0.078 C  
BRANCH  18  19
HETATM   19  N   UNL     1      -7.467   6.746  72.508  1.00  0.00    -0.091 NA 
HETATM   20  C   UNL     1      -8.731   6.182  72.999  1.00  0.00    -0.121 C  
HETATM   21  C   UNL     1      -7.500   8.168  72.822  1.00  0.00    -0.125 C  
HETATM   22  C   UNL     1      -9.123   7.051  74.185  1.00  0.00    -0.250 C  
HETATM   23  C   UNL     1      -8.075   8.151  74.229  1.00  0.00    -0.309 C  
ENDBRANCH  18  19
ENDBRANCH  17  18
ENDBRANCH  16  17
ENDBRANCH  13  16
ENDBRANCH   8  10
ENDBRANCH   5   8
BRANCH   6  24
HETATM   24  N   UNL     1     -11.606  15.632  69.931  1.00  0.00    -0.320 NA 
HETATM   25  H   UNL     1     -11.787  16.583  70.256  1.00  0.00     0.000 HD 
BRANCH  24  26
HETATM   26  C   UNL     1     -10.847  15.581  68.736  1.00  0.00    -0.256 A  
HETATM   27  C   UNL     1      -9.533  16.041  68.607  1.00  0.00    -0.224 A  
HETATM   28  C   UNL     1     -11.500  15.187  67.554  1.00  0.00    -0.306 A  
HETATM   29  C   UNL     1      -8.894  16.119  67.357  1.00  0.00    -0.199 A  
HETATM   30  C   UNL     1      -9.579  15.785  66.190  1.00  0.00    -0.364 A  
HETATM   31  C   UNL     1     -10.896  15.341  66.292  1.00  0.00    -0.312 A  
BRANCH  31  32
HETATM   32  S   UNL     1     -11.797  14.927  64.820  1.00  0.00    -0.339 S  
HETATM   33  O   UNL     1     -13.015  14.266  65.240  1.00  0.00    -0.679 OA 
HETATM   34  O   UNL     1     -11.846  16.100  63.975  1.00  0.00    -0.876 OA 
BRANCH  32  35
HETATM   35  N   UNL     1     -10.886  13.735  64.063  1.00  0.00    -0.509 N  
HETATM   36  C   UNL     1     -10.090  11.595  63.197  1.00  0.00    -0.409 C  
HETATM   37  C   UNL     1     -11.145  11.670  65.437  1.00  0.00    -0.299 C  
HETATM   38  C   UNL     1     -12.534  12.013  63.356  1.00  0.00    -0.625 C  
HETATM   39  C   UNL     1     -11.192  12.283  64.034  1.00  0.00    -0.392 C  
HETATM   40  H   UNL     1     -10.041  14.038  63.578  1.00  0.00     0.000 HD 
ENDBRANCH  32  35
ENDBRANCH  31  32
ENDBRANCH  24  26
ENDBRANCH   6  24
TORSDOF 10
ENDMDL
MODEL       19
REMARK 921   NORMALIZED FREE ENERGY PREDICTED BY IDOCK:   -7.31 KCAL/MOL
REMARK 922        TOTAL FREE ENERGY PREDICTED BY IDOCK:  -12.93 KCAL/MOL
REMARK 923 INTER-LIGAND FREE ENERGY PREDICTED BY IDOCK:  -10.70 KCAL/MOL
REMARK 924 INTRA-LIGAND FREE ENERGY PREDICTED BY IDOCK:   -2.23 KCAL/MOL
REMARK 927      BINDING AFFINITY PREDICTED BY RF-SCORE:    0.00 PKD
ROOT
HETATM    1  C   UNL     1     -13.058  13.050  71.469  1.00  0.00    -0.400 C  
HETATM    2  C   UNL     1     -12.520  11.766  70.924  1.00  0.00    -0.416 A  
HETATM    3  C   UNL     1     -12.858  10.581  71.554  1.00  0.00    -0.463 A  
HETATM    4  N   UNL     1     -12.442   9.370  71.161  1.00  0.00    -0.308 NA 
HETATM    5  C   UNL     1     -11.623   9.341  70.109  1.00  0.00    -0.045 A  
HETATM    6  C   UNL     1     -11.716  11.649  69.791  1.00  0.00    -0.352 A  
HETATM    7  N   UNL     1     -11.263  10.440  69.415  1.00  0.00    -0.246 NA 
ENDROOT
BRANCH   5   8
HETATM    8  N   UNL     1     -11.149   8.072  69.770  1.00  0.00    -0.433 NA 
HETATM    9  H   UNL     1     -11.644   7.293  70.206  1.00  0.00     0.000 HD 
BRANCH   8  10
HETATM   10  C   UNL     1     -10.096   7.710  68.919  1.00  0.00    -0.197 A  
HETATM   11  C   UNL     1      -8.770   7.815  69.320  1.00  0.00    -0.139 A  
HETATM   12  C   UNL     1      -9.310   7.100  66.687  1.00  0.00    -0.207 A  
HETATM   13  C   UNL     1      -7.988   7.268  67.091  1.00  0.00    -0.110 A  
HETATM   14  C   UNL     1      -7.727   7.595  68.427  1.00  0.00    -0.119 A  
HETATM   15  C   UNL     1     -10.358   7.323  67.596  1.00  0.00    -0.290 A  
BRANCH  13  16
HETATM   16  O   UNL     1      -7.005   7.125  66.136  1.00  0.00    -0.062 OA 
BRANCH  16  17
HETATM   17  C   UNL     1      -7.336   7.799  64.920  1.00  0.00    -0.070 C  
BRANCH  17  18
HETATM   18  C   UNL     1      -6.548   9.086  64.673  1.00  0.00    -0.071 C  
BRANCH  18  19
HETATM   19  N   UNL     1      -7.420  10.241  64.940  1.00  0.00    -0.138 NA 
HETATM   20  C   UNL     1      -7.399  10.698  66.336  1.00  0.00    -0.138 C  
HETATM   21  C   UNL     1      -8.818  10.001  64.607  1.00  0.00    -0.200 C  
HETATM   22  C   UNL     1      -8.731  11.404  66.547  1.00  0.00    -0.181 C  
HETATM   23  C   UNL     1      -9.490  11.205  65.245  1.00  0.00    -0.257 C  
ENDBRANCH  18  19
ENDBRANCH  17  18
ENDBRANCH  16  17
ENDBRANCH  13  16
ENDBRANCH   8  10
ENDBRANCH   5   8
BRANCH   6  24
HETATM   24  N   UNL     1     -11.301  12.824  69.111  1.00  0.00    -0.305 NA 
HETATM   25  H   UNL     1     -10.663  13.404  69.656  1.00  0.00     0.000 HD 
BRANCH  24  26
HETATM   26  C   UNL     1     -11.590  13.356  67.829  1.00  0.00    -0.340 A  
HETATM   27  C   UNL     1     -12.247  12.662  66.809  1.00  0.00    -0.059 A  
HETATM   28  C   UNL     1     -11.046  14.610  67.495  1.00  0.00    -0.319 A  
HETATM   29  C   UNL     1     -12.353  13.182  65.507  1.00  0.00    -0.529 A  
HETATM   30  C   UNL     1     -11.753  14.396  65.179  1.00  0.00    -0.372 A  
HETATM   31  C   UNL     1     -11.076  15.097  66.176  1.00  0.00    -0.311 A  
BRANCH  31  32
HETATM   32  S   UNL     1     -10.286  16.637  65.781  1.00  0.00    -0.260 S  
HETATM   33  O   UNL     1      -8.867  16.370  65.672  1.00  0.00    -0.406 OA 
HETATM   34  O   UNL     1     -11.008  17.248  64.687  1.00  0.00    -1.013 OA 
BRANCH  32  35
HETATM   35  N   UNL     1     -10.454  17.587  67.157  1.00  0.00    -0.332 N  
HETATM   36  C   UNL     1     -10.240  19.376  68.805  1.00  0.00    -0.417 C  
HETATM   37  C   UNL     1      -8.227  18.629  67.571  1.00  0.00    -0.266 C  
HETATM   38  C   UNL     1     -10.050  19.916  66.387  1.00  0.00    -0.615 C  
HETATM   39  C   UNL     1      -9.736  18.855  67.441  1.00  0.00    -0.312 C  
HETATM   40  H   UNL     1     -11.112  17.261  67.865  1.00  0.00     0.000 HD 
ENDBRANCH  32  35
ENDBRANCH  31  32
ENDBRANCH  24  26
ENDBRANCH   6  24
TORSDOF 10
ENDMDL
MODEL       20
REMARK 921   NORMALIZED FREE ENERGY PREDICTED BY IDOCK:   -7.24 KCAL/MOL
REMARK 922        TOTAL FREE ENERGY PREDICTED BY IDOCK:  -12.82 KCAL/MOL
REMARK 923 INTER-LIGAND FREE ENERGY PREDICTED BY IDOCK:  -12.26 KCAL/MOL
REMARK 924 INTRA-LIGAND FREE ENERGY PREDICTED BY IDOCK:   -0.56 KCAL/MOL
REMARK 927      BINDING AFFINITY PREDICTED BY RF-SCORE:    0.00 PKD
ROOT
HETATM    1  C   UNL     1     -12.142  15.877  71.365  1.00  0.00    -0.508 C  
HETATM    2  C   UNL     1     -12.494  14.427  71.466  1.00  0.00    -0.430 A  
HETATM    3  C   UNL     1     -13.358  14.019  72.467  1.00  0.00    -0.539 A  
HETATM    4  N   UNL     1     -13.749  12.753  72.659  1.00  0.00    -0.440 NA 
HETATM    5  C   UNL     1     -13.229  11.844  71.834  1.00  0.00    -0.362 A  
HETATM    6  C   UNL     1     -12.047  13.430  70.600  1.00  0.00    -0.295 A  
HETATM    7  N   UNL     1     -12.405  12.151  70.812  1.00  0.00    -0.358 NA 
ENDROOT
BRANCH   5   8
HETATM    8  N   UNL     1     -13.600  10.525  72.106  1.00  0.00    -0.468 NA 
HETATM    9  H   UNL     1     -14.509  10.413  72.553  1.00  0.00     0.000 HD 
BRANCH   8  10
HETATM   10  C   UNL     1     -12.906   9.334  71.854  1.00  0.00    -0.404 A  
HETATM   11  C   UNL     1     -11.534   9.324  71.636  1.00  0.00    -0.468 A  
HETATM   12  C   UNL     1     -12.946   6.949  71.321  1.00  0.00    -0.309 A  
HETATM   13  C   UNL     1     -11.581   6.971  71.049  1.00  0.00    -0.320 A  
HETATM   14  C   UNL     1     -10.875   8.165  71.243  1.00  0.00    -0.278 A  
HETATM   15  C   UNL     1     -13.606   8.124  71.719  1.00  0.00    -0.397 A  
BRANCH  13  16
HETATM   16  O   UNL     1     -11.004   5.812  70.577  1.00  0.00    -0.288 OA 
BRANCH  16  17
HETATM   17  C   UNL     1      -9.702   5.599  71.124  1.00  0.00    -0.172 C  
BRANCH  17  18
HETATM   18  C   UNL     1      -9.665   5.485  72.649  1.00  0.00    -0.150 C  
BRANCH  18  19
HETATM   19  N   UNL     1      -9.835   4.074  73.029  1.00  0.00    -0.129 NA 
HETATM   20  C   UNL     1      -9.545   3.123  71.948  1.00  0.00    -0.152 C  
HETATM   21  C   UNL     1     -11.175   3.760  73.505  1.00  0.00    -0.204 C  
HETATM   22  C   UNL     1     -10.339   1.871  72.291  1.00  0.00    -0.213 C  
HETATM   23  C   UNL     1     -11.137   2.241  73.532  1.00  0.00    -0.307 C  
ENDBRANCH  18  19
ENDBRANCH  17  18
ENDBRANCH  16  17
ENDBRANCH  13  16
ENDBRANCH   8  10
ENDBRANCH   5   8
BRANCH   6  24
HETATM   24  N   UNL     1     -11.132  13.767  69.568  1.00  0.00    -0.431 NA 
HETATM   25  H   UNL     1     -10.155  13.688  69.850  1.00  0.00     0.000 HD 
BRANCH  24  26
HETATM   26  C   UNL     1     -11.298  14.190  68.225  1.00  0.00    -0.291 A  
HETATM   27  C   UNL     1     -11.595  13.342  67.154  1.00  0.00    -0.399 A  
HETATM   28  C   UNL     1     -10.992  15.527  67.910  1.00  0.00    -0.316 A  
HETATM   29  C   UNL     1     -11.580  13.795  65.823  1.00  0.00    -0.342 A  
HETATM   30  C   UNL     1     -11.211  15.105  65.526  1.00  0.00    -0.320 A  
HETATM   31  C   UNL     1     -10.893  15.964  66.576  1.00  0.00    -0.198 A  
BRANCH  31  32
HETATM   32  S   UNL     1     -10.402  17.633  66.224  1.00  0.00    -0.291 S  
HETATM   33  O   UNL     1     -10.925  17.962  64.914  1.00  0.00    -0.827 OA 
HETATM   34  O   UNL     1     -10.722  18.451  67.374  1.00  0.00    -0.416 OA 
BRANCH  32  35
HETATM   35  N   UNL     1      -8.734  17.573  66.032  1.00  0.00    -0.109 N  
HETATM   36  C   UNL     1      -6.335  17.956  66.280  1.00  0.00    -0.267 C  
HETATM   37  C   UNL     1      -7.887  19.875  66.481  1.00  0.00    -0.330 C  
HETATM   38  C   UNL     1      -7.805  18.101  68.277  1.00  0.00    -0.301 C  
HETATM   39  C   UNL     1      -7.735  18.380  66.776  1.00  0.00    -0.229 C  
HETATM   40  H   UNL     1      -8.373  16.919  65.337  1.00  0.00     0.000 HD 
ENDBRANCH  32  35
ENDBRANCH  31  32
ENDBRANCH  24  26
ENDBRANCH   6  24
TORSDOF 10
ENDMDL
MODEL       21
REMARK 921   NORMALIZED FREE ENERGY PREDICTED BY IDOCK:   -7.20 KCAL/MOL
REMARK 922        TOTAL FREE ENERGY PREDICTED BY IDOCK:  -12.76 KCAL/MOL
REMARK 923 INTER-LIGAND FREE ENERGY PREDICTED BY IDOCK:  -11.84 KCAL/MOL
REMARK 924 INTRA-LIGAND FREE ENERGY PREDICTED BY IDOCK:   -0.92 KCAL/MOL
REMARK 927      BINDING AFFINITY PREDICTED BY RF-SCORE:    0.00 PKD
ROOT
HETATM    1  C   UNL     1     -11.989  16.003  71.474  1.00  0.00    -0.539 C  
HETATM    2  C   UNL     1     -12.425  14.577  71.582  1.00  0.00    -0.422 A  
HETATM    3  C   UNL     1     -13.297  14.221  72.596  1.00  0.00    -0.525 A  
HETATM    4  N   UNL     1     -13.761  12.981  72.795  1.00  0.00    -0.510 NA 
HETATM    5  C   UNL     1     -13.307  12.042  71.964  1.00  0.00    -0.341 A  
HETATM    6  C   UNL     1     -12.050  13.555  70.712  1.00  0.00    -0.271 A  
HETATM    7  N   UNL     1     -12.480  12.299  70.930  1.00  0.00    -0.342 NA 
ENDROOT
BRANCH   5   8
HETATM    8  N   UNL     1     -13.751  10.748  72.242  1.00  0.00    -0.381 NA 
HETATM    9  H   UNL     1     -14.613  10.692  72.784  1.00  0.00     0.000 HD 
BRANCH   8  10
HETATM   10  C   UNL     1     -13.187   9.515  71.887  1.00  0.00    -0.439 A  
HETATM   11  C   UNL     1     -13.971   8.381  71.711  1.00  0.00    -0.482 A  
HETATM   12  C   UNL     1     -11.206   8.116  71.586  1.00  0.00    -0.314 A  
HETATM   13  C   UNL     1     -12.006   6.982  71.471  1.00  0.00    -0.334 A  
HETATM   14  C   UNL     1     -13.397   7.133  71.502  1.00  0.00    -0.413 A  
HETATM   15  C   UNL     1     -11.794   9.375  71.795  1.00  0.00    -0.452 A  
BRANCH  13  16
HETATM   16  O   UNL     1     -11.373   5.763  71.358  1.00  0.00    -0.225 OA 
BRANCH  16  17
HETATM   17  C   UNL     1     -10.755   5.596  70.080  1.00  0.00    -0.320 C  
BRANCH  17  18
HETATM   18  C   UNL     1      -9.291   5.157  70.134  1.00  0.00    -0.154 C  
BRANCH  18  19
HETATM   19  N   UNL     1      -8.432   6.352  70.137  1.00  0.00    -0.133 NA 
HETATM   20  C   UNL     1      -7.357   6.320  69.138  1.00  0.00    -0.089 C  
HETATM   21  C   UNL     1      -7.792   6.602  71.422  1.00  0.00    -0.099 C  
HETATM   22  C   UNL     1      -6.275   7.242  69.682  1.00  0.00    -0.031 C  
HETATM   23  C   UNL     1      -6.779   7.672  71.051  1.00  0.00    -0.042 C  
ENDBRANCH  18  19
ENDBRANCH  17  18
ENDBRANCH  16  17
ENDBRANCH  13  16
ENDBRANCH   8  10
ENDBRANCH   5   8
BRANCH   6  24
HETATM   24  N   UNL     1     -11.132  13.836  69.666  1.00  0.00    -0.450 NA 
HETATM   25  H   UNL     1     -10.155  13.783  69.959  1.00  0.00     0.000 HD 
BRANCH  24  26
HETATM   26  C   UNL     1     -11.292  14.175  68.300  1.00  0.00    -0.291 A  
HETATM   27  C   UNL     1     -11.560  13.259  67.278  1.00  0.00    -0.404 A  
HETATM   28  C   UNL     1     -11.010  15.497  67.908  1.00  0.00    -0.316 A  
HETATM   29  C   UNL     1     -11.540  13.632  65.923  1.00  0.00    -0.346 A  
HETATM   30  C   UNL     1     -11.196  14.930  65.551  1.00  0.00    -0.348 A  
HETATM   31  C   UNL     1     -10.906  15.856  66.552  1.00  0.00    -0.198 A  
BRANCH  31  32
HETATM   32  S   UNL     1     -10.446  17.512  66.105  1.00  0.00    -0.209 S  
HETATM   33  O   UNL     1     -10.971  17.755  64.778  1.00  0.00    -0.855 OA 
HETATM   34  O   UNL     1     -10.785  18.387  67.205  1.00  0.00    -0.411 OA 
BRANCH  32  35
HETATM   35  N   UNL     1      -8.776  17.473  65.921  1.00  0.00    -0.010 N  
HETATM   36  C   UNL     1      -6.391  17.965  66.097  1.00  0.00    -0.279 C  
HETATM   37  C   UNL     1      -8.002  19.842  65.988  1.00  0.00    -0.328 C  
HETATM   38  C   UNL     1      -7.870  18.387  68.048  1.00  0.00    -0.286 C  
HETATM   39  C   UNL     1      -7.805  18.420  66.522  1.00  0.00    -0.255 C  
HETATM   40  H   UNL     1      -8.394  16.726  65.340  1.00  0.00     0.000 HD 
ENDBRANCH  32  35
ENDBRANCH  31  32
ENDBRANCH  24  26
ENDBRANCH   6  24
TORSDOF 10
ENDMDL
MODEL       22
REMARK 921   NORMALIZED FREE ENERGY PREDICTED BY IDOCK:   -7.17 KCAL/MOL
REMARK 922        TOTAL FREE ENERGY PREDICTED BY IDOCK:  -12.71 KCAL/MOL
REMARK 923 INTER-LIGAND FREE ENERGY PREDICTED BY IDOCK:  -10.42 KCAL/MOL
REMARK 924 INTRA-LIGAND FREE ENERGY PREDICTED BY IDOCK:   -2.29 KCAL/MOL
REMARK 927      BINDING AFFINITY PREDICTED BY RF-SCORE:    0.00 PKD
ROOT
HETATM    1  C   UNL     1     -10.304  19.947  67.834  1.00  0.00    -0.545 C  
HETATM    2  C   UNL     1      -9.229  18.941  68.097  1.00  0.00    -0.361 A  
HETATM    3  C   UNL     1      -7.914  19.370  68.150  1.00  0.00    -0.317 A  
HETATM    4  N   UNL     1      -6.866  18.569  68.379  1.00  0.00    -0.244 NA 
HETATM    5  C   UNL     1      -7.138  17.272  68.530  1.00  0.00    -0.220 A  
HETATM    6  C   UNL     1      -9.440  17.584  68.333  1.00  0.00    -0.292 A  
HETATM    7  N   UNL     1      -8.388  16.768  68.523  1.00  0.00    -0.233 NA 
ENDROOT
BRANCH   5   8
HETATM    8  N   UNL     1      -6.018  16.454  68.694  1.00  0.00    -0.119 NA 
HETATM    9  H   UNL     1      -5.123  16.894  68.480  1.00  0.00     0.000 HD 
BRANCH   8  10
HETATM   10  C   UNL     1      -5.942  15.118  69.110  1.00  0.00    -0.099 A  
HETATM   11  C   UNL     1      -6.150  14.068  68.223  1.00  0.00    -0.117 A  
HETATM   12  C   UNL     1      -5.819  13.482  70.921  1.00  0.00    -0.150 A  
HETATM   13  C   UNL     1      -6.087  12.449  70.027  1.00  0.00    -0.123 A  
HETATM   14  C   UNL     1      -6.218  12.752  68.667  1.00  0.00    -0.071 A  
HETATM   15  C   UNL     1      -5.749  14.809  70.465  1.00  0.00    -0.152 A  
BRANCH  13  16
HETATM   16  O   UNL     1      -6.233  11.179  70.543  1.00  0.00    -0.271 OA 
BRANCH  16  17
HETATM   17  C   UNL     1      -7.195  10.412  69.815  1.00  0.00    -0.154 C  
BRANCH  17  18
HETATM   18  C   UNL     1      -7.543   9.065  70.449  1.00  0.00    -0.100 C  
BRANCH  18  19
HETATM   19  N   UNL     1      -9.006   8.909  70.471  1.00  0.00    -0.174 NA 
HETATM   20  C   UNL     1      -9.733   9.973  69.766  1.00  0.00    -0.226 C  
HETATM   21  C   UNL     1      -9.562   8.852  71.816  1.00  0.00    -0.282 C  
HETATM   22  C   UNL     1     -11.116  10.003  70.402  1.00  0.00    -0.393 C  
HETATM   23  C   UNL     1     -11.049   8.990  71.534  1.00  0.00    -0.419 C  
ENDBRANCH  18  19
ENDBRANCH  17  18
ENDBRANCH  16  17
ENDBRANCH  13  16
ENDBRANCH   8  10
ENDBRANCH   5   8
BRANCH   6  24
HETATM   24  N   UNL     1     -10.759  17.064  68.262  1.00  0.00    -0.373 NA 
HETATM   25  H   UNL     1     -11.476  17.786  68.181  1.00  0.00     0.000 HD 
BRANCH  24  26
HETATM   26  C   UNL     1     -11.285  15.748  68.281  1.00  0.00    -0.356 A  
HETATM   27  C   UNL     1     -11.595  15.031  69.440  1.00  0.00    -0.337 A  
HETATM   28  C   UNL     1     -11.357  15.047  67.063  1.00  0.00    -0.319 A  
HETATM   29  C   UNL     1     -11.952  13.672  69.399  1.00  0.00    -0.394 A  
HETATM   30  C   UNL     1     -11.956  12.978  68.190  1.00  0.00    -0.322 A  
HETATM   31  C   UNL     1     -11.632  13.668  67.023  1.00  0.00    -0.359 A  
BRANCH  31  32
HETATM   32  S   UNL     1     -11.610  12.803  65.473  1.00  0.00    -0.383 S  
HETATM   33  O   UNL     1     -12.985  12.691  65.030  1.00  0.00    -0.812 OA 
HETATM   34  O   UNL     1     -10.609  13.415  64.628  1.00  0.00    -0.372 OA 
BRANCH  32  35
HETATM   35  N   UNL     1     -11.138  11.234  65.848  1.00  0.00    -0.168 N  
HETATM   36  C   UNL     1      -9.839   9.184  66.120  1.00  0.00    -0.363 C  
HETATM   37  C   UNL     1      -9.542  10.533  64.064  1.00  0.00    -0.367 C  
HETATM   38  C   UNL     1      -8.695  11.383  66.287  1.00  0.00    -0.173 C  
HETATM   39  C   UNL     1      -9.812  10.627  65.569  1.00  0.00    -0.258 C  
HETATM   40  H   UNL     1     -11.827  10.643  66.311  1.00  0.00     0.000 HD 
ENDBRANCH  32  35
ENDBRANCH  31  32
ENDBRANCH  24  26
ENDBRANCH   6  24
TORSDOF 10
ENDMDL
MODEL       23
REMARK 921   NORMALIZED FREE ENERGY PREDICTED BY IDOCK:   -7.16 KCAL/MOL
REMARK 922        TOTAL FREE ENERGY PREDICTED BY IDOCK:  -12.70 KCAL/MOL
REMARK 923 INTER-LIGAND FREE ENERGY PREDICTED BY IDOCK:  -11.02 KCAL/MOL
REMARK 924 INTRA-LIGAND FREE ENERGY PREDICTED BY IDOCK:   -1.68 KCAL/MOL
REMARK 927      BINDING AFFINITY PREDICTED BY RF-SCORE:    0.00 PKD
ROOT
HETATM    1  C   UNL     1     -13.807  14.686  72.736  1.00  0.00    -0.381 C  
HETATM    2  C   UNL     1     -13.052  14.436  71.470  1.00  0.00    -0.411 A  
HETATM    3  C   UNL     1     -12.613  15.521  70.731  1.00  0.00    -0.452 A  
HETATM    4  N   UNL     1     -11.927  15.428  69.585  1.00  0.00    -0.337 NA 
HETATM    5  C   UNL     1     -11.696  14.194  69.135  1.00  0.00    -0.327 A  
HETATM    6  C   UNL     1     -12.713  13.179  70.972  1.00  0.00    -0.277 A  
HETATM    7  N   UNL     1     -12.059  13.079  69.801  1.00  0.00    -0.290 NA 
ENDROOT
BRANCH   5   8
HETATM    8  N   UNL     1     -11.044  14.132  67.902  1.00  0.00    -0.260 NA 
HETATM    9  H   UNL     1     -11.497  13.548  67.199  1.00  0.00     0.000 HD 
BRANCH   8  10
HETATM   10  C   UNL     1      -9.859  14.755  67.488  1.00  0.00    -0.218 A  
HETATM   11  C   UNL     1      -8.706  14.713  68.263  1.00  0.00    -0.173 A  
HETATM   12  C   UNL     1      -8.702  16.274  65.961  1.00  0.00    -0.285 A  
HETATM   13  C   UNL     1      -7.578  16.266  66.783  1.00  0.00    -0.250 A  
HETATM   14  C   UNL     1      -7.579  15.451  67.921  1.00  0.00    -0.149 A  
HETATM   15  C   UNL     1      -9.837  15.523  66.314  1.00  0.00    -0.317 A  
BRANCH  13  16
HETATM   16  O   UNL     1      -6.528  17.090  66.436  1.00  0.00    -0.219 OA 
BRANCH  16  17
HETATM   17  C   UNL     1      -6.978  18.364  65.971  1.00  0.00    -0.275 C  
BRANCH  17  18
HETATM   18  C   UNL     1      -7.074  19.438  67.055  1.00  0.00    -0.206 C  
BRANCH  18  19
HETATM   19  N   UNL     1      -8.492  19.754  67.293  1.00  0.00    -0.305 NA 
HETATM   20  C   UNL     1      -9.124  18.929  68.331  1.00  0.00    -0.343 C  
HETATM   21  C   UNL     1      -9.321  19.625  66.102  1.00  0.00    -0.351 C  
HETATM   22  C   UNL     1     -10.610  18.942  68.003  1.00  0.00    -0.376 C  
HETATM   23  C   UNL     1     -10.717  19.713  66.697  1.00  0.00    -0.552 C  
ENDBRANCH  18  19
ENDBRANCH  17  18
ENDBRANCH  16  17
ENDBRANCH  13  16
ENDBRANCH   8  10
ENDBRANCH   5   8
BRANCH   6  24
HETATM   24  N   UNL     1     -13.157  12.018  71.658  1.00  0.00    -0.397 NA 
HETATM   25  H   UNL     1     -13.867  12.211  72.364  1.00  0.00     0.000 HD 
BRANCH  24  26
HETATM   26  C   UNL     1     -12.816  10.646  71.562  1.00  0.00    -0.462 A  
HETATM   27  C   UNL     1     -13.586   9.597  72.073  1.00  0.00    -0.467 A  
HETATM   28  C   UNL     1     -11.544  10.314  71.061  1.00  0.00    -0.430 A  
HETATM   29  C   UNL     1     -13.113   8.273  72.098  1.00  0.00    -0.312 A  
HETATM   30  C   UNL     1     -11.826   7.974  71.656  1.00  0.00    -0.329 A  
HETATM   31  C   UNL     1     -11.033   9.006  71.159  1.00  0.00    -0.301 A  
BRANCH  31  32
HETATM   32  S   UNL     1      -9.382   8.656  70.608  1.00  0.00    -0.200 S  
HETATM   33  O   UNL     1      -8.498   8.914  71.725  1.00  0.00    -0.321 OA 
HETATM   34  O   UNL     1      -9.388   7.366  69.954  1.00  0.00    -0.155 OA 
BRANCH  32  35
HETATM   35  N   UNL     1      -9.029   9.850  69.479  1.00  0.00    -0.198 N  
HETATM   36  C   UNL     1      -8.754  11.089  67.393  1.00  0.00    -0.132 C  
HETATM   37  C   UNL     1      -8.212   8.673  67.438  1.00  0.00    -0.105 C  
HETATM   38  C   UNL     1     -10.609   9.450  67.601  1.00  0.00    -0.333 C  
HETATM   39  C   UNL     1      -9.163   9.731  68.006  1.00  0.00    -0.124 C  
HETATM   40  H   UNL     1      -8.691  10.741  69.841  1.00  0.00     0.000 HD 
ENDBRANCH  32  35
ENDBRANCH  31  32
ENDBRANCH  24  26
ENDBRANCH   6  24
TORSDOF 10
ENDMDL
MODEL       24
REMARK 921   NORMALIZED FREE ENERGY PREDICTED BY IDOCK:   -7.15 KCAL/MOL
REMARK 922        TOTAL FREE ENERGY PREDICTED BY IDOCK:  -12.67 KCAL/MOL
REMARK 923 INTER-LIGAND FREE ENERGY PREDICTED BY IDOCK:  -10.80 KCAL/MOL
REMARK 924 INTRA-LIGAND FREE ENERGY PREDICTED BY IDOCK:   -1.87 KCAL/MOL
REMARK 927      BINDING AFFINITY PREDICTED BY RF-SCORE:    0.00 PKD
ROOT
HETATM    1  C   UNL     1     -11.826  15.199  70.661  1.00  0.00    -0.371 C  
HETATM    2  C   UNL     1     -11.842  14.346  69.433  1.00  0.00    -0.369 A  
HETATM    3  C   UNL     1     -11.802  14.961  68.194  1.00  0.00    -0.278 A  
HETATM    4  N   UNL     1     -11.809  14.307  67.025  1.00  0.00    -0.413 NA 
HETATM    5  C   UNL     1     -11.895  12.979  67.093  1.00  0.00    -0.373 A  
HETATM    6  C   UNL     1     -11.861  12.952  69.424  1.00  0.00    -0.312 A  
HETATM    7  N   UNL     1     -11.909  12.292  68.253  1.00  0.00    -0.346 NA 
ENDROOT
BRANCH   5   8
HETATM    8  N   UNL     1     -11.974  12.332  65.858  1.00  0.00    -0.597 NA 
HETATM    9  H   UNL     1     -12.881  12.391  65.394  1.00  0.00     0.000 HD 
BRANCH   8  10
HETATM   10  C   UNL     1     -10.992  11.616  65.161  1.00  0.00    -0.266 A  
HETATM   11  C   UNL     1     -10.759  11.830  63.808  1.00  0.00    -0.480 A  
HETATM   12  C   UNL     1      -9.401   9.762  65.078  1.00  0.00    -0.325 A  
HETATM   13  C   UNL     1      -9.225   9.955  63.710  1.00  0.00    -0.243 A  
HETATM   14  C   UNL     1      -9.889  11.019  63.089  1.00  0.00    -0.398 A  
HETATM   15  C   UNL     1     -10.282  10.587  65.799  1.00  0.00    -0.310 A  
BRANCH  13  16
HETATM   16  O   UNL     1      -8.421   9.061  63.038  1.00  0.00    -0.193 OA 
BRANCH  16  17
HETATM   17  C   UNL     1      -7.919   8.037  63.900  1.00  0.00    -0.128 C  
BRANCH  17  18
HETATM   18  C   UNL     1      -7.856   6.647  63.266  1.00  0.00    -0.108 C  
BRANCH  18  19
HETATM   19  N   UNL     1      -8.325   5.652  64.243  1.00  0.00    -0.115 NA 
HETATM   20  C   UNL     1      -7.278   5.161  65.149  1.00  0.00    -0.067 C  
HETATM   21  C   UNL     1      -8.923   4.474  63.628  1.00  0.00    -0.130 C  
HETATM   22  C   UNL     1      -7.753   3.788  65.602  1.00  0.00    -0.086 C  
HETATM   23  C   UNL     1      -9.031   3.535  64.818  1.00  0.00    -0.129 C  
ENDBRANCH  18  19
ENDBRANCH  17  18
ENDBRANCH  16  17
ENDBRANCH  13  16
ENDBRANCH   8  10
ENDBRANCH   5   8
BRANCH   6  24
HETATM   24  N   UNL     1     -11.936  12.251  70.657  1.00  0.00    -0.503 NA 
HETATM   25  H   UNL     1     -11.616  12.800  71.456  1.00  0.00     0.000 HD 
BRANCH  24  26
HETATM   26  C   UNL     1     -12.364  10.946  71.005  1.00  0.00    -0.393 A  
HETATM   27  C   UNL     1     -13.443  10.660  71.847  1.00  0.00    -0.341 A  
HETATM   28  C   UNL     1     -11.561   9.859  70.611  1.00  0.00    -0.413 A  
HETATM   29  C   UNL     1     -13.712   9.353  72.290  1.00  0.00    -0.495 A  
HETATM   30  C   UNL     1     -12.869   8.300  71.941  1.00  0.00    -0.371 A  
HETATM   31  C   UNL     1     -11.776   8.564  71.117  1.00  0.00    -0.281 A  
BRANCH  31  32
HETATM   32  S   UNL     1     -10.675   7.244  70.673  1.00  0.00    -0.241 S  
HETATM   33  O   UNL     1      -9.337   7.799  70.644  1.00  0.00    -0.161 OA 
HETATM   34  O   UNL     1     -10.982   6.100  71.502  1.00  0.00    -0.254 OA 
BRANCH  32  35
HETATM   35  N   UNL     1     -11.039   6.884  69.072  1.00  0.00    -0.466 N  
HETATM   36  C   UNL     1     -10.904   6.116  66.758  1.00  0.00    -0.360 C  
HETATM   37  C   UNL     1      -8.934   7.218  67.777  1.00  0.00    -0.126 C  
HETATM   38  C   UNL     1      -9.635   4.908  68.520  1.00  0.00    -0.210 C  
HETATM   39  C   UNL     1     -10.115   6.289  68.075  1.00  0.00    -0.152 C  
HETATM   40  H   UNL     1     -11.985   7.095  68.756  1.00  0.00     0.000 HD 
ENDBRANCH  32  35
ENDBRANCH  31  32
ENDBRANCH  24  26
ENDBRANCH   6  24
TORSDOF 10
ENDMDL
MODEL       25
REMARK 921   NORMALIZED FREE ENERGY PREDICTED BY IDOCK:   -7.15 KCAL/MOL
REMARK 922        TOTAL FREE ENERGY PREDICTED BY IDOCK:  -12.67 KCAL/MOL
REMARK 923 INTER-LIGAND FREE ENERGY PREDICTED BY IDOCK:  -10.82 KCAL/MOL
REMARK 924 INTRA-LIGAND FREE ENERGY PREDICTED BY IDOCK:   -1.85 KCAL/MOL
REMARK 927      BINDING AFFINITY PREDICTED BY RF-SCORE:    0.00 PKD
ROOT
HETATM    1  C   UNL     1     -12.365  11.897  63.416  1.00  0.00    -0.577 C  
HETATM    2  C   UNL     1     -11.882  12.718  64.568  1.00  0.00    -0.436 A  
HETATM    3  C   UNL     1     -12.778  13.552  65.214  1.00  0.00    -0.427 A  
HETATM    4  N   UNL     1     -12.468  14.332  66.257  1.00  0.00    -0.399 NA 
HETATM    5  C   UNL     1     -11.196  14.306  66.655  1.00  0.00    -0.334 A  
HETATM    6  C   UNL     1     -10.588  12.693  65.085  1.00  0.00    -0.298 A  
HETATM    7  N   UNL     1     -10.261  13.504  66.107  1.00  0.00    -0.296 NA 
ENDROOT
BRANCH   5   8
HETATM    8  N   UNL     1     -10.889  15.185  67.696  1.00  0.00    -0.287 NA 
HETATM    9  H   UNL     1     -10.886  14.770  68.628  1.00  0.00     0.000 HD 
BRANCH   8  10
HETATM   10  C   UNL     1     -10.585  16.552  67.650  1.00  0.00    -0.321 A  
HETATM   11  C   UNL     1     -10.322  17.197  66.448  1.00  0.00    -0.307 A  
HETATM   12  C   UNL     1      -9.993  18.617  68.816  1.00  0.00    -0.427 A  
HETATM   13  C   UNL     1      -9.678  19.228  67.605  1.00  0.00    -0.328 A  
HETATM   14  C   UNL     1      -9.879  18.515  66.418  1.00  0.00    -0.376 A  
HETATM   15  C   UNL     1     -10.442  17.285  68.838  1.00  0.00    -0.327 A  
BRANCH  13  16
HETATM   16  O   UNL     1      -9.158  20.503  67.650  1.00  0.00    -0.306 OA 
BRANCH  16  17
HETATM   17  C   UNL     1      -7.801  20.545  67.203  1.00  0.00    -0.315 C  
BRANCH  17  18
HETATM   18  C   UNL     1      -6.762  20.346  68.307  1.00  0.00    -0.278 C  
BRANCH  18  19
HETATM   19  N   UNL     1      -6.047  19.082  68.070  1.00  0.00    -0.216 NA 
HETATM   20  C   UNL     1      -6.199  18.552  66.709  1.00  0.00    -0.170 C  
HETATM   21  C   UNL     1      -6.447  18.012  68.975  1.00  0.00    -0.240 C  
HETATM   22  C   UNL     1      -5.965  17.053  66.834  1.00  0.00    -0.226 C  
HETATM   23  C   UNL     1      -5.792  16.806  68.324  1.00  0.00    -0.121 C  
ENDBRANCH  18  19
ENDBRANCH  17  18
ENDBRANCH  16  17
ENDBRANCH  13  16
ENDBRANCH   8  10
ENDBRANCH   5   8
BRANCH   6  24
HETATM   24  N   UNL     1      -9.605  11.886  64.455  1.00  0.00    -0.453 NA 
HETATM   25  H   UNL     1      -9.181  12.327  63.637  1.00  0.00     0.000 HD 
BRANCH  24  26
HETATM   26  C   UNL     1      -9.090  10.595  64.727  1.00  0.00    -0.209 A  
HETATM   27  C   UNL     1      -8.265   9.867  63.864  1.00  0.00    -0.156 A  
HETATM   28  C   UNL     1      -9.559   9.923  65.871  1.00  0.00    -0.300 A  
HETATM   29  C   UNL     1      -7.926   8.526  64.115  1.00  0.00    -0.150 A  
HETATM   30  C   UNL     1      -8.453   7.859  65.219  1.00  0.00    -0.119 A  
HETATM   31  C   UNL     1      -9.292   8.558  66.085  1.00  0.00    -0.214 A  
BRANCH  31  32
HETATM   32  S   UNL     1      -9.992   7.726  67.488  1.00  0.00    -0.205 S  
HETATM   33  O   UNL     1     -10.957   6.773  66.980  1.00  0.00    -0.377 OA 
HETATM   34  O   UNL     1      -8.909   7.296  68.345  1.00  0.00    -0.129 OA 
BRANCH  32  35
HETATM   35  N   UNL     1     -10.902   8.893  68.286  1.00  0.00    -0.458 N  
HETATM   36  C   UNL     1     -11.679  10.557  69.896  1.00  0.00    -0.372 C  
HETATM   37  C   UNL     1     -10.556   8.511  70.726  1.00  0.00    -0.244 C  
HETATM   38  C   UNL     1      -9.240  10.287  69.503  1.00  0.00    -0.191 C  
HETATM   39  C   UNL     1     -10.566   9.532  69.583  1.00  0.00    -0.228 C  
HETATM   40  H   UNL     1     -11.767   9.191  67.836  1.00  0.00     0.000 HD 
ENDBRANCH  32  35
ENDBRANCH  31  32
ENDBRANCH  24  26
ENDBRANCH   6  24
TORSDOF 10
ENDMDL
MODEL       26
REMARK 921   NORMALIZED FREE ENERGY PREDICTED BY IDOCK:   -7.14 KCAL/MOL
REMARK 922        TOTAL FREE ENERGY PREDICTED BY IDOCK:  -12.66 KCAL/MOL
REMARK 923 INTER-LIGAND FREE ENERGY PREDICTED BY IDOCK:  -10.96 KCAL/MOL
REMARK 924 INTRA-LIGAND FREE ENERGY PREDICTED BY IDOCK:   -1.70 KCAL/MOL
REMARK 927      BINDING AFFINITY PREDICTED BY RF-SCORE:    0.00 PKD
ROOT
HETATM    1  C   UNL     1     -12.340  14.804  73.362  1.00  0.00    -0.454 C  
HETATM    2  C   UNL     1     -12.246  14.771  71.870  1.00  0.00    -0.415 A  
HETATM    3  C   UNL     1     -11.761  15.885  71.208  1.00  0.00    -0.448 A  
HETATM    4  N   UNL     1     -11.627  15.976  69.878  1.00  0.00    -0.320 NA 
HETATM    5  C   UNL     1     -12.028  14.919  69.172  1.00  0.00    -0.278 A  
HETATM    6  C   UNL     1     -12.579  13.680  71.069  1.00  0.00    -0.363 A  
HETATM    7  N   UNL     1     -12.485  13.780  69.731  1.00  0.00    -0.241 NA 
ENDROOT
BRANCH   5   8
HETATM    8  N   UNL     1     -11.945  15.074  67.786  1.00  0.00    -0.478 NA 
HETATM    9  H   UNL     1     -12.056  16.030  67.449  1.00  0.00     0.000 HD 
BRANCH   8  10
HETATM   10  C   UNL     1     -11.730  14.110  66.792  1.00  0.00    -0.410 A  
HETATM   11  C   UNL     1     -10.474  13.557  66.575  1.00  0.00    -0.284 A  
HETATM   12  C   UNL     1     -12.535  12.897  64.829  1.00  0.00    -0.517 A  
HETATM   13  C   UNL     1     -11.256  12.400  64.593  1.00  0.00    -0.312 A  
HETATM   14  C   UNL     1     -10.234  12.712  65.498  1.00  0.00    -0.298 A  
HETATM   15  C   UNL     1     -12.770  13.749  65.921  1.00  0.00    -0.452 A  
BRANCH  13  16
HETATM   16  O   UNL     1     -11.064  11.644  63.457  1.00  0.00    -0.405 OA 
BRANCH  16  17
HETATM   17  C   UNL     1      -9.680  11.516  63.125  1.00  0.00    -0.390 C  
BRANCH  17  18
HETATM   18  C   UNL     1      -9.288  10.155  62.550  1.00  0.00    -0.285 C  
BRANCH  18  19
HETATM   19  N   UNL     1      -8.467   9.436  63.537  1.00  0.00    -0.189 NA 
HETATM   20  C   UNL     1      -8.090   8.077  63.128  1.00  0.00    -0.114 C  
HETATM   21  C   UNL     1      -9.105   9.311  64.840  1.00  0.00    -0.170 C  
HETATM   22  C   UNL     1      -7.834   7.324  64.425  1.00  0.00    -0.126 C  
HETATM   23  C   UNL     1      -8.194   8.308  65.527  1.00  0.00    -0.138 C  
ENDBRANCH  18  19
ENDBRANCH  17  18
ENDBRANCH  16  17
ENDBRANCH  13  16
ENDBRANCH   8  10
ENDBRANCH   5   8
BRANCH   6  24
HETATM   24  N   UNL     1     -13.115  12.512  71.673  1.00  0.00    -0.376 NA 
HETATM   25  H   UNL     1     -13.831  12.710  72.373  1.00  0.00     0.000 HD 
BRANCH  24  26
HETATM   26  C   UNL     1     -12.859  11.129  71.505  1.00  0.00    -0.437 A  
HETATM   27  C   UNL     1     -13.368  10.119  72.328  1.00  0.00    -0.337 A  
HETATM   28  C   UNL     1     -11.905  10.744  70.545  1.00  0.00    -0.453 A  
HETATM   29  C   UNL     1     -12.942   8.784  72.214  1.00  0.00    -0.462 A  
HETATM   30  C   UNL     1     -11.949   8.434  71.301  1.00  0.00    -0.323 A  
HETATM   31  C   UNL     1     -11.414   9.427  70.482  1.00  0.00    -0.262 A  
BRANCH  31  32
HETATM   32  S   UNL     1     -10.135   9.011  69.324  1.00  0.00    -0.201 S  
HETATM   33  O   UNL     1      -9.965   7.574  69.377  1.00  0.00    -0.172 OA 
HETATM   34  O   UNL     1     -10.426   9.675  68.072  1.00  0.00    -0.203 OA 
BRANCH  32  35
HETATM   35  N   UNL     1      -8.723   9.649  69.975  1.00  0.00    -0.218 N  
HETATM   36  C   UNL     1      -6.500  10.624  70.238  1.00  0.00    -0.138 C  
HETATM   37  C   UNL     1      -6.862   8.905  68.492  1.00  0.00    -0.064 C  
HETATM   38  C   UNL     1      -7.861  11.212  68.245  1.00  0.00    -0.123 C  
HETATM   39  C   UNL     1      -7.523  10.082  69.216  1.00  0.00    -0.103 C  
HETATM   40  H   UNL     1      -8.687   9.748  70.990  1.00  0.00     0.000 HD 
ENDBRANCH  32  35
ENDBRANCH  31  32
ENDBRANCH  24  26
ENDBRANCH   6  24
TORSDOF 10
ENDMDL
MODEL       27
REMARK 921   NORMALIZED FREE ENERGY PREDICTED BY IDOCK:   -7.12 KCAL/MOL
REMARK 922        TOTAL FREE ENERGY PREDICTED BY IDOCK:  -12.64 KCAL/MOL
REMARK 923 INTER-LIGAND FREE ENERGY PREDICTED BY IDOCK:  -10.75 KCAL/MOL
REMARK 924 INTRA-LIGAND FREE ENERGY PREDICTED BY IDOCK:   -1.89 KCAL/MOL
REMARK 927      BINDING AFFINITY PREDICTED BY RF-SCORE:    0.00 PKD
ROOT
HETATM    1  C   UNL     1     -12.631   7.164  71.526  1.00  0.00    -0.427 C  
HETATM    2  C   UNL     1     -11.433   7.793  70.890  1.00  0.00    -0.294 A  
HETATM    3  C   UNL     1     -10.316   7.011  70.654  1.00  0.00    -0.207 A  
HETATM    4  N   UNL     1      -9.186   7.457  70.090  1.00  0.00    -0.152 NA 
HETATM    5  C   UNL     1      -9.156   8.753  69.777  1.00  0.00    -0.151 A  
HETATM    6  C   UNL     1     -11.350   9.121  70.473  1.00  0.00    -0.257 A  
HETATM    7  N   UNL     1     -10.204   9.584  69.942  1.00  0.00    -0.214 NA 
ENDROOT
BRANCH   5   8
HETATM    8  N   UNL     1      -7.939   9.202  69.259  1.00  0.00    -0.094 NA 
HETATM    9  H   UNL     1      -7.212   8.491  69.177  1.00  0.00     0.000 HD 
BRANCH   8  10
HETATM   10  C   UNL     1      -7.569  10.485  68.834  1.00  0.00    -0.108 A  
HETATM   11  C   UNL     1      -7.953  10.978  67.592  1.00  0.00    -0.115 A  
HETATM   12  C   UNL     1      -6.215  12.496  69.145  1.00  0.00    -0.094 A  
HETATM   13  C   UNL     1      -6.564  12.945  67.874  1.00  0.00    -0.125 A  
HETATM   14  C   UNL     1      -7.465  12.189  67.115  1.00  0.00    -0.129 A  
HETATM   15  C   UNL     1      -6.714  11.271  69.621  1.00  0.00    -0.122 A  
BRANCH  13  16
HETATM   16  O   UNL     1      -5.975  14.107  67.423  1.00  0.00    -0.348 OA 
BRANCH  16  17
HETATM   17  C   UNL     1      -6.635  15.272  67.923  1.00  0.00    -0.157 C  
BRANCH  17  18
HETATM   18  C   UNL     1      -7.537  15.976  66.908  1.00  0.00    -0.233 C  
BRANCH  18  19
HETATM   19  N   UNL     1      -8.309  17.021  67.596  1.00  0.00    -0.188 NA 
HETATM   20  C   UNL     1      -9.162  17.821  66.707  1.00  0.00    -0.273 C  
HETATM   21  C   UNL     1      -7.478  17.967  68.330  1.00  0.00    -0.272 C  
HETATM   22  C   UNL     1      -9.354  19.150  67.425  1.00  0.00    -0.356 C  
HETATM   23  C   UNL     1      -8.485  19.053  68.669  1.00  0.00    -0.394 C  
ENDBRANCH  18  19
ENDBRANCH  17  18
ENDBRANCH  16  17
ENDBRANCH  13  16
ENDBRANCH   8  10
ENDBRANCH   5   8
BRANCH   6  24
HETATM   24  N   UNL     1     -12.445   9.993  70.711  1.00  0.00    -0.410 NA 
HETATM   25  H   UNL     1     -13.350   9.523  70.687  1.00  0.00     0.000 HD 
BRANCH  24  26
HETATM   26  C   UNL     1     -12.538  11.382  70.977  1.00  0.00    -0.386 A  
HETATM   27  C   UNL     1     -13.328  11.949  71.981  1.00  0.00    -0.425 A  
HETATM   28  C   UNL     1     -11.921  12.271  70.077  1.00  0.00    -0.379 A  
HETATM   29  C   UNL     1     -13.510  13.339  72.085  1.00  0.00    -0.655 A  
HETATM   30  C   UNL     1     -12.943  14.199  71.146  1.00  0.00    -0.419 A  
HETATM   31  C   UNL     1     -12.166  13.655  70.126  1.00  0.00    -0.342 A  
BRANCH  31  32
HETATM   32  S   UNL     1     -11.448  14.726  68.906  1.00  0.00    -0.315 S  
HETATM   33  O   UNL     1     -11.817  16.081  69.261  1.00  0.00    -0.345 OA 
HETATM   34  O   UNL     1     -10.059  14.357  68.741  1.00  0.00    -0.236 OA 
BRANCH  32  35
HETATM   35  N   UNL     1     -12.282  14.399  67.483  1.00  0.00    -0.619 N  
HETATM   36  C   UNL     1     -12.877  13.624  65.246  1.00  0.00    -0.421 C  
HETATM   37  C   UNL     1     -10.614  14.553  65.636  1.00  0.00    -0.343 C  
HETATM   38  C   UNL     1     -11.261  12.310  66.602  1.00  0.00    -0.367 C  
HETATM   39  C   UNL     1     -11.733  13.727  66.279  1.00  0.00    -0.376 C  
HETATM   40  H   UNL     1     -13.259  14.690  67.444  1.00  0.00     0.000 HD 
ENDBRANCH  32  35
ENDBRANCH  31  32
ENDBRANCH  24  26
ENDBRANCH   6  24
TORSDOF 10
ENDMDL
MODEL       28
REMARK 921   NORMALIZED FREE ENERGY PREDICTED BY IDOCK:   -7.09 KCAL/MOL
REMARK 922        TOTAL FREE ENERGY PREDICTED BY IDOCK:  -12.59 KCAL/MOL
REMARK 923 INTER-LIGAND FREE ENERGY PREDICTED BY IDOCK:  -11.49 KCAL/MOL
REMARK 924 INTRA-LIGAND FREE ENERGY PREDICTED BY IDOCK:   -1.09 KCAL/MOL
REMARK 927      BINDING AFFINITY PREDICTED BY RF-SCORE:    0.00 PKD
ROOT
HETATM    1  C   UNL     1      -8.675   5.593  65.169  1.00  0.00    -0.096 C  
HETATM    2  C   UNL     1      -9.344   5.805  66.490  1.00  0.00    -0.162 A  
HETATM    3  C   UNL     1      -9.549   4.714  67.316  1.00  0.00    -0.175 A  
HETATM    4  N   UNL     1     -10.133   4.776  68.520  1.00  0.00    -0.094 NA 
HETATM    5  C   UNL     1     -10.565   5.978  68.904  1.00  0.00    -0.290 A  
HETATM    6  C   UNL     1      -9.760   7.038  66.990  1.00  0.00    -0.167 A  
HETATM    7  N   UNL     1     -10.383   7.100  68.180  1.00  0.00    -0.188 NA 
ENDROOT
BRANCH   5   8
HETATM    8  N   UNL     1     -11.234   5.995  70.130  1.00  0.00    -0.369 NA 
HETATM    9  H   UNL     1     -11.329   5.088  70.586  1.00  0.00     0.000 HD 
BRANCH   8  10
HETATM   10  C   UNL     1     -11.792   7.076  70.826  1.00  0.00    -0.355 A  
HETATM   11  C   UNL     1     -13.136   7.096  71.180  1.00  0.00    -0.294 A  
HETATM   12  C   UNL     1     -11.602   9.365  71.661  1.00  0.00    -0.466 A  
HETATM   13  C   UNL     1     -12.963   9.387  71.955  1.00  0.00    -0.417 A  
HETATM   14  C   UNL     1     -13.718   8.227  71.739  1.00  0.00    -0.420 A  
HETATM   15  C   UNL     1     -11.021   8.216  71.097  1.00  0.00    -0.271 A  
BRANCH  13  16
HETATM   16  O   UNL     1     -13.497  10.568  72.421  1.00  0.00    -0.258 OA 
BRANCH  16  17
HETATM   17  C   UNL     1     -13.000  11.701  71.705  1.00  0.00    -0.378 C  
BRANCH  17  18
HETATM   18  C   UNL     1     -13.632  13.034  72.107  1.00  0.00    -0.526 C  
BRANCH  18  19
HETATM   19  N   UNL     1     -12.595  14.078  72.097  1.00  0.00    -0.243 NA 
HETATM   20  C   UNL     1     -12.634  14.972  73.262  1.00  0.00    -0.485 C  
HETATM   21  C   UNL     1     -12.647  14.935  70.919  1.00  0.00    -0.341 C  
HETATM   22  C   UNL     1     -11.980  16.266  72.796  1.00  0.00    -0.636 C  
HETATM   23  C   UNL     1     -11.697  16.052  71.318  1.00  0.00    -0.516 C  
ENDBRANCH  18  19
ENDBRANCH  17  18
ENDBRANCH  16  17
ENDBRANCH  13  16
ENDBRANCH   8  10
ENDBRANCH   5   8
BRANCH   6  24
HETATM   24  N   UNL     1      -9.613   8.199  66.185  1.00  0.00    -0.412 NA 
HETATM   25  H   UNL     1      -9.728   8.018  65.188  1.00  0.00     0.000 HD 
BRANCH  24  26
HETATM   26  C   UNL     1      -9.340   9.557  66.484  1.00  0.00    -0.171 A  
HETATM   27  C   UNL     1      -8.465   9.993  67.482  1.00  0.00    -0.118 A  
HETATM   28  C   UNL     1     -10.115  10.543  65.844  1.00  0.00    -0.323 A  
HETATM   29  C   UNL     1      -8.366  11.348  67.843  1.00  0.00    -0.137 A  
HETATM   30  C   UNL     1      -9.187  12.301  67.243  1.00  0.00    -0.185 A  
HETATM   31  C   UNL     1     -10.081  11.888  66.258  1.00  0.00    -0.220 A  
BRANCH  31  32
HETATM   32  S   UNL     1     -11.152  13.078  65.492  1.00  0.00    -0.280 S  
HETATM   33  O   UNL     1     -10.514  13.491  64.259  1.00  0.00    -0.414 OA 
HETATM   34  O   UNL     1     -12.494  12.541  65.485  1.00  0.00    -0.646 OA 
BRANCH  32  35
HETATM   35  N   UNL     1     -11.099  14.429  66.491  1.00  0.00    -0.324 N  
HETATM   36  C   UNL     1     -10.702  16.670  67.376  1.00  0.00    -0.253 C  
HETATM   37  C   UNL     1      -8.957  15.600  65.982  1.00  0.00    -0.297 C  
HETATM   38  C   UNL     1     -11.125  16.377  64.945  1.00  0.00    -0.249 C  
HETATM   39  C   UNL     1     -10.471  15.735  66.168  1.00  0.00    -0.317 C  
HETATM   40  H   UNL     1     -11.540  14.343  67.406  1.00  0.00     0.000 HD 
ENDBRANCH  32  35
ENDBRANCH  31  32
ENDBRANCH  24  26
ENDBRANCH   6  24
TORSDOF 10
ENDMDL
MODEL       29
REMARK 921   NORMALIZED FREE ENERGY PREDICTED BY IDOCK:   -7.08 KCAL/MOL
REMARK 922        TOTAL FREE ENERGY PREDICTED BY IDOCK:  -12.57 KCAL/MOL
REMARK 923 INTER-LIGAND FREE ENERGY PREDICTED BY IDOCK:  -11.35 KCAL/MOL
REMARK 924 INTRA-LIGAND FREE ENERGY PREDICTED BY IDOCK:   -1.22 KCAL/MOL
REMARK 927      BINDING AFFINITY PREDICTED BY RF-SCORE:    0.00 PKD
ROOT
HETATM    1  C   UNL     1     -10.223  18.105  68.290  1.00  0.00    -0.402 C  
HETATM    2  C   UNL     1     -10.572  16.831  67.590  1.00  0.00    -0.325 A  
HETATM    3  C   UNL     1     -10.205  16.676  66.265  1.00  0.00    -0.334 A  
HETATM    4  N   UNL     1     -10.458  15.584  65.532  1.00  0.00    -0.357 NA 
HETATM    5  C   UNL     1     -11.140  14.613  66.139  1.00  0.00    -0.334 A  
HETATM    6  C   UNL     1     -11.220  15.744  68.176  1.00  0.00    -0.344 A  
HETATM    7  N   UNL     1     -11.513  14.661  67.434  1.00  0.00    -0.356 NA 
ENDROOT
BRANCH   5   8
HETATM    8  N   UNL     1     -11.451  13.520  65.327  1.00  0.00    -0.295 NA 
HETATM    9  H   UNL     1     -12.384  13.536  64.916  1.00  0.00     0.000 HD 
BRANCH   8  10
HETATM   10  C   UNL     1     -10.671  12.405  64.994  1.00  0.00    -0.294 A  
HETATM   11  C   UNL     1     -10.447  12.043  63.671  1.00  0.00    -0.494 A  
HETATM   12  C   UNL     1      -9.516  10.363  65.682  1.00  0.00    -0.262 A  
HETATM   13  C   UNL     1      -9.353   9.989  64.351  1.00  0.00    -0.290 A  
HETATM   14  C   UNL     1      -9.796  10.858  63.347  1.00  0.00    -0.408 A  
HETATM   15  C   UNL     1     -10.173  11.564  66.002  1.00  0.00    -0.283 A  
BRANCH  13  16
HETATM   16  O   UNL     1      -8.783   8.760  64.098  1.00  0.00    -0.127 OA 
BRANCH  16  17
HETATM   17  C   UNL     1      -8.171   8.203  65.264  1.00  0.00    -0.149 C  
BRANCH  17  18
HETATM   18  C   UNL     1      -7.721   6.750  65.111  1.00  0.00    -0.105 C  
BRANCH  18  19
HETATM   19  N   UNL     1      -8.781   5.864  65.617  1.00  0.00    -0.154 NA 
HETATM   20  C   UNL     1      -9.617   6.465  66.664  1.00  0.00    -0.157 C  
HETATM   21  C   UNL     1      -8.277   4.610  66.162  1.00  0.00    -0.107 C  
HETATM   22  C   UNL     1     -10.175   5.291  67.456  1.00  0.00    -0.229 C  
HETATM   23  C   UNL     1      -9.516   4.062  66.851  1.00  0.00    -0.220 C  
ENDBRANCH  18  19
ENDBRANCH  17  18
ENDBRANCH  16  17
ENDBRANCH  13  16
ENDBRANCH   8  10
ENDBRANCH   5   8
BRANCH   6  24
HETATM   24  N   UNL     1     -11.657  15.841  69.523  1.00  0.00    -0.347 NA 
HETATM   25  H   UNL     1     -11.406  16.724  69.969  1.00  0.00     0.000 HD 
BRANCH  24  26
HETATM   26  C   UNL     1     -12.370  14.963  70.377  1.00  0.00    -0.345 A  
HETATM   27  C   UNL     1     -13.072  15.358  71.519  1.00  0.00    -0.545 A  
HETATM   28  C   UNL     1     -12.240  13.578  70.160  1.00  0.00    -0.400 A  
HETATM   29  C   UNL     1     -13.615  14.423  72.417  1.00  0.00    -0.578 A  
HETATM   30  C   UNL     1     -13.421  13.057  72.219  1.00  0.00    -0.645 A  
HETATM   31  C   UNL     1     -12.709  12.640  71.097  1.00  0.00    -0.254 A  
BRANCH  31  32
HETATM   32  S   UNL     1     -12.431  10.906  70.831  1.00  0.00    -0.426 S  
HETATM   33  O   UNL     1     -12.541  10.256  72.120  1.00  0.00    -0.309 OA 
HETATM   34  O   UNL     1     -13.250  10.483  69.717  1.00  0.00     0.007 OA 
BRANCH  32  35
HETATM   35  N   UNL     1     -10.809  10.778  70.408  1.00  0.00    -0.416 N  
HETATM   36  C   UNL     1      -8.581   9.907  69.918  1.00  0.00    -0.216 C  
HETATM   37  C   UNL     1      -9.853   8.959  71.820  1.00  0.00    -0.386 C  
HETATM   38  C   UNL     1     -10.572   8.499  69.443  1.00  0.00    -0.203 C  
HETATM   39  C   UNL     1      -9.998   9.535  70.408  1.00  0.00    -0.267 C  
HETATM   40  H   UNL     1     -10.337  11.636  70.123  1.00  0.00     0.000 HD 
ENDBRANCH  32  35
ENDBRANCH  31  32
ENDBRANCH  24  26
ENDBRANCH   6  24
TORSDOF 10
ENDMDL
MODEL       30
REMARK 921   NORMALIZED FREE ENERGY PREDICTED BY IDOCK:   -7.08 KCAL/MOL
REMARK 922        TOTAL FREE ENERGY PREDICTED BY IDOCK:  -12.57 KCAL/MOL
REMARK 923 INTER-LIGAND FREE ENERGY PREDICTED BY IDOCK:  -10.67 KCAL/MOL
REMARK 924 INTRA-LIGAND FREE ENERGY PREDICTED BY IDOCK:   -1.90 KCAL/MOL
REMARK 927      BINDING AFFINITY PREDICTED BY RF-SCORE:    0.00 PKD
ROOT
HETATM    1  C   UNL     1     -10.295   8.137  69.125  1.00  0.00    -0.228 C  
HETATM    2  C   UNL     1      -9.213   9.166  69.042  1.00  0.00    -0.143 A  
HETATM    3  C   UNL     1      -8.468   9.444  70.175  1.00  0.00    -0.205 A  
HETATM    4  N   UNL     1      -7.474  10.340  70.226  1.00  0.00    -0.226 NA 
HETATM    5  C   UNL     1      -7.232  11.016  69.103  1.00  0.00    -0.121 A  
HETATM    6  C   UNL     1      -8.855   9.863  67.889  1.00  0.00    -0.129 A  
HETATM    7  N   UNL     1      -7.885  10.793  67.944  1.00  0.00    -0.107 NA 
ENDROOT
BRANCH   5   8
HETATM    8  N   UNL     1      -6.240  11.994  69.209  1.00  0.00    -0.087 NA 
HETATM    9  H   UNL     1      -5.312  11.646  69.451  1.00  0.00     0.000 HD 
BRANCH   8  10
HETATM   10  C   UNL     1      -6.332  13.381  69.033  1.00  0.00    -0.097 A  
HETATM   11  C   UNL     1      -6.421  13.948  67.767  1.00  0.00    -0.178 A  
HETATM   12  C   UNL     1      -6.178  15.635  69.964  1.00  0.00    -0.135 A  
HETATM   13  C   UNL     1      -6.209  16.182  68.684  1.00  0.00    -0.117 A  
HETATM   14  C   UNL     1      -6.364  15.325  67.588  1.00  0.00    -0.171 A  
HETATM   15  C   UNL     1      -6.237  14.241  70.137  1.00  0.00    -0.161 A  
BRANCH  13  16
HETATM   16  O   UNL     1      -6.057  17.547  68.570  1.00  0.00    -0.165 OA 
BRANCH  16  17
HETATM   17  C   UNL     1      -7.307  18.235  68.654  1.00  0.00    -0.290 C  
BRANCH  17  18
HETATM   18  C   UNL     1      -7.258  19.697  68.210  1.00  0.00    -0.306 C  
BRANCH  18  19
HETATM   19  N   UNL     1      -8.561  20.068  67.637  1.00  0.00    -0.328 NA 
HETATM   20  C   UNL     1      -9.715  19.541  68.377  1.00  0.00    -0.410 C  
HETATM   21  C   UNL     1      -8.729  19.639  66.254  1.00  0.00    -0.369 C  
HETATM   22  C   UNL     1     -10.846  19.474  67.362  1.00  0.00    -0.536 C  
HETATM   23  C   UNL     1     -10.214  19.883  66.042  1.00  0.00    -0.591 C  
ENDBRANCH  18  19
ENDBRANCH  17  18
ENDBRANCH  16  17
ENDBRANCH  13  16
ENDBRANCH   8  10
ENDBRANCH   5   8
BRANCH   6  24
HETATM   24  N   UNL     1      -9.595   9.656  66.695  1.00  0.00    -0.175 NA 
HETATM   25  H   UNL     1      -9.783   8.672  66.500  1.00  0.00     0.000 HD 
BRANCH  24  26
HETATM   26  C   UNL     1     -10.125  10.535  65.718  1.00  0.00    -0.265 A  
HETATM   27  C   UNL     1      -9.836  10.474  64.352  1.00  0.00    -0.405 A  
HETATM   28  C   UNL     1     -10.870  11.644  66.160  1.00  0.00    -0.343 A  
HETATM   29  C   UNL     1     -10.257  11.475  63.459  1.00  0.00    -0.462 A  
HETATM   30  C   UNL     1     -10.938  12.598  63.925  1.00  0.00    -0.468 A  
HETATM   31  C   UNL     1     -11.222  12.689  65.287  1.00  0.00    -0.300 A  
BRANCH  31  32
HETATM   32  S   UNL     1     -12.071  14.118  65.910  1.00  0.00    -0.426 S  
HETATM   33  O   UNL     1     -11.136  15.222  65.863  1.00  0.00    -0.334 OA 
HETATM   34  O   UNL     1     -13.353  14.207  65.248  1.00  0.00    -0.715 OA 
BRANCH  32  35
HETATM   35  N   UNL     1     -12.311  13.812  67.545  1.00  0.00    -0.424 N  
HETATM   36  C   UNL     1     -12.142  13.845  69.981  1.00  0.00    -0.411 C  
HETATM   37  C   UNL     1     -10.070  13.967  68.629  1.00  0.00    -0.203 C  
HETATM   38  C   UNL     1     -11.671  15.920  68.698  1.00  0.00    -0.328 C  
HETATM   39  C   UNL     1     -11.540  14.398  68.670  1.00  0.00    -0.314 C  
HETATM   40  H   UNL     1     -13.058  13.161  67.788  1.00  0.00     0.000 HD 
ENDBRANCH  32  35
ENDBRANCH  31  32
ENDBRANCH  24  26
ENDBRANCH   6  24
TORSDOF 10
ENDMDL
MODEL       31
REMARK 921   NORMALIZED FREE ENERGY PREDICTED BY IDOCK:   -7.02 KCAL/MOL
REMARK 922        TOTAL FREE ENERGY PREDICTED BY IDOCK:  -12.47 KCAL/MOL
REMARK 923 INTER-LIGAND FREE ENERGY PREDICTED BY IDOCK:  -10.76 KCAL/MOL
REMARK 924 INTRA-LIGAND FREE ENERGY PREDICTED BY IDOCK:   -1.71 KCAL/MOL
REMARK 927      BINDING AFFINITY PREDICTED BY RF-SCORE:    0.00 PKD
ROOT
HETATM    1  C   UNL     1     -10.413   9.890  67.090  1.00  0.00    -0.305 C  
HETATM    2  C   UNL     1     -10.794  11.315  67.335  1.00  0.00    -0.311 A  
HETATM    3  C   UNL     1     -11.018  12.141  66.247  1.00  0.00    -0.295 A  
HETATM    4  N   UNL     1     -11.366  13.431  66.336  1.00  0.00    -0.305 NA 
HETATM    5  C   UNL     1     -11.463  13.932  67.568  1.00  0.00    -0.340 A  
HETATM    6  C   UNL     1     -10.982  11.892  68.590  1.00  0.00    -0.228 A  
HETATM    7  N   UNL     1     -11.292  13.197  68.685  1.00  0.00    -0.269 NA 
ENDROOT
BRANCH   5   8
HETATM    8  N   UNL     1     -11.755  15.296  67.625  1.00  0.00    -0.315 NA 
HETATM    9  H   UNL     1     -12.744  15.525  67.725  1.00  0.00     0.000 HD 
BRANCH   8  10
HETATM   10  C   UNL     1     -10.890  16.397  67.565  1.00  0.00    -0.249 A  
HETATM   11  C   UNL     1     -10.495  17.074  68.712  1.00  0.00    -0.347 A  
HETATM   12  C   UNL     1      -9.731  18.093  66.240  1.00  0.00    -0.280 A  
HETATM   13  C   UNL     1      -9.396  18.790  67.398  1.00  0.00    -0.286 A  
HETATM   14  C   UNL     1      -9.757  18.250  68.638  1.00  0.00    -0.379 A  
HETATM   15  C   UNL     1     -10.476  16.904  66.323  1.00  0.00    -0.263 A  
BRANCH  13  16
HETATM   16  O   UNL     1      -8.744  19.995  67.252  1.00  0.00    -0.319 OA 
BRANCH  16  17
HETATM   17  C   UNL     1      -7.507  20.026  67.968  1.00  0.00    -0.289 C  
BRANCH  17  18
HETATM   18  C   UNL     1      -6.332  19.378  67.234  1.00  0.00    -0.190 C  
BRANCH  18  19
HETATM   19  N   UNL     1      -5.866  18.216  68.007  1.00  0.00    -0.163 NA 
HETATM   20  C   UNL     1      -6.394  16.930  67.534  1.00  0.00    -0.155 C  
HETATM   21  C   UNL     1      -6.188  18.297  69.426  1.00  0.00    -0.257 C  
HETATM   22  C   UNL     1      -6.341  16.006  68.743  1.00  0.00    -0.117 C  
HETATM   23  C   UNL     1      -5.867  16.886  69.888  1.00  0.00    -0.226 C  
ENDBRANCH  18  19
ENDBRANCH  17  18
ENDBRANCH  16  17
ENDBRANCH  13  16
ENDBRANCH   8  10
ENDBRANCH   5   8
BRANCH   6  24
HETATM   24  N   UNL     1     -10.739  11.116  69.753  1.00  0.00    -0.462 NA 
HETATM   25  H   UNL     1      -9.769  11.149  70.068  1.00  0.00     0.000 HD 
BRANCH  24  26
HETATM   26  C   UNL     1     -11.568  10.304  70.568  1.00  0.00    -0.338 A  
HETATM   27  C   UNL     1     -12.791  10.708  71.111  1.00  0.00    -0.518 A  
HETATM   28  C   UNL     1     -11.063   9.062  70.995  1.00  0.00    -0.356 A  
HETATM   29  C   UNL     1     -13.483   9.921  72.048  1.00  0.00    -0.478 A  
HETATM   30  C   UNL     1     -12.936   8.724  72.507  1.00  0.00    -0.382 A  
HETATM   31  C   UNL     1     -11.709   8.310  71.994  1.00  0.00    -0.346 A  
BRANCH  31  32
HETATM   32  S   UNL     1     -10.980   6.799  72.575  1.00  0.00    -0.258 S  
HETATM   33  O   UNL     1     -10.384   7.084  73.864  1.00  0.00    -0.363 OA 
HETATM   34  O   UNL     1     -11.956   5.742  72.431  1.00  0.00    -0.275 OA 
BRANCH  32  35
HETATM   35  N   UNL     1      -9.686   6.505  71.544  1.00  0.00    -0.168 N  
HETATM   36  C   UNL     1      -8.270   5.627  69.759  1.00  0.00    -0.106 C  
HETATM   37  C   UNL     1      -9.775   4.079  70.974  1.00  0.00    -0.252 C  
HETATM   38  C   UNL     1     -10.721   5.808  69.393  1.00  0.00    -0.397 C  
HETATM   39  C   UNL     1      -9.651   5.511  70.443  1.00  0.00    -0.172 C  
HETATM   40  H   UNL     1      -8.845   7.064  71.688  1.00  0.00     0.000 HD 
ENDBRANCH  32  35
ENDBRANCH  31  32
ENDBRANCH  24  26
ENDBRANCH   6  24
TORSDOF 10
ENDMDL
MODEL       32
REMARK 921   NORMALIZED FREE ENERGY PREDICTED BY IDOCK:   -7.00 KCAL/MOL
REMARK 922        TOTAL FREE ENERGY PREDICTED BY IDOCK:  -12.44 KCAL/MOL
REMARK 923 INTER-LIGAND FREE ENERGY PREDICTED BY IDOCK:  -11.11 KCAL/MOL
REMARK 924 INTRA-LIGAND FREE ENERGY PREDICTED BY IDOCK:   -1.33 KCAL/MOL
REMARK 927      BINDING AFFINITY PREDICTED BY RF-SCORE:    0.00 PKD
ROOT
HETATM    1  C   UNL     1      -7.164   8.119  63.722  1.00  0.00    -0.095 C  
HETATM    2  C   UNL     1      -8.262   9.115  63.922  1.00  0.00    -0.172 A  
HETATM    3  C   UNL     1      -8.656   9.896  62.849  1.00  0.00    -0.194 A  
HETATM    4  N   UNL     1      -9.626  10.818  62.901  1.00  0.00    -0.327 NA 
HETATM    5  C   UNL     1     -10.208  10.995  64.087  1.00  0.00    -0.357 A  
HETATM    6  C   UNL     1      -8.964   9.308  65.110  1.00  0.00    -0.209 A  
HETATM    7  N   UNL     1      -9.911  10.261  65.179  1.00  0.00    -0.319 NA 
ENDROOT
BRANCH   5   8
HETATM    8  N   UNL     1     -11.163  12.013  64.126  1.00  0.00    -0.347 NA 
HETATM    9  H   UNL     1     -11.897  11.946  63.422  1.00  0.00     0.000 HD 
BRANCH   8  10
HETATM   10  C   UNL     1     -11.260  13.112  64.989  1.00  0.00    -0.298 A  
HETATM   11  C   UNL     1     -10.413  14.207  64.871  1.00  0.00    -0.461 A  
HETATM   12  C   UNL     1     -12.169  14.115  67.024  1.00  0.00    -0.374 A  
HETATM   13  C   UNL     1     -11.272  15.174  66.921  1.00  0.00    -0.292 A  
HETATM   14  C   UNL     1     -10.415  15.227  65.815  1.00  0.00    -0.365 A  
HETATM   15  C   UNL     1     -12.162  13.089  66.065  1.00  0.00    -0.463 A  
BRANCH  13  16
HETATM   16  O   UNL     1     -11.262  16.105  67.938  1.00  0.00    -0.325 OA 
BRANCH  16  17
HETATM   17  C   UNL     1     -11.736  15.557  69.170  1.00  0.00    -0.365 C  
BRANCH  17  18
HETATM   18  C   UNL     1     -11.011  16.072  70.415  1.00  0.00    -0.336 C  
BRANCH  18  19
HETATM   19  N   UNL     1     -11.562  15.400  71.602  1.00  0.00    -0.389 NA 
HETATM   20  C   UNL     1     -12.698  14.514  71.318  1.00  0.00    -0.342 C  
HETATM   21  C   UNL     1     -12.009  16.324  72.635  1.00  0.00    -0.546 C  
HETATM   22  C   UNL     1     -13.480  14.433  72.621  1.00  0.00    -0.605 C  
HETATM   23  C   UNL     1     -12.771  15.393  73.564  1.00  0.00    -0.689 C  
ENDBRANCH  18  19
ENDBRANCH  17  18
ENDBRANCH  16  17
ENDBRANCH  13  16
ENDBRANCH   8  10
ENDBRANCH   5   8
BRANCH   6  24
HETATM   24  N   UNL     1      -8.594   8.567  66.263  1.00  0.00    -0.122 NA 
HETATM   25  H   UNL     1      -7.598   8.619  66.476  1.00  0.00     0.000 HD 
BRANCH  24  26
HETATM   26  C   UNL     1      -9.326   7.770  67.179  1.00  0.00    -0.150 A  
HETATM   27  C   UNL     1     -10.015   6.601  66.843  1.00  0.00    -0.238 A  
HETATM   28  C   UNL     1      -9.508   8.261  68.485  1.00  0.00    -0.149 A  
HETATM   29  C   UNL     1     -10.860   5.949  67.758  1.00  0.00    -0.326 A  
HETATM   30  C   UNL     1     -11.078   6.485  69.025  1.00  0.00    -0.375 A  
HETATM   31  C   UNL     1     -10.416   7.660  69.376  1.00  0.00    -0.220 A  
BRANCH  31  32
HETATM   32  S   UNL     1     -10.691   8.375  70.978  1.00  0.00    -0.233 S  
HETATM   33  O   UNL     1     -11.171   9.725  70.763  1.00  0.00    -0.293 OA 
HETATM   34  O   UNL     1     -11.455   7.436  71.767  1.00  0.00    -0.252 OA 
BRANCH  32  35
HETATM   35  N   UNL     1      -9.161   8.553  71.652  1.00  0.00    -0.212 N  
HETATM   36  C   UNL     1      -7.089   8.167  72.885  1.00  0.00    -0.130 C  
HETATM   37  C   UNL     1      -9.235   7.426  73.876  1.00  0.00    -0.312 C  
HETATM   38  C   UNL     1      -8.277   6.238  71.863  1.00  0.00    -0.110 C  
HETATM   39  C   UNL     1      -8.482   7.587  72.551  1.00  0.00    -0.116 C  
HETATM   40  H   UNL     1      -8.651   9.405  71.421  1.00  0.00     0.000 HD 
ENDBRANCH  32  35
ENDBRANCH  31  32
ENDBRANCH  24  26
ENDBRANCH   6  24
TORSDOF 10
ENDMDL
MODEL       33
REMARK 921   NORMALIZED FREE ENERGY PREDICTED BY IDOCK:   -6.99 KCAL/MOL
REMARK 922        TOTAL FREE ENERGY PREDICTED BY IDOCK:  -12.43 KCAL/MOL
REMARK 923 INTER-LIGAND FREE ENERGY PREDICTED BY IDOCK:  -10.18 KCAL/MOL
REMARK 924 INTRA-LIGAND FREE ENERGY PREDICTED BY IDOCK:   -2.25 KCAL/MOL
REMARK 927      BINDING AFFINITY PREDICTED BY RF-SCORE:    0.00 PKD
ROOT
HETATM    1  C   UNL     1      -9.086  11.308  62.941  1.00  0.00    -0.299 C  
HETATM    2  C   UNL     1      -8.881  10.322  64.047  1.00  0.00    -0.237 A  
HETATM    3  C   UNL     1      -8.763   8.980  63.730  1.00  0.00    -0.075 A  
HETATM    4  N   UNL     1      -8.575   8.005  64.628  1.00  0.00     0.024 NA 
HETATM    5  C   UNL     1      -8.536   8.381  65.907  1.00  0.00    -0.148 A  
HETATM    6  C   UNL     1      -8.759  10.645  65.398  1.00  0.00    -0.185 A  
HETATM    7  N   UNL     1      -8.611   9.666  66.308  1.00  0.00    -0.126 NA 
ENDROOT
BRANCH   5   8
HETATM    8  N   UNL     1      -8.412   7.333  66.822  1.00  0.00    -0.118 NA 
HETATM    9  H   UNL     1      -7.654   6.679  66.633  1.00  0.00     0.000 HD 
BRANCH   8  10
HETATM   10  C   UNL     1      -9.177   7.050  67.962  1.00  0.00    -0.129 A  
HETATM   11  C   UNL     1     -10.482   6.583  67.864  1.00  0.00    -0.273 A  
HETATM   12  C   UNL     1      -9.474   7.187  70.384  1.00  0.00    -0.162 A  
HETATM   13  C   UNL     1     -10.798   6.775  70.260  1.00  0.00    -0.270 A  
HETATM   14  C   UNL     1     -11.285   6.442  68.990  1.00  0.00    -0.402 A  
HETATM   15  C   UNL     1      -8.668   7.325  69.241  1.00  0.00    -0.137 A  
BRANCH  13  16
HETATM   16  O   UNL     1     -11.567   6.743  71.403  1.00  0.00    -0.273 OA 
BRANCH  16  17
HETATM   17  C   UNL     1     -11.406   7.925  72.191  1.00  0.00    -0.313 C  
BRANCH  17  18
HETATM   18  C   UNL     1     -12.566   8.916  72.093  1.00  0.00    -0.399 C  
BRANCH  18  19
HETATM   19  N   UNL     1     -12.066  10.189  71.551  1.00  0.00    -0.376 NA 
HETATM   20  C   UNL     1     -12.944  11.337  71.808  1.00  0.00    -0.414 C  
HETATM   21  C   UNL     1     -11.840  10.157  70.112  1.00  0.00    -0.222 C  
HETATM   22  C   UNL     1     -12.625  12.340  70.709  1.00  0.00    -0.302 C  
HETATM   23  C   UNL     1     -11.627  11.630  69.808  1.00  0.00    -0.389 C  
ENDBRANCH  18  19
ENDBRANCH  17  18
ENDBRANCH  16  17
ENDBRANCH  13  16
ENDBRANCH   8  10
ENDBRANCH   5   8
BRANCH   6  24
HETATM   24  N   UNL     1      -8.902  11.998  65.803  1.00  0.00    -0.412 NA 
HETATM   25  H   UNL     1      -8.062  12.558  65.651  1.00  0.00     0.000 HD 
BRANCH  24  26
HETATM   26  C   UNL     1      -9.971  12.732  66.376  1.00  0.00    -0.265 A  
HETATM   27  C   UNL     1     -11.288  12.714  65.908  1.00  0.00    -0.373 A  
HETATM   28  C   UNL     1      -9.668  13.664  67.385  1.00  0.00    -0.228 A  
HETATM   29  C   UNL     1     -12.265  13.592  66.411  1.00  0.00    -0.454 A  
HETATM   30  C   UNL     1     -11.931  14.552  67.364  1.00  0.00    -0.367 A  
HETATM   31  C   UNL     1     -10.619  14.600  67.831  1.00  0.00    -0.244 A  
BRANCH  31  32
HETATM   32  S   UNL     1     -10.161  15.825  69.032  1.00  0.00    -0.240 S  
HETATM   33  O   UNL     1     -10.965  15.585  70.212  1.00  0.00    -0.286 OA 
HETATM   34  O   UNL     1      -8.718  15.860  69.116  1.00  0.00    -0.231 OA 
BRANCH  32  35
HETATM   35  N   UNL     1     -10.716  17.284  68.408  1.00  0.00    -0.360 N  
HETATM   36  C   UNL     1     -10.871  19.417  67.229  1.00  0.00    -0.561 C  
HETATM   37  C   UNL     1      -8.762  18.834  68.390  1.00  0.00    -0.369 C  
HETATM   38  C   UNL     1      -9.451  17.606  66.293  1.00  0.00    -0.232 C  
HETATM   39  C   UNL     1      -9.932  18.246  67.594  1.00  0.00    -0.338 C  
HETATM   40  H   UNL     1     -11.685  17.533  68.609  1.00  0.00     0.000 HD 
ENDBRANCH  32  35
ENDBRANCH  31  32
ENDBRANCH  24  26
ENDBRANCH   6  24
TORSDOF 10
ENDMDL
MODEL       34
REMARK 921   NORMALIZED FREE ENERGY PREDICTED BY IDOCK:   -6.92 KCAL/MOL
REMARK 922        TOTAL FREE ENERGY PREDICTED BY IDOCK:  -12.31 KCAL/MOL
REMARK 923 INTER-LIGAND FREE ENERGY PREDICTED BY IDOCK:  -10.92 KCAL/MOL
REMARK 924 INTRA-LIGAND FREE ENERGY PREDICTED BY IDOCK:   -1.40 KCAL/MOL
REMARK 927      BINDING AFFINITY PREDICTED BY RF-SCORE:    0.00 PKD
ROOT
HETATM    1  C   UNL     1      -9.279  11.072  62.529  1.00  0.00    -0.337 C  
HETATM    2  C   UNL     1      -8.827  10.189  63.648  1.00  0.00    -0.240 A  
HETATM    3  C   UNL     1      -8.518   8.868  63.371  1.00  0.00    -0.145 A  
HETATM    4  N   UNL     1      -8.102   7.981  64.284  1.00  0.00    -0.143 NA 
HETATM    5  C   UNL     1      -8.020   8.423  65.539  1.00  0.00    -0.115 A  
HETATM    6  C   UNL     1      -8.650  10.594  64.970  1.00  0.00    -0.160 A  
HETATM    7  N   UNL     1      -8.270   9.698  65.898  1.00  0.00    -0.118 NA 
ENDROOT
BRANCH   5   8
HETATM    8  N   UNL     1      -7.653   7.456  66.478  1.00  0.00    -0.091 NA 
HETATM    9  H   UNL     1      -6.659   7.231  66.505  1.00  0.00     0.000 HD 
BRANCH   8  10
HETATM   10  C   UNL     1      -8.450   6.749  67.389  1.00  0.00    -0.121 A  
HETATM   11  C   UNL     1      -9.798   6.515  67.146  1.00  0.00    -0.187 A  
HETATM   12  C   UNL     1      -8.742   5.765  69.607  1.00  0.00    -0.122 A  
HETATM   13  C   UNL     1     -10.103   5.593  69.367  1.00  0.00    -0.223 A  
HETATM   14  C   UNL     1     -10.617   5.944  68.113  1.00  0.00    -0.312 A  
HETATM   15  C   UNL     1      -7.921   6.342  68.623  1.00  0.00    -0.105 A  
BRANCH  13  16
HETATM   16  O   UNL     1     -10.876   5.106  70.399  1.00  0.00    -0.160 OA 
BRANCH  16  17
HETATM   17  C   UNL     1     -10.858   5.970  71.537  1.00  0.00    -0.266 C  
BRANCH  17  18
HETATM   18  C   UNL     1     -12.210   6.598  71.878  1.00  0.00    -0.335 C  
BRANCH  18  19
HETATM   19  N   UNL     1     -12.061   8.061  71.926  1.00  0.00    -0.301 NA 
HETATM   20  C   UNL     1     -13.302   8.781  72.242  1.00  0.00    -0.419 C  
HETATM   21  C   UNL     1     -11.560   8.633  70.683  1.00  0.00    -0.200 C  
HETATM   22  C   UNL     1     -13.122  10.171  71.649  1.00  0.00    -0.550 C  
HETATM   23  C   UNL     1     -11.789  10.116  70.920  1.00  0.00    -0.468 C  
ENDBRANCH  18  19
ENDBRANCH  17  18
ENDBRANCH  16  17
ENDBRANCH  13  16
ENDBRANCH   8  10
ENDBRANCH   5   8
BRANCH   6  24
HETATM   24  N   UNL     1      -8.977  11.926  65.336  1.00  0.00    -0.407 NA 
HETATM   25  H   UNL     1      -8.191  12.572  65.261  1.00  0.00     0.000 HD 
BRANCH  24  26
HETATM   26  C   UNL     1     -10.171  12.543  65.786  1.00  0.00    -0.270 A  
HETATM   27  C   UNL     1     -11.424  12.385  65.184  1.00  0.00    -0.379 A  
HETATM   28  C   UNL     1     -10.076  13.503  66.809  1.00  0.00    -0.268 A  
HETATM   29  C   UNL     1     -12.535  13.154  65.572  1.00  0.00    -0.516 A  
HETATM   30  C   UNL     1     -12.405  14.145  66.543  1.00  0.00    -0.405 A  
HETATM   31  C   UNL     1     -11.162  14.333  67.143  1.00  0.00    -0.322 A  
BRANCH  31  32
HETATM   32  S   UNL     1     -10.964  15.602  68.369  1.00  0.00    -0.324 S  
HETATM   33  O   UNL     1      -9.939  15.149  69.287  1.00  0.00    -0.228 OA 
HETATM   34  O   UNL     1     -10.839  16.872  67.690  1.00  0.00    -0.325 OA 
BRANCH  32  35
HETATM   35  N   UNL     1     -12.391  15.585  69.258  1.00  0.00    -0.606 N  
HETATM   36  C   UNL     1     -14.029  15.315  71.049  1.00  0.00    -0.368 C  
HETATM   37  C   UNL     1     -12.260  13.604  70.766  1.00  0.00    -0.424 C  
HETATM   38  C   UNL     1     -11.685  15.911  71.619  1.00  0.00    -0.563 C  
HETATM   39  C   UNL     1     -12.550  15.104  70.653  1.00  0.00    -0.395 C  
HETATM   40  H   UNL     1     -13.227  15.940  68.794  1.00  0.00     0.000 HD 
ENDBRANCH  32  35
ENDBRANCH  31  32
ENDBRANCH  24  26
ENDBRANCH   6  24
TORSDOF 10
ENDMDL
MODEL       35
REMARK 921   NORMALIZED FREE ENERGY PREDICTED BY IDOCK:   -6.91 KCAL/MOL
REMARK 922        TOTAL FREE ENERGY PREDICTED BY IDOCK:  -12.29 KCAL/MOL
REMARK 923 INTER-LIGAND FREE ENERGY PREDICTED BY IDOCK:  -10.79 KCAL/MOL
REMARK 924 INTRA-LIGAND FREE ENERGY PREDICTED BY IDOCK:   -1.50 KCAL/MOL
REMARK 927      BINDING AFFINITY PREDICTED BY RF-SCORE:    0.00 PKD
ROOT
HETATM    1  C   UNL     1     -10.308  13.362  64.518  1.00  0.00    -0.394 C  
HETATM    2  C   UNL     1     -10.600  13.071  65.955  1.00  0.00    -0.292 A  
HETATM    3  C   UNL     1     -11.880  12.681  66.310  1.00  0.00    -0.410 A  
HETATM    4  N   UNL     1     -12.263  12.392  67.560  1.00  0.00    -0.363 NA 
HETATM    5  C   UNL     1     -11.335  12.530  68.508  1.00  0.00    -0.297 A  
HETATM    6  C   UNL     1      -9.668  13.125  66.990  1.00  0.00    -0.241 A  
HETATM    7  N   UNL     1     -10.057  12.875  68.253  1.00  0.00    -0.239 NA 
ENDROOT
BRANCH   5   8
HETATM    8  N   UNL     1     -11.785  12.291  69.808  1.00  0.00    -0.416 NA 
HETATM    9  H   UNL     1     -12.096  13.118  70.318  1.00  0.00     0.000 HD 
BRANCH   8  10
HETATM   10  C   UNL     1     -11.873  11.084  70.514  1.00  0.00    -0.367 A  
HETATM   11  C   UNL     1     -12.999  10.760  71.262  1.00  0.00    -0.502 A  
HETATM   12  C   UNL     1     -10.793   9.071  71.383  1.00  0.00    -0.400 A  
HETATM   13  C   UNL     1     -11.908   8.795  72.170  1.00  0.00    -0.366 A  
HETATM   14  C   UNL     1     -13.025   9.634  72.076  1.00  0.00    -0.518 A  
HETATM   15  C   UNL     1     -10.775  10.211  70.561  1.00  0.00    -0.295 A  
BRANCH  13  16
HETATM   16  O   UNL     1     -11.835   7.715  73.024  1.00  0.00    -0.168 OA 
BRANCH  16  17
HETATM   17  C   UNL     1     -10.684   6.907  72.769  1.00  0.00    -0.255 C  
BRANCH  17  18
HETATM   18  C   UNL     1     -10.996   5.499  72.260  1.00  0.00    -0.239 C  
BRANCH  18  19
HETATM   19  N   UNL     1     -10.484   5.361  70.888  1.00  0.00    -0.246 NA 
HETATM   20  C   UNL     1      -9.128   5.892  70.697  1.00  0.00    -0.149 C  
HETATM   21  C   UNL     1     -11.324   6.009  69.889  1.00  0.00    -0.285 C  
HETATM   22  C   UNL     1      -9.035   6.233  69.216  1.00  0.00    -0.125 C  
HETATM   23  C   UNL     1     -10.426   5.962  68.664  1.00  0.00    -0.302 C  
ENDBRANCH  18  19
ENDBRANCH  17  18
ENDBRANCH  16  17
ENDBRANCH  13  16
ENDBRANCH   8  10
ENDBRANCH   5   8
BRANCH   6  24
HETATM   24  N   UNL     1      -8.343  13.549  66.709  1.00  0.00    -0.419 NA 
HETATM   25  H   UNL     1      -7.912  13.045  65.933  1.00  0.00     0.000 HD 
BRANCH  24  26
HETATM   26  C   UNL     1      -7.495  14.528  67.284  1.00  0.00    -0.097 A  
HETATM   27  C   UNL     1      -6.677  14.318  68.398  1.00  0.00    -0.104 A  
HETATM   28  C   UNL     1      -7.591  15.849  66.808  1.00  0.00    -0.215 A  
HETATM   29  C   UNL     1      -5.990  15.373  69.024  1.00  0.00    -0.103 A  
HETATM   30  C   UNL     1      -6.148  16.683  68.578  1.00  0.00    -0.134 A  
HETATM   31  C   UNL     1      -6.974  16.920  67.480  1.00  0.00    -0.142 A  
BRANCH  31  32
HETATM   32  S   UNL     1      -7.208  18.582  66.903  1.00  0.00    -0.214 S  
HETATM   33  O   UNL     1      -5.950  19.276  67.084  1.00  0.00    -0.178 OA 
HETATM   34  O   UNL     1      -7.840  18.525  65.603  1.00  0.00    -0.491 OA 
BRANCH  32  35
HETATM   35  N   UNL     1      -8.264  19.288  68.004  1.00  0.00    -0.300 N  
HETATM   36  C   UNL     1     -10.279  20.045  69.158  1.00  0.00    -0.237 C  
HETATM   37  C   UNL     1     -10.211  20.117  66.683  1.00  0.00    -0.556 C  
HETATM   38  C   UNL     1     -10.327  17.905  67.897  1.00  0.00    -0.396 C  
HETATM   39  C   UNL     1      -9.745  19.317  67.904  1.00  0.00    -0.338 C  
HETATM   40  H   UNL     1      -7.848  19.739  68.818  1.00  0.00     0.000 HD 
ENDBRANCH  32  35
ENDBRANCH  31  32
ENDBRANCH  24  26
ENDBRANCH   6  24
TORSDOF 10
ENDMDL
MODEL       36
REMARK 921   NORMALIZED FREE ENERGY PREDICTED BY IDOCK:   -6.90 KCAL/MOL
REMARK 922        TOTAL FREE ENERGY PREDICTED BY IDOCK:  -12.29 KCAL/MOL
REMARK 923 INTER-LIGAND FREE ENERGY PREDICTED BY IDOCK:  -10.86 KCAL/MOL
REMARK 924 INTRA-LIGAND FREE ENERGY PREDICTED BY IDOCK:   -1.43 KCAL/MOL
REMARK 927      BINDING AFFINITY PREDICTED BY RF-SCORE:    0.00 PKD
ROOT
HETATM    1  C   UNL     1      -7.010   8.399  62.811  1.00  0.00    -0.090 C  
HETATM    2  C   UNL     1      -8.150   9.263  63.246  1.00  0.00    -0.159 A  
HETATM    3  C   UNL     1      -8.707  10.142  62.333  1.00  0.00    -0.217 A  
HETATM    4  N   UNL     1      -9.729  10.964  62.600  1.00  0.00    -0.253 NA 
HETATM    5  C   UNL     1     -10.199  10.933  63.848  1.00  0.00    -0.354 A  
HETATM    6  C   UNL     1      -8.740   9.238  64.509  1.00  0.00    -0.187 A  
HETATM    7  N   UNL     1      -9.741  10.090  64.795  1.00  0.00    -0.316 NA 
ENDROOT
BRANCH   5   8
HETATM    8  N   UNL     1     -11.216  11.853  64.114  1.00  0.00    -0.353 NA 
HETATM    9  H   UNL     1     -12.081  11.707  63.594  1.00  0.00     0.000 HD 
BRANCH   8  10
HETATM   10  C   UNL     1     -11.223  12.945  64.992  1.00  0.00    -0.293 A  
HETATM   11  C   UNL     1     -10.607  14.146  64.661  1.00  0.00    -0.391 A  
HETATM   12  C   UNL     1     -11.658  13.852  67.219  1.00  0.00    -0.393 A  
HETATM   13  C   UNL     1     -10.985  15.026  66.889  1.00  0.00    -0.324 A  
HETATM   14  C   UNL     1     -10.489  15.176  65.588  1.00  0.00    -0.378 A  
HETATM   15  C   UNL     1     -11.774  12.817  66.276  1.00  0.00    -0.460 A  
BRANCH  13  16
HETATM   16  O   UNL     1     -10.823  15.970  67.880  1.00  0.00    -0.316 OA 
BRANCH  16  17
HETATM   17  C   UNL     1     -10.556  15.373  69.151  1.00  0.00    -0.248 C  
BRANCH  17  18
HETATM   18  C   UNL     1     -11.141  16.130  70.344  1.00  0.00    -0.351 C  
BRANCH  18  19
HETATM   19  N   UNL     1     -11.623  15.159  71.338  1.00  0.00    -0.355 NA 
HETATM   20  C   UNL     1     -12.311  13.998  70.759  1.00  0.00    -0.373 C  
HETATM   21  C   UNL     1     -12.538  15.735  72.314  1.00  0.00    -0.448 C  
HETATM   22  C   UNL     1     -13.232  13.488  71.858  1.00  0.00    -0.510 C  
HETATM   23  C   UNL     1     -13.079  14.488  72.994  1.00  0.00    -0.611 C  
ENDBRANCH  18  19
ENDBRANCH  17  18
ENDBRANCH  16  17
ENDBRANCH  13  16
ENDBRANCH   8  10
ENDBRANCH   5   8
BRANCH   6  24
HETATM   24  N   UNL     1      -8.203   8.386  65.509  1.00  0.00    -0.131 NA 
HETATM   25  H   UNL     1      -7.694   7.587  65.130  1.00  0.00     0.000 HD 
BRANCH  24  26
HETATM   26  C   UNL     1      -8.230   8.416  66.925  1.00  0.00    -0.103 A  
HETATM   27  C   UNL     1      -7.159   8.809  67.733  1.00  0.00    -0.083 A  
HETATM   28  C   UNL     1      -9.349   7.868  67.578  1.00  0.00    -0.166 A  
HETATM   29  C   UNL     1      -7.188   8.656  69.131  1.00  0.00    -0.064 A  
HETATM   30  C   UNL     1      -8.279   8.052  69.753  1.00  0.00    -0.120 A  
HETATM   31  C   UNL     1      -9.351   7.636  68.966  1.00  0.00    -0.146 A  
BRANCH  31  32
HETATM   32  S   UNL     1     -10.744   6.846  69.732  1.00  0.00    -0.257 S  
HETATM   33  O   UNL     1     -11.457   6.139  68.688  1.00  0.00    -0.223 OA 
HETATM   34  O   UNL     1     -10.279   6.150  70.910  1.00  0.00    -0.190 OA 
BRANCH  32  35
HETATM   35  N   UNL     1     -11.765   8.099  70.193  1.00  0.00    -0.458 N  
HETATM   36  C   UNL     1     -13.283   9.535  71.457  1.00  0.00    -0.468 C  
HETATM   37  C   UNL     1     -13.539   7.077  71.616  1.00  0.00    -0.346 C  
HETATM   38  C   UNL     1     -11.552   8.228  72.667  1.00  0.00    -0.419 C  
HETATM   39  C   UNL     1     -12.507   8.200  71.475  1.00  0.00    -0.307 C  
HETATM   40  H   UNL     1     -11.886   8.864  69.529  1.00  0.00     0.000 HD 
ENDBRANCH  32  35
ENDBRANCH  31  32
ENDBRANCH  24  26
ENDBRANCH   6  24
TORSDOF 10
ENDMDL
MODEL       37
REMARK 921   NORMALIZED FREE ENERGY PREDICTED BY IDOCK:   -6.89 KCAL/MOL
REMARK 922        TOTAL FREE ENERGY PREDICTED BY IDOCK:  -12.27 KCAL/MOL
REMARK 923 INTER-LIGAND FREE ENERGY PREDICTED BY IDOCK:  -11.27 KCAL/MOL
REMARK 924 INTRA-LIGAND FREE ENERGY PREDICTED BY IDOCK:   -1.00 KCAL/MOL
REMARK 927      BINDING AFFINITY PREDICTED BY RF-SCORE:    0.00 PKD
ROOT
HETATM    1  C   UNL     1     -12.096  16.327  72.163  1.00  0.00    -0.530 C  
HETATM    2  C   UNL     1     -12.203  14.942  71.608  1.00  0.00    -0.408 A  
HETATM    3  C   UNL     1     -13.159  14.087  72.129  1.00  0.00    -0.411 A  
HETATM    4  N   UNL     1     -13.354  12.829  71.716  1.00  0.00    -0.406 NA 
HETATM    5  C   UNL     1     -12.534  12.389  70.760  1.00  0.00    -0.267 A  
HETATM    6  C   UNL     1     -11.431  14.433  70.565  1.00  0.00    -0.145 A  
HETATM    7  N   UNL     1     -11.595  13.157  70.173  1.00  0.00    -0.151 NA 
ENDROOT
BRANCH   5   8
HETATM    8  N   UNL     1     -12.714  11.050  70.403  1.00  0.00    -0.259 NA 
HETATM    9  H   UNL     1     -13.404  10.886  69.671  1.00  0.00     0.000 HD 
BRANCH   8  10
HETATM   10  C   UNL     1     -12.088   9.901  70.903  1.00  0.00    -0.341 A  
HETATM   11  C   UNL     1     -10.883   9.446  70.382  1.00  0.00    -0.321 A  
HETATM   12  C   UNL     1     -12.175   7.892  72.292  1.00  0.00    -0.333 A  
HETATM   13  C   UNL     1     -10.998   7.424  71.715  1.00  0.00    -0.234 A  
HETATM   14  C   UNL     1     -10.339   8.230  70.779  1.00  0.00    -0.221 A  
HETATM   15  C   UNL     1     -12.718   9.123  71.886  1.00  0.00    -0.464 A  
BRANCH  13  16
HETATM   16  O   UNL     1     -10.560   6.171  72.085  1.00  0.00    -0.198 OA 
BRANCH  16  17
HETATM   17  C   UNL     1     -11.126   5.750  73.328  1.00  0.00    -0.208 C  
BRANCH  17  18
HETATM   18  C   UNL     1     -10.153   5.017  74.253  1.00  0.00    -0.234 C  
BRANCH  18  19
HETATM   19  N   UNL     1      -9.141   4.329  73.436  1.00  0.00    -0.103 NA 
HETATM   20  C   UNL     1      -9.360   2.883  73.302  1.00  0.00    -0.089 C  
HETATM   21  C   UNL     1      -7.782   4.495  73.936  1.00  0.00    -0.089 C  
HETATM   22  C   UNL     1      -7.986   2.295  73.011  1.00  0.00    -0.050 C  
HETATM   23  C   UNL     1      -7.028   3.472  73.104  1.00  0.00    -0.041 C  
ENDBRANCH  18  19
ENDBRANCH  17  18
ENDBRANCH  16  17
ENDBRANCH  13  16
ENDBRANCH   8  10
ENDBRANCH   5   8
BRANCH   6  24
HETATM   24  N   UNL     1     -10.407  15.240  70.002  1.00  0.00    -0.440 NA 
HETATM   25  H   UNL     1      -9.663  15.471  70.661  1.00  0.00     0.000 HD 
BRANCH  24  26
HETATM   26  C   UNL     1     -10.206  15.791  68.712  1.00  0.00    -0.217 A  
HETATM   27  C   UNL     1      -9.550  16.998  68.455  1.00  0.00    -0.277 A  
HETATM   28  C   UNL     1     -10.842  15.170  67.621  1.00  0.00    -0.295 A  
HETATM   29  C   UNL     1      -9.532  17.575  67.173  1.00  0.00    -0.259 A  
HETATM   30  C   UNL     1     -10.221  16.978  66.119  1.00  0.00    -0.346 A  
HETATM   31  C   UNL     1     -10.898  15.783  66.355  1.00  0.00    -0.226 A  
BRANCH  31  32
HETATM   32  S   UNL     1     -11.799  15.011  65.035  1.00  0.00    -0.185 S  
HETATM   33  O   UNL     1     -12.900  14.289  65.639  1.00  0.00    -0.475 OA 
HETATM   34  O   UNL     1     -12.040  16.003  64.011  1.00  0.00    -0.810 OA 
BRANCH  32  35
HETATM   35  N   UNL     1     -10.772  13.826  64.431  1.00  0.00    -0.571 N  
HETATM   36  C   UNL     1      -9.829  11.691  63.714  1.00  0.00    -0.339 C  
HETATM   37  C   UNL     1     -11.189  11.773  65.782  1.00  0.00    -0.337 C  
HETATM   38  C   UNL     1     -12.277  12.068  63.522  1.00  0.00    -0.653 C  
HETATM   39  C   UNL     1     -11.048  12.369  64.378  1.00  0.00    -0.333 C  
HETATM   40  H   UNL     1      -9.872  14.139  64.065  1.00  0.00     0.000 HD 
ENDBRANCH  32  35
ENDBRANCH  31  32
ENDBRANCH  24  26
ENDBRANCH   6  24
TORSDOF 10
ENDMDL
MODEL       38
REMARK 921   NORMALIZED FREE ENERGY PREDICTED BY IDOCK:   -6.88 KCAL/MOL
REMARK 922        TOTAL FREE ENERGY PREDICTED BY IDOCK:  -12.25 KCAL/MOL
REMARK 923 INTER-LIGAND FREE ENERGY PREDICTED BY IDOCK:  -11.16 KCAL/MOL
REMARK 924 INTRA-LIGAND FREE ENERGY PREDICTED BY IDOCK:   -1.09 KCAL/MOL
REMARK 927      BINDING AFFINITY PREDICTED BY RF-SCORE:    0.00 PKD
ROOT
HETATM    1  C   UNL     1      -6.460   8.539  62.615  1.00  0.00    -0.091 C  
HETATM    2  C   UNL     1      -7.645   9.353  63.026  1.00  0.00    -0.107 A  
HETATM    3  C   UNL     1      -7.919  10.523  62.341  1.00  0.00    -0.175 A  
HETATM    4  N   UNL     1      -8.949  11.335  62.612  1.00  0.00    -0.315 NA 
HETATM    5  C   UNL     1      -9.725  10.980  63.637  1.00  0.00    -0.324 A  
HETATM    6  C   UNL     1      -8.541   9.012  64.039  1.00  0.00    -0.140 A  
HETATM    7  N   UNL     1      -9.554   9.844  64.342  1.00  0.00    -0.260 NA 
ENDROOT
BRANCH   5   8
HETATM    8  N   UNL     1     -10.746  11.884  63.940  1.00  0.00    -0.352 NA 
HETATM    9  H   UNL     1     -11.459  11.991  63.219  1.00  0.00     0.000 HD 
BRANCH   8  10
HETATM   10  C   UNL     1     -10.934  12.665  65.088  1.00  0.00    -0.291 A  
HETATM   11  C   UNL     1     -11.584  12.164  66.210  1.00  0.00    -0.424 A  
HETATM   12  C   UNL     1     -10.867  14.850  66.181  1.00  0.00    -0.327 A  
HETATM   13  C   UNL     1     -11.571  14.344  67.270  1.00  0.00    -0.379 A  
HETATM   14  C   UNL     1     -11.897  12.982  67.288  1.00  0.00    -0.419 A  
HETATM   15  C   UNL     1     -10.552  14.016  65.095  1.00  0.00    -0.400 A  
BRANCH  13  16
HETATM   16  O   UNL     1     -11.931  15.227  68.265  1.00  0.00    -0.297 OA 
BRANCH  16  17
HETATM   17  C   UNL     1     -11.363  14.874  69.528  1.00  0.00    -0.281 C  
BRANCH  17  18
HETATM   18  C   UNL     1     -11.108  16.056  70.463  1.00  0.00    -0.353 C  
BRANCH  18  19
HETATM   19  N   UNL     1     -12.168  16.098  71.483  1.00  0.00    -0.398 NA 
HETATM   20  C   UNL     1     -11.681  15.951  72.861  1.00  0.00    -0.363 C  
HETATM   21  C   UNL     1     -13.191  15.077  71.297  1.00  0.00    -0.432 C  
HETATM   22  C   UNL     1     -12.863  15.404  73.648  1.00  0.00    -0.685 C  
HETATM   23  C   UNL     1     -13.949  15.169  72.610  1.00  0.00    -0.521 C  
ENDBRANCH  18  19
ENDBRANCH  17  18
ENDBRANCH  16  17
ENDBRANCH  13  16
ENDBRANCH   8  10
ENDBRANCH   5   8
BRANCH   6  24
HETATM   24  N   UNL     1      -8.307   7.842  64.807  1.00  0.00    -0.326 NA 
HETATM   25  H   UNL     1      -7.432   7.371  64.574  1.00  0.00     0.000 HD 
BRANCH  24  26
HETATM   26  C   UNL     1      -9.039   7.193  65.833  1.00  0.00    -0.013 A  
HETATM   27  C   UNL     1      -9.770   6.013  65.664  1.00  0.00     0.310 A  
HETATM   28  C   UNL     1      -9.176   7.853  67.068  1.00  0.00    -0.181 A  
HETATM   29  C   UNL     1     -10.612   5.511  66.673  1.00  0.00    -0.365 A  
HETATM   30  C   UNL     1     -10.784   6.213  67.864  1.00  0.00    -0.374 A  
HETATM   31  C   UNL     1     -10.080   7.402  68.047  1.00  0.00    -0.179 A  
BRANCH  31  32
HETATM   32  S   UNL     1     -10.296   8.326  69.547  1.00  0.00    -0.219 S  
HETATM   33  O   UNL     1      -9.229   7.934  70.444  1.00  0.00    -0.157 OA 
HETATM   34  O   UNL     1     -10.495   9.715  69.199  1.00  0.00    -0.200 OA 
BRANCH  32  35
HETATM   35  N   UNL     1     -11.702   7.720  70.241  1.00  0.00    -0.481 N  
HETATM   36  C   UNL     1     -13.625   7.369  71.705  1.00  0.00    -0.449 C  
HETATM   37  C   UNL     1     -11.449   7.998  72.707  1.00  0.00    -0.420 C  
HETATM   38  C   UNL     1     -12.767   9.673  71.352  1.00  0.00    -0.466 C  
HETATM   39  C   UNL     1     -12.348   8.210  71.485  1.00  0.00    -0.306 C  
HETATM   40  H   UNL     1     -12.155   6.942  69.762  1.00  0.00     0.000 HD 
ENDBRANCH  32  35
ENDBRANCH  31  32
ENDBRANCH  24  26
ENDBRANCH   6  24
TORSDOF 10
ENDMDL
MODEL       39
REMARK 921   NORMALIZED FREE ENERGY PREDICTED BY IDOCK:   -6.88 KCAL/MOL
REMARK 922        TOTAL FREE ENERGY PREDICTED BY IDOCK:  -12.25 KCAL/MOL
REMARK 923 INTER-LIGAND FREE ENERGY PREDICTED BY IDOCK:  -10.11 KCAL/MOL
REMARK 924 INTRA-LIGAND FREE ENERGY PREDICTED BY IDOCK:   -2.14 KCAL/MOL
REMARK 927      BINDING AFFINITY PREDICTED BY RF-SCORE:    0.00 PKD
ROOT
HETATM    1  C   UNL     1      -7.202   5.877  67.350  1.00  0.00    -0.076 C  
HETATM    2  C   UNL     1      -8.129   6.956  66.886  1.00  0.00    -0.109 A  
HETATM    3  C   UNL     1      -7.641   7.935  66.038  1.00  0.00    -0.086 A  
HETATM    4  N   UNL     1      -8.370   8.948  65.554  1.00  0.00    -0.128 NA 
HETATM    5  C   UNL     1      -9.639   9.008  65.961  1.00  0.00    -0.272 A  
HETATM    6  C   UNL     1      -9.481   7.047  67.212  1.00  0.00    -0.138 A  
HETATM    7  N   UNL     1     -10.208   8.084  66.761  1.00  0.00    -0.300 NA 
ENDROOT
BRANCH   5   8
HETATM    8  N   UNL     1     -10.351  10.116  65.498  1.00  0.00    -0.204 NA 
HETATM    9  H   UNL     1     -10.944   9.943  64.686  1.00  0.00     0.000 HD 
BRANCH   8  10
HETATM   10  C   UNL     1     -10.371  11.431  65.983  1.00  0.00    -0.249 A  
HETATM   11  C   UNL     1      -9.762  11.771  67.184  1.00  0.00    -0.194 A  
HETATM   12  C   UNL     1     -11.252  13.707  65.856  1.00  0.00    -0.311 A  
HETATM   13  C   UNL     1     -10.683  14.012  67.090  1.00  0.00    -0.283 A  
HETATM   14  C   UNL     1      -9.908  13.040  67.733  1.00  0.00    -0.224 A  
HETATM   15  C   UNL     1     -11.099  12.423  65.307  1.00  0.00    -0.342 A  
BRANCH  13  16
HETATM   16  O   UNL     1     -10.942  15.257  67.622  1.00  0.00    -0.294 OA 
BRANCH  16  17
HETATM   17  C   UNL     1     -11.814  15.187  68.752  1.00  0.00    -0.303 C  
BRANCH  17  18
HETATM   18  C   UNL     1     -11.122  15.380  70.101  1.00  0.00    -0.307 C  
BRANCH  18  19
HETATM   19  N   UNL     1     -12.001  14.877  71.168  1.00  0.00    -0.315 NA 
HETATM   20  C   UNL     1     -13.434  14.982  70.864  1.00  0.00    -0.349 C  
HETATM   21  C   UNL     1     -11.802  15.545  72.447  1.00  0.00    -0.471 C  
HETATM   22  C   UNL     1     -14.130  15.026  72.217  1.00  0.00    -0.612 C  
HETATM   23  C   UNL     1     -13.002  15.049  73.236  1.00  0.00    -0.642 C  
ENDBRANCH  18  19
ENDBRANCH  17  18
ENDBRANCH  16  17
ENDBRANCH  13  16
ENDBRANCH   8  10
ENDBRANCH   5   8
BRANCH   6  24
HETATM   24  N   UNL     1     -10.046   6.097  68.103  1.00  0.00    -0.145 NA 
HETATM   25  H   UNL     1     -10.303   5.219  67.651  1.00  0.00     0.000 HD 
BRANCH  24  26
HETATM   26  C   UNL     1     -10.325   6.117  69.492  1.00  0.00    -0.219 A  
HETATM   27  C   UNL     1      -9.830   5.193  70.417  1.00  0.00    -0.288 A  
HETATM   28  C   UNL     1     -11.288   7.030  69.961  1.00  0.00    -0.293 A  
HETATM   29  C   UNL     1     -10.277   5.165  71.750  1.00  0.00    -0.271 A  
HETATM   30  C   UNL     1     -11.278   6.035  72.178  1.00  0.00    -0.341 A  
HETATM   31  C   UNL     1     -11.800   6.953  71.269  1.00  0.00    -0.341 A  
BRANCH  31  32
HETATM   32  S   UNL     1     -13.090   8.059  71.783  1.00  0.00    -0.319 S  
HETATM   33  O   UNL     1     -14.346   7.367  71.585  1.00  0.00    -0.438 OA 
HETATM   34  O   UNL     1     -12.737   8.593  73.080  1.00  0.00    -0.242 OA 
BRANCH  32  35
HETATM   35  N   UNL     1     -13.085   9.301  70.651  1.00  0.00    -0.427 N  
HETATM   36  C   UNL     1     -12.650  11.401  69.484  1.00  0.00     0.064 C  
HETATM   37  C   UNL     1     -12.964  11.432  71.940  1.00  0.00    -0.466 C  
HETATM   38  C   UNL     1     -10.882  10.420  70.929  1.00  0.00     0.196 C  
HETATM   39  C   UNL     1     -12.392  10.607  70.783  1.00  0.00    -0.376 C  
HETATM   40  H   UNL     1     -13.609   9.142  69.790  1.00  0.00     0.000 HD 
ENDBRANCH  32  35
ENDBRANCH  31  32
ENDBRANCH  24  26
ENDBRANCH   6  24
TORSDOF 10
ENDMDL
MODEL       40
REMARK 921   NORMALIZED FREE ENERGY PREDICTED BY IDOCK:   -6.88 KCAL/MOL
REMARK 922        TOTAL FREE ENERGY PREDICTED BY IDOCK:  -12.25 KCAL/MOL
REMARK 923 INTER-LIGAND FREE ENERGY PREDICTED BY IDOCK:  -11.15 KCAL/MOL
REMARK 924 INTRA-LIGAND FREE ENERGY PREDICTED BY IDOCK:   -1.10 KCAL/MOL
REMARK 927      BINDING AFFINITY PREDICTED BY RF-SCORE:    0.00 PKD
ROOT
HETATM    1  C   UNL     1      -8.204   8.656  63.730  1.00  0.00    -0.145 C  
HETATM    2  C   UNL     1      -9.147   9.739  64.148  1.00  0.00    -0.289 A  
HETATM    3  C   UNL     1      -9.674  10.575  63.179  1.00  0.00    -0.305 A  
HETATM    4  N   UNL     1     -10.527  11.576  63.427  1.00  0.00    -0.397 NA 
HETATM    5  C   UNL     1     -10.846  11.776  64.707  1.00  0.00    -0.302 A  
HETATM    6  C   UNL     1      -9.581   9.965  65.453  1.00  0.00    -0.285 A  
HETATM    7  N   UNL     1     -10.407  10.995  65.714  1.00  0.00    -0.257 NA 
ENDROOT
BRANCH   5   8
HETATM    8  N   UNL     1     -11.679  12.872  64.939  1.00  0.00    -0.331 NA 
HETATM    9  H   UNL     1     -12.572  12.852  64.446  1.00  0.00     0.000 HD 
BRANCH   8  10
HETATM   10  C   UNL     1     -11.470  13.996  65.750  1.00  0.00    -0.318 A  
HETATM   11  C   UNL     1     -10.764  15.101  65.291  1.00  0.00    -0.422 A  
HETATM   12  C   UNL     1     -11.558  15.045  67.955  1.00  0.00    -0.356 A  
HETATM   13  C   UNL     1     -10.799  16.116  67.493  1.00  0.00    -0.284 A  
HETATM   14  C   UNL     1     -10.433  16.150  66.142  1.00  0.00    -0.334 A  
HETATM   15  C   UNL     1     -11.890  13.989  67.089  1.00  0.00    -0.444 A  
BRANCH  13  16
HETATM   16  O   UNL     1     -10.427  17.078  68.407  1.00  0.00    -0.327 OA 
BRANCH  16  17
HETATM   17  C   UNL     1     -10.639  18.401  67.911  1.00  0.00    -0.353 C  
BRANCH  17  18
HETATM   18  C   UNL     1      -9.929  19.498  68.704  1.00  0.00    -0.449 C  
BRANCH  18  19
HETATM   19  N   UNL     1      -8.852  20.067  67.878  1.00  0.00    -0.296 NA 
HETATM   20  C   UNL     1      -8.903  19.666  66.466  1.00  0.00    -0.364 C  
HETATM   21  C   UNL     1      -7.517  19.730  68.354  1.00  0.00    -0.314 C  
HETATM   22  C   UNL     1      -7.474  19.799  65.960  1.00  0.00    -0.330 C  
HETATM   23  C   UNL     1      -6.658  20.180  67.184  1.00  0.00    -0.247 C  
ENDBRANCH  18  19
ENDBRANCH  17  18
ENDBRANCH  16  17
ENDBRANCH  13  16
ENDBRANCH   8  10
ENDBRANCH   5   8
BRANCH   6  24
HETATM   24  N   UNL     1      -9.060   9.168  66.506  1.00  0.00    -0.148 NA 
HETATM   25  H   UNL     1      -8.081   9.365  66.718  1.00  0.00     0.000 HD 
BRANCH  24  26
HETATM   26  C   UNL     1      -9.619   8.155  67.324  1.00  0.00    -0.163 A  
HETATM   27  C   UNL     1     -10.021   6.896  66.870  1.00  0.00    -0.264 A  
HETATM   28  C   UNL     1      -9.942   8.482  68.655  1.00  0.00    -0.197 A  
HETATM   29  C   UNL     1     -10.724   5.999  67.693  1.00  0.00    -0.377 A  
HETATM   30  C   UNL     1     -11.091   6.366  68.987  1.00  0.00    -0.424 A  
HETATM   31  C   UNL     1     -10.717   7.624  69.456  1.00  0.00    -0.209 A  
BRANCH  31  32
HETATM   32  S   UNL     1     -11.188   8.123  71.093  1.00  0.00    -0.263 S  
HETATM   33  O   UNL     1     -10.015   8.705  71.713  1.00  0.00    -0.243 OA 
HETATM   34  O   UNL     1     -12.422   8.870  71.001  1.00  0.00    -0.256 OA 
BRANCH  32  35
HETATM   35  N   UNL     1     -11.465   6.692  71.930  1.00  0.00    -0.276 N  
HETATM   36  C   UNL     1     -11.226   4.757  73.400  1.00  0.00    -0.425 C  
HETATM   37  C   UNL     1      -9.261   5.541  72.111  1.00  0.00    -0.155 C  
HETATM   38  C   UNL     1     -10.159   6.910  74.034  1.00  0.00    -0.383 C  
HETATM   39  C   UNL     1     -10.517   6.015  72.849  1.00  0.00    -0.219 C  
HETATM   40  H   UNL     1     -12.373   6.247  71.793  1.00  0.00     0.000 HD 
ENDBRANCH  32  35
ENDBRANCH  31  32
ENDBRANCH  24  26
ENDBRANCH   6  24
TORSDOF 10
ENDMDL
MODEL       41
REMARK 921   NORMALIZED FREE ENERGY PREDICTED BY IDOCK:   -6.88 KCAL/MOL
REMARK 922        TOTAL FREE ENERGY PREDICTED BY IDOCK:  -12.24 KCAL/MOL
REMARK 923 INTER-LIGAND FREE ENERGY PREDICTED BY IDOCK:  -10.79 KCAL/MOL
REMARK 924 INTRA-LIGAND FREE ENERGY PREDICTED BY IDOCK:   -1.46 KCAL/MOL
REMARK 927      BINDING AFFINITY PREDICTED BY RF-SCORE:    0.00 PKD
ROOT
HETATM    1  C   UNL     1     -12.151  14.751  64.166  1.00  0.00    -0.323 C  
HETATM    2  C   UNL     1     -11.450  13.459  64.438  1.00  0.00    -0.417 A  
HETATM    3  C   UNL     1     -11.593  12.419  63.536  1.00  0.00    -0.497 A  
HETATM    4  N   UNL     1     -11.015  11.218  63.667  1.00  0.00    -0.362 NA 
HETATM    5  C   UNL     1     -10.286  11.033  64.768  1.00  0.00    -0.324 A  
HETATM    6  C   UNL     1     -10.617  13.212  65.528  1.00  0.00    -0.288 A  
HETATM    7  N   UNL     1     -10.066  11.995  65.686  1.00  0.00    -0.238 NA 
ENDROOT
BRANCH   5   8
HETATM    8  N   UNL     1      -9.758   9.748  64.911  1.00  0.00    -0.415 NA 
HETATM    9  H   UNL     1      -9.532   9.271  64.038  1.00  0.00     0.000 HD 
BRANCH   8  10
HETATM   10  C   UNL     1      -9.491   9.018  66.077  1.00  0.00    -0.256 A  
HETATM   11  C   UNL     1     -10.511   8.610  66.928  1.00  0.00    -0.329 A  
HETATM   12  C   UNL     1      -7.877   8.164  67.702  1.00  0.00    -0.114 A  
HETATM   13  C   UNL     1      -8.911   7.816  68.568  1.00  0.00    -0.130 A  
HETATM   14  C   UNL     1     -10.233   8.015  68.154  1.00  0.00    -0.251 A  
HETATM   15  C   UNL     1      -8.166   8.764  66.464  1.00  0.00    -0.111 A  
BRANCH  13  16
HETATM   16  O   UNL     1      -8.566   7.315  69.805  1.00  0.00    -0.138 OA 
BRANCH  16  17
HETATM   17  C   UNL     1      -9.643   7.407  70.740  1.00  0.00    -0.170 C  
BRANCH  17  18
HETATM   18  C   UNL     1      -9.472   8.495  71.801  1.00  0.00    -0.258 C  
BRANCH  18  19
HETATM   19  N   UNL     1     -10.755   9.189  71.989  1.00  0.00    -0.282 NA 
HETATM   20  C   UNL     1     -11.872   8.301  72.337  1.00  0.00    -0.396 C  
HETATM   21  C   UNL     1     -11.181   9.945  70.818  1.00  0.00    -0.353 C  
HETATM   22  C   UNL     1     -13.125   9.035  71.881  1.00  0.00    -0.459 C  
HETATM   23  C   UNL     1     -12.615  10.287  71.186  1.00  0.00    -0.501 C  
ENDBRANCH  18  19
ENDBRANCH  17  18
ENDBRANCH  16  17
ENDBRANCH  13  16
ENDBRANCH   8  10
ENDBRANCH   5   8
BRANCH   6  24
HETATM   24  N   UNL     1     -10.447  14.220  66.514  1.00  0.00    -0.283 NA 
HETATM   25  H   UNL     1     -11.311  14.710  66.746  1.00  0.00     0.000 HD 
BRANCH  24  26
HETATM   26  C   UNL     1      -9.323  14.684  67.242  1.00  0.00    -0.208 A  
HETATM   27  C   UNL     1      -9.090  14.426  68.596  1.00  0.00    -0.178 A  
HETATM   28  C   UNL     1      -8.458  15.598  66.612  1.00  0.00    -0.323 A  
HETATM   29  C   UNL     1      -8.049  15.053  69.303  1.00  0.00    -0.178 A  
HETATM   30  C   UNL     1      -7.243  16.003  68.678  1.00  0.00    -0.146 A  
HETATM   31  C   UNL     1      -7.468  16.291  67.334  1.00  0.00    -0.161 A  
BRANCH  31  32
HETATM   32  S   UNL     1      -6.468  17.511  66.519  1.00  0.00    -0.257 S  
HETATM   33  O   UNL     1      -5.227  16.863  66.149  1.00  0.00    -0.342 OA 
HETATM   34  O   UNL     1      -7.283  18.171  65.523  1.00  0.00    -0.539 OA 
BRANCH  32  35
HETATM   35  N   UNL     1      -6.052  18.614  67.717  1.00  0.00    -0.188 N  
HETATM   36  C   UNL     1      -6.054  20.514  69.251  1.00  0.00    -0.348 C  
HETATM   37  C   UNL     1      -6.824  20.847  66.920  1.00  0.00    -0.375 C  
HETATM   38  C   UNL     1      -8.216  19.511  68.549  1.00  0.00    -0.373 C  
HETATM   39  C   UNL     1      -6.802  19.843  68.077  1.00  0.00    -0.274 C  
HETATM   40  H   UNL     1      -5.203  18.420  68.248  1.00  0.00     0.000 HD 
ENDBRANCH  32  35
ENDBRANCH  31  32
ENDBRANCH  24  26
ENDBRANCH   6  24
TORSDOF 10
ENDMDL
MODEL       42
REMARK 921   NORMALIZED FREE ENERGY PREDICTED BY IDOCK:   -6.85 KCAL/MOL
REMARK 922        TOTAL FREE ENERGY PREDICTED BY IDOCK:  -12.20 KCAL/MOL
REMARK 923 INTER-LIGAND FREE ENERGY PREDICTED BY IDOCK:  -11.19 KCAL/MOL
REMARK 924 INTRA-LIGAND FREE ENERGY PREDICTED BY IDOCK:   -1.01 KCAL/MOL
REMARK 927      BINDING AFFINITY PREDICTED BY RF-SCORE:    0.00 PKD
ROOT
HETATM    1  C   UNL     1      -8.490   8.152  64.206  1.00  0.00     0.041 C  
HETATM    2  C   UNL     1      -9.086   9.523  64.211  1.00  0.00    -0.220 A  
HETATM    3  C   UNL     1      -8.969  10.305  63.076  1.00  0.00    -0.247 A  
HETATM    4  N   UNL     1      -9.461  11.545  62.957  1.00  0.00    -0.367 NA 
HETATM    5  C   UNL     1     -10.070  12.042  64.034  1.00  0.00    -0.335 A  
HETATM    6  C   UNL     1      -9.796  10.085  65.271  1.00  0.00    -0.318 A  
HETATM    7  N   UNL     1     -10.258  11.345  65.172  1.00  0.00    -0.263 NA 
ENDROOT
BRANCH   5   8
HETATM    8  N   UNL     1     -10.507  13.362  63.902  1.00  0.00    -0.596 NA 
HETATM    9  H   UNL     1     -10.681  13.669  62.945  1.00  0.00     0.000 HD 
BRANCH   8  10
HETATM   10  C   UNL     1     -10.743  14.327  64.891  1.00  0.00    -0.432 A  
HETATM   11  C   UNL     1      -9.984  15.488  64.969  1.00  0.00    -0.057 A  
HETATM   12  C   UNL     1     -11.843  14.979  66.974  1.00  0.00    -0.124 A  
HETATM   13  C   UNL     1     -11.032  16.107  67.066  1.00  0.00    -0.123 A  
HETATM   14  C   UNL     1     -10.123  16.370  66.034  1.00  0.00    -0.373 A  
HETATM   15  C   UNL     1     -11.697  14.093  65.893  1.00  0.00    -0.369 A  
BRANCH  13  16
HETATM   16  O   UNL     1     -11.155  16.892  68.192  1.00  0.00    -0.347 OA 
BRANCH  16  17
HETATM   17  C   UNL     1     -11.784  16.192  69.267  1.00  0.00    -0.223 C  
BRANCH  17  18
HETATM   18  C   UNL     1     -10.828  15.718  70.362  1.00  0.00    -0.329 C  
BRANCH  18  19
HETATM   19  N   UNL     1     -11.581  14.925  71.347  1.00  0.00    -0.332 NA 
HETATM   20  C   UNL     1     -12.807  14.316  70.815  1.00  0.00    -0.337 C  
HETATM   21  C   UNL     1     -11.978  15.689  72.523  1.00  0.00    -0.464 C  
HETATM   22  C   UNL     1     -13.709  14.110  72.023  1.00  0.00    -0.554 C  
HETATM   23  C   UNL     1     -12.954  14.732  73.187  1.00  0.00    -0.623 C  
ENDBRANCH  18  19
ENDBRANCH  17  18
ENDBRANCH  16  17
ENDBRANCH  13  16
ENDBRANCH   8  10
ENDBRANCH   5   8
BRANCH   6  24
HETATM   24  N   UNL     1      -9.929   9.356  66.482  1.00  0.00    -0.251 NA 
HETATM   25  H   UNL     1      -9.507   8.428  66.445  1.00  0.00     0.000 HD 
BRANCH  24  26
HETATM   26  C   UNL     1     -10.528   9.653  67.731  1.00  0.00    -0.256 A  
HETATM   27  C   UNL     1     -11.463  10.670  67.945  1.00  0.00    -0.261 A  
HETATM   28  C   UNL     1     -10.042   8.988  68.873  1.00  0.00    -0.207 A  
HETATM   29  C   UNL     1     -11.892  11.025  69.236  1.00  0.00    -0.411 A  
HETATM   30  C   UNL     1     -11.351  10.399  70.357  1.00  0.00    -0.417 A  
HETATM   31  C   UNL     1     -10.404   9.394  70.170  1.00  0.00    -0.233 A  
BRANCH  31  32
HETATM   32  S   UNL     1      -9.685   8.594  71.583  1.00  0.00    -0.303 S  
HETATM   33  O   UNL     1      -8.404   9.226  71.821  1.00  0.00    -0.284 OA 
HETATM   34  O   UNL     1     -10.685   8.534  72.626  1.00  0.00    -0.302 OA 
BRANCH  32  35
HETATM   35  N   UNL     1      -9.321   7.036  71.071  1.00  0.00    -0.159 N  
HETATM   36  C   UNL     1      -9.476   4.673  70.474  1.00  0.00    -0.247 C  
HETATM   37  C   UNL     1     -10.698   5.494  72.465  1.00  0.00    -0.289 C  
HETATM   38  C   UNL     1     -11.449   6.146  70.143  1.00  0.00    -0.365 C  
HETATM   39  C   UNL     1     -10.250   5.879  71.052  1.00  0.00    -0.211 C  
HETATM   40  H   UNL     1      -8.370   6.869  70.741  1.00  0.00     0.000 HD 
ENDBRANCH  32  35
ENDBRANCH  31  32
ENDBRANCH  24  26
ENDBRANCH   6  24
TORSDOF 10
ENDMDL
MODEL       43
REMARK 921   NORMALIZED FREE ENERGY PREDICTED BY IDOCK:   -6.84 KCAL/MOL
REMARK 922        TOTAL FREE ENERGY PREDICTED BY IDOCK:  -12.19 KCAL/MOL
REMARK 923 INTER-LIGAND FREE ENERGY PREDICTED BY IDOCK:  -11.10 KCAL/MOL
REMARK 924 INTRA-LIGAND FREE ENERGY PREDICTED BY IDOCK:   -1.09 KCAL/MOL
REMARK 927      BINDING AFFINITY PREDICTED BY RF-SCORE:    0.00 PKD
ROOT
HETATM    1  C   UNL     1      -8.785   8.013  67.819  1.00  0.00    -0.127 C  
HETATM    2  C   UNL     1      -9.414   9.108  67.017  1.00  0.00    -0.201 A  
HETATM    3  C   UNL     1      -9.400   9.016  65.637  1.00  0.00    -0.222 A  
HETATM    4  N   UNL     1      -9.930   9.928  64.812  1.00  0.00    -0.201 NA 
HETATM    5  C   UNL     1     -10.471  11.001  65.390  1.00  0.00    -0.241 A  
HETATM    6  C   UNL     1     -10.058  10.224  67.549  1.00  0.00    -0.198 A  
HETATM    7  N   UNL     1     -10.557  11.163  66.726  1.00  0.00    -0.252 NA 
ENDROOT
BRANCH   5   8
HETATM    8  N   UNL     1     -10.949  11.967  64.502  1.00  0.00    -0.303 NA 
HETATM    9  H   UNL     1     -11.254  11.611  63.596  1.00  0.00     0.000 HD 
BRANCH   8  10
HETATM   10  C   UNL     1     -11.072  13.352  64.672  1.00  0.00    -0.366 A  
HETATM   11  C   UNL     1     -12.142  14.058  64.136  1.00  0.00    -0.456 A  
HETATM   12  C   UNL     1     -10.092  15.483  65.361  1.00  0.00    -0.387 A  
HETATM   13  C   UNL     1     -11.143  16.176  64.766  1.00  0.00    -0.333 A  
HETATM   14  C   UNL     1     -12.186  15.447  64.181  1.00  0.00    -0.075 A  
HETATM   15  C   UNL     1     -10.056  14.079  65.312  1.00  0.00    -0.345 A  
BRANCH  13  16
HETATM   16  O   UNL     1     -11.081  17.552  64.765  1.00  0.00    -0.959 OA 
BRANCH  16  17
HETATM   17  C   UNL     1     -10.768  18.076  66.058  1.00  0.00    -0.133 C  
BRANCH  17  18
HETATM   18  C   UNL     1     -10.028  19.414  66.039  1.00  0.00    -0.367 C  
BRANCH  18  19
HETATM   19  N   UNL     1      -8.732  19.254  66.716  1.00  0.00    -0.298 NA 
HETATM   20  C   UNL     1      -8.786  18.429  67.929  1.00  0.00    -0.280 C  
HETATM   21  C   UNL     1      -8.123  20.519  67.106  1.00  0.00    -0.302 C  
HETATM   22  C   UNL     1      -7.605  18.881  68.776  1.00  0.00    -0.368 C  
HETATM   23  C   UNL     1      -6.997  20.045  68.010  1.00  0.00    -0.321 C  
ENDBRANCH  18  19
ENDBRANCH  17  18
ENDBRANCH  16  17
ENDBRANCH  13  16
ENDBRANCH   8  10
ENDBRANCH   5   8
BRANCH   6  24
HETATM   24  N   UNL     1     -10.085  10.404  68.957  1.00  0.00    -0.202 NA 
HETATM   25  H   UNL     1      -9.290  10.936  69.313  1.00  0.00     0.000 HD 
BRANCH  24  26
HETATM   26  C   UNL     1     -10.988   9.996  69.970  1.00  0.00    -0.300 A  
HETATM   27  C   UNL     1     -11.999  10.799  70.506  1.00  0.00    -0.456 A  
HETATM   28  C   UNL     1     -10.763   8.757  70.598  1.00  0.00    -0.267 A  
HETATM   29  C   UNL     1     -12.752  10.398  71.624  1.00  0.00    -0.560 A  
HETATM   30  C   UNL     1     -12.471   9.196  72.271  1.00  0.00    -0.403 A  
HETATM   31  C   UNL     1     -11.455   8.387  71.766  1.00  0.00    -0.301 A  
BRANCH  31  32
HETATM   32  S   UNL     1     -11.064   6.860  72.582  1.00  0.00    -0.264 S  
HETATM   33  O   UNL     1     -10.629   7.195  73.922  1.00  0.00    -0.362 OA 
HETATM   34  O   UNL     1     -12.160   5.941  72.369  1.00  0.00    -0.270 OA 
BRANCH  32  35
HETATM   35  N   UNL     1      -9.693   6.280  71.803  1.00  0.00    -0.154 N  
HETATM   36  C   UNL     1      -8.167   4.970  70.418  1.00  0.00    -0.096 C  
HETATM   37  C   UNL     1      -9.938   3.801  71.694  1.00  0.00    -0.211 C  
HETATM   38  C   UNL     1     -10.532   5.241  69.706  1.00  0.00    -0.340 C  
HETATM   39  C   UNL     1      -9.622   5.087  70.924  1.00  0.00    -0.179 C  
HETATM   40  H   UNL     1      -8.826   6.798  71.949  1.00  0.00     0.000 HD 
ENDBRANCH  32  35
ENDBRANCH  31  32
ENDBRANCH  24  26
ENDBRANCH   6  24
TORSDOF 10
ENDMDL
MODEL       44
REMARK 921   NORMALIZED FREE ENERGY PREDICTED BY IDOCK:   -6.84 KCAL/MOL
REMARK 922        TOTAL FREE ENERGY PREDICTED BY IDOCK:  -12.19 KCAL/MOL
REMARK 923 INTER-LIGAND FREE ENERGY PREDICTED BY IDOCK:  -11.04 KCAL/MOL
REMARK 924 INTRA-LIGAND FREE ENERGY PREDICTED BY IDOCK:   -1.15 KCAL/MOL
REMARK 927      BINDING AFFINITY PREDICTED BY RF-SCORE:    0.00 PKD
ROOT
HETATM    1  C   UNL     1      -9.145   9.352  64.468  1.00  0.00    -0.205 C  
HETATM    2  C   UNL     1      -9.796   9.655  65.780  1.00  0.00    -0.373 A  
HETATM    3  C   UNL     1     -10.156   8.604  66.605  1.00  0.00    -0.294 A  
HETATM    4  N   UNL     1     -10.742   8.747  67.800  1.00  0.00    -0.181 NA 
HETATM    5  C   UNL     1     -11.012   9.996  68.179  1.00  0.00    -0.235 A  
HETATM    6  C   UNL     1     -10.047  10.934  66.274  1.00  0.00    -0.233 A  
HETATM    7  N   UNL     1     -10.671  11.083  67.457  1.00  0.00    -0.227 NA 
ENDROOT
BRANCH   5   8
HETATM    8  N   UNL     1     -11.688  10.107  69.396  1.00  0.00    -0.476 NA 
HETATM    9  H   UNL     1     -12.487  10.740  69.392  1.00  0.00     0.000 HD 
BRANCH   8  10
HETATM   10  C   UNL     1     -11.430   9.477  70.620  1.00  0.00    -0.297 A  
HETATM   11  C   UNL     1     -10.135   9.322  71.099  1.00  0.00    -0.374 A  
HETATM   12  C   UNL     1     -12.220   8.133  72.503  1.00  0.00    -0.335 A  
HETATM   13  C   UNL     1     -10.910   7.940  72.934  1.00  0.00    -0.386 A  
HETATM   14  C   UNL     1      -9.872   8.571  72.239  1.00  0.00    -0.383 A  
HETATM   15  C   UNL     1     -12.478   8.896  71.351  1.00  0.00    -0.357 A  
BRANCH  13  16
HETATM   16  O   UNL     1     -10.710   7.110  74.016  1.00  0.00    -0.283 OA 
BRANCH  16  17
HETATM   17  C   UNL     1      -9.824   6.031  73.707  1.00  0.00    -0.184 C  
BRANCH  17  18
HETATM   18  C   UNL     1     -10.443   4.928  72.847  1.00  0.00    -0.204 C  
BRANCH  18  19
HETATM   19  N   UNL     1      -9.676   4.809  71.597  1.00  0.00    -0.161 NA 
HETATM   20  C   UNL     1     -10.282   5.503  70.453  1.00  0.00    -0.251 C  
HETATM   21  C   UNL     1      -9.465   3.430  71.177  1.00  0.00    -0.154 C  
HETATM   22  C   UNL     1      -9.753   4.783  69.221  1.00  0.00    -0.266 C  
HETATM   23  C   UNL     1      -8.934   3.623  69.766  1.00  0.00    -0.171 C  
ENDBRANCH  18  19
ENDBRANCH  17  18
ENDBRANCH  16  17
ENDBRANCH  13  16
ENDBRANCH   8  10
ENDBRANCH   5   8
BRANCH   6  24
HETATM   24  N   UNL     1      -9.735  12.063  65.471  1.00  0.00    -0.308 NA 
HETATM   25  H   UNL     1      -9.087  11.853  64.711  1.00  0.00     0.000 HD 
BRANCH  24  26
HETATM   26  C   UNL     1     -10.138  13.421  65.508  1.00  0.00    -0.266 A  
HETATM   27  C   UNL     1     -11.256  13.938  64.847  1.00  0.00    -0.356 A  
HETATM   28  C   UNL     1      -9.276  14.350  66.120  1.00  0.00    -0.152 A  
HETATM   29  C   UNL     1     -11.507  15.320  64.783  1.00  0.00    -0.364 A  
HETATM   30  C   UNL     1     -10.608  16.228  65.339  1.00  0.00    -0.371 A  
HETATM   31  C   UNL     1      -9.477  15.737  65.987  1.00  0.00    -0.357 A  
BRANCH  31  32
HETATM   32  S   UNL     1      -8.306  16.873  66.688  1.00  0.00    -0.281 S  
HETATM   33  O   UNL     1      -7.427  16.102  67.542  1.00  0.00    -0.131 OA 
HETATM   34  O   UNL     1      -7.772  17.688  65.620  1.00  0.00    -0.527 OA 
BRANCH  32  35
HETATM   35  N   UNL     1      -9.200  17.841  67.732  1.00  0.00    -0.253 N  
HETATM   36  C   UNL     1     -10.129  19.758  68.925  1.00  0.00    -0.481 C  
HETATM   37  C   UNL     1      -7.711  19.730  68.391  1.00  0.00    -0.336 C  
HETATM   38  C   UNL     1      -9.423  20.021  66.558  1.00  0.00    -0.518 C  
HETATM   39  C   UNL     1      -9.090  19.315  67.871  1.00  0.00    -0.313 C  
HETATM   40  H   UNL     1      -9.883  17.371  68.326  1.00  0.00     0.000 HD 
ENDBRANCH  32  35
ENDBRANCH  31  32
ENDBRANCH  24  26
ENDBRANCH   6  24
TORSDOF 10
ENDMDL
MODEL       45
REMARK 921   NORMALIZED FREE ENERGY PREDICTED BY IDOCK:   -6.83 KCAL/MOL
REMARK 922        TOTAL FREE ENERGY PREDICTED BY IDOCK:  -12.18 KCAL/MOL
REMARK 923 INTER-LIGAND FREE ENERGY PREDICTED BY IDOCK:   -9.72 KCAL/MOL
REMARK 924 INTRA-LIGAND FREE ENERGY PREDICTED BY IDOCK:   -2.46 KCAL/MOL
REMARK 927      BINDING AFFINITY PREDICTED BY RF-SCORE:    0.00 PKD
ROOT
HETATM    1  C   UNL     1     -10.729  19.821  66.034  1.00  0.00    -0.493 C  
HETATM    2  C   UNL     1      -9.552  19.057  66.551  1.00  0.00    -0.386 A  
HETATM    3  C   UNL     1      -8.662  19.696  67.396  1.00  0.00    -0.310 A  
HETATM    4  N   UNL     1      -7.575  19.119  67.925  1.00  0.00    -0.263 NA 
HETATM    5  C   UNL     1      -7.346  17.855  67.568  1.00  0.00    -0.200 A  
HETATM    6  C   UNL     1      -9.284  17.716  66.280  1.00  0.00    -0.190 A  
HETATM    7  N   UNL     1      -8.173  17.144  66.776  1.00  0.00    -0.221 NA 
ENDROOT
BRANCH   5   8
HETATM    8  N   UNL     1      -6.167  17.307  68.078  1.00  0.00    -0.140 NA 
HETATM    9  H   UNL     1      -5.349  17.914  68.030  1.00  0.00     0.000 HD 
BRANCH   8  10
HETATM   10  C   UNL     1      -5.942  16.046  68.646  1.00  0.00    -0.104 A  
HETATM   11  C   UNL     1      -5.346  15.019  67.923  1.00  0.00    -0.108 A  
HETATM   12  C   UNL     1      -6.322  14.460  70.466  1.00  0.00    -0.121 A  
HETATM   13  C   UNL     1      -5.775  13.431  69.704  1.00  0.00    -0.105 A  
HETATM   14  C   UNL     1      -5.257  13.731  68.438  1.00  0.00    -0.100 A  
HETATM   15  C   UNL     1      -6.407  15.760  69.939  1.00  0.00    -0.146 A  
BRANCH  13  16
HETATM   16  O   UNL     1      -5.800  12.160  70.236  1.00  0.00    -0.145 OA 
BRANCH  16  17
HETATM   17  C   UNL     1      -6.123  11.173  69.253  1.00  0.00    -0.056 C  
BRANCH  17  18
HETATM   18  C   UNL     1      -7.505  10.541  69.419  1.00  0.00    -0.141 C  
BRANCH  18  19
HETATM   19  N   UNL     1      -8.107  10.350  68.090  1.00  0.00    -0.109 NA 
HETATM   20  C   UNL     1      -8.000  11.520  67.209  1.00  0.00    -0.153 C  
HETATM   21  C   UNL     1      -9.521  10.001  68.140  1.00  0.00    -0.138 C  
HETATM   22  C   UNL     1      -9.149  11.384  66.220  1.00  0.00    -0.211 C  
HETATM   23  C   UNL     1      -9.922  10.159  66.683  1.00  0.00    -0.272 C  
ENDBRANCH  18  19
ENDBRANCH  17  18
ENDBRANCH  16  17
ENDBRANCH  13  16
ENDBRANCH   8  10
ENDBRANCH   5   8
BRANCH   6  24
HETATM   24  N   UNL     1     -10.135  17.003  65.395  1.00  0.00    -0.579 NA 
HETATM   25  H   UNL     1     -10.300  17.487  64.513  1.00  0.00     0.000 HD 
BRANCH  24  26
HETATM   26  C   UNL     1     -10.803  15.756  65.487  1.00  0.00    -0.332 A  
HETATM   27  C   UNL     1     -11.603  15.206  64.481  1.00  0.00    -0.330 A  
HETATM   28  C   UNL     1     -10.796  15.091  66.727  1.00  0.00    -0.318 A  
HETATM   29  C   UNL     1     -12.374  14.050  64.695  1.00  0.00    -0.425 A  
HETATM   30  C   UNL     1     -12.404  13.442  65.949  1.00  0.00    -0.493 A  
HETATM   31  C   UNL     1     -11.629  13.984  66.972  1.00  0.00    -0.371 A  
BRANCH  31  32
HETATM   32  S   UNL     1     -11.664  13.240  68.584  1.00  0.00    -0.356 S  
HETATM   33  O   UNL     1     -12.316  11.955  68.444  1.00  0.00    -0.319 OA 
HETATM   34  O   UNL     1     -10.339  13.338  69.156  1.00  0.00    -0.037 OA 
BRANCH  32  35
HETATM   35  N   UNL     1     -12.727  14.181  69.483  1.00  0.00    -0.394 N  
HETATM   36  C   UNL     1     -13.853  15.336  71.317  1.00  0.00    -0.562 C  
HETATM   37  C   UNL     1     -12.981  13.048  71.689  1.00  0.00    -0.417 C  
HETATM   38  C   UNL     1     -11.394  14.994  71.418  1.00  0.00    -0.327 C  
HETATM   39  C   UNL     1     -12.707  14.364  70.956  1.00  0.00    -0.346 C  
HETATM   40  H   UNL     1     -13.456  14.674  68.967  1.00  0.00     0.000 HD 
ENDBRANCH  32  35
ENDBRANCH  31  32
ENDBRANCH  24  26
ENDBRANCH   6  24
TORSDOF 10
ENDMDL
MODEL       46
REMARK 921   NORMALIZED FREE ENERGY PREDICTED BY IDOCK:   -6.82 KCAL/MOL
REMARK 922        TOTAL FREE ENERGY PREDICTED BY IDOCK:  -12.16 KCAL/MOL
REMARK 923 INTER-LIGAND FREE ENERGY PREDICTED BY IDOCK:  -10.71 KCAL/MOL
REMARK 924 INTRA-LIGAND FREE ENERGY PREDICTED BY IDOCK:   -1.46 KCAL/MOL
REMARK 927      BINDING AFFINITY PREDICTED BY RF-SCORE:    0.00 PKD
ROOT
HETATM    1  C   UNL     1      -9.389   9.865  62.493  1.00  0.00    -0.263 C  
HETATM    2  C   UNL     1      -9.872  10.769  63.581  1.00  0.00    -0.406 A  
HETATM    3  C   UNL     1     -10.221  12.070  63.262  1.00  0.00    -0.361 A  
HETATM    4  N   UNL     1     -10.668  12.972  64.145  1.00  0.00    -0.408 NA 
HETATM    5  C   UNL     1     -10.739  12.568  65.414  1.00  0.00    -0.280 A  
HETATM    6  C   UNL     1     -10.040  10.401  64.915  1.00  0.00    -0.312 A  
HETATM    7  N   UNL     1     -10.450  11.313  65.814  1.00  0.00    -0.252 NA 
ENDROOT
BRANCH   5   8
HETATM    8  N   UNL     1     -11.138  13.553  66.321  1.00  0.00    -0.299 NA 
HETATM    9  H   UNL     1     -12.140  13.590  66.508  1.00  0.00     0.000 HD 
BRANCH   8  10
HETATM   10  C   UNL     1     -10.366  14.496  67.012  1.00  0.00    -0.263 A  
HETATM   11  C   UNL     1      -9.256  15.093  66.428  1.00  0.00    -0.334 A  
HETATM   12  C   UNL     1      -9.790  15.616  69.106  1.00  0.00    -0.247 A  
HETATM   13  C   UNL     1      -8.650  16.159  68.520  1.00  0.00    -0.202 A  
HETATM   14  C   UNL     1      -8.409  15.916  67.162  1.00  0.00    -0.231 A  
HETATM   15  C   UNL     1     -10.642  14.787  68.356  1.00  0.00    -0.242 A  
BRANCH  13  16
HETATM   16  O   UNL     1      -7.804  16.890  69.325  1.00  0.00    -0.178 OA 
BRANCH  16  17
HETATM   17  C   UNL     1      -7.131  17.922  68.600  1.00  0.00    -0.266 C  
BRANCH  17  18
HETATM   18  C   UNL     1      -7.507  19.342  69.022  1.00  0.00    -0.349 C  
BRANCH  18  19
HETATM   19  N   UNL     1      -8.602  19.823  68.164  1.00  0.00    -0.312 NA 
HETATM   20  C   UNL     1      -9.928  19.321  68.546  1.00  0.00    -0.433 C  
HETATM   21  C   UNL     1      -8.425  19.489  66.757  1.00  0.00    -0.309 C  
HETATM   22  C   UNL     1     -10.761  19.381  67.274  1.00  0.00    -0.603 C  
HETATM   23  C   UNL     1      -9.793  19.831  66.192  1.00  0.00    -0.544 C  
ENDBRANCH  18  19
ENDBRANCH  17  18
ENDBRANCH  16  17
ENDBRANCH  13  16
ENDBRANCH   8  10
ENDBRANCH   5   8
BRANCH   6  24
HETATM   24  N   UNL     1      -9.672   9.092  65.325  1.00  0.00    -0.443 NA 
HETATM   25  H   UNL     1      -9.930   8.369  64.653  1.00  0.00     0.000 HD 
BRANCH  24  26
HETATM   26  C   UNL     1      -9.020   8.584  66.476  1.00  0.00    -0.161 A  
HETATM   27  C   UNL     1      -7.634   8.501  66.635  1.00  0.00    -0.082 A  
HETATM   28  C   UNL     1      -9.810   7.974  67.469  1.00  0.00    -0.224 A  
HETATM   29  C   UNL     1      -7.050   7.832  67.726  1.00  0.00    -0.082 A  
HETATM   30  C   UNL     1      -7.848   7.180  68.664  1.00  0.00    -0.122 A  
HETATM   31  C   UNL     1      -9.232   7.233  68.516  1.00  0.00    -0.138 A  
BRANCH  31  32
HETATM   32  S   UNL     1     -10.271   6.394  69.687  1.00  0.00    -0.202 S  
HETATM   33  O   UNL     1     -10.971   5.354  68.963  1.00  0.00    -0.107 OA 
HETATM   34  O   UNL     1      -9.475   6.077  70.851  1.00  0.00    -0.165 OA 
BRANCH  32  35
HETATM   35  N   UNL     1     -11.453   7.512  70.110  1.00  0.00    -0.471 N  
HETATM   36  C   UNL     1     -12.701   9.286  71.231  1.00  0.00    -0.368 C  
HETATM   37  C   UNL     1     -11.420   7.666  72.599  1.00  0.00    -0.403 C  
HETATM   38  C   UNL     1     -10.218   9.382  71.187  1.00  0.00    -0.361 C  
HETATM   39  C   UNL     1     -11.413   8.433  71.273  1.00  0.00    -0.280 C  
HETATM   40  H   UNL     1     -12.277   7.561  69.510  1.00  0.00     0.000 HD 
ENDBRANCH  32  35
ENDBRANCH  31  32
ENDBRANCH  24  26
ENDBRANCH   6  24
TORSDOF 10
ENDMDL
MODEL       47
REMARK 921   NORMALIZED FREE ENERGY PREDICTED BY IDOCK:   -6.79 KCAL/MOL
REMARK 922        TOTAL FREE ENERGY PREDICTED BY IDOCK:  -12.10 KCAL/MOL
REMARK 923 INTER-LIGAND FREE ENERGY PREDICTED BY IDOCK:  -10.12 KCAL/MOL
REMARK 924 INTRA-LIGAND FREE ENERGY PREDICTED BY IDOCK:   -1.98 KCAL/MOL
REMARK 927      BINDING AFFINITY PREDICTED BY RF-SCORE:    0.00 PKD
ROOT
HETATM    1  C   UNL     1      -8.996   2.880  65.825  1.00  0.00    -0.144 C  
HETATM    2  C   UNL     1      -8.826   4.362  65.720  1.00  0.00    -0.122 A  
HETATM    3  C   UNL     1      -8.010   4.872  64.725  1.00  0.00    -0.098 A  
HETATM    4  N   UNL     1      -7.781   6.176  64.529  1.00  0.00    -0.098 NA 
HETATM    5  C   UNL     1      -8.366   7.013  65.386  1.00  0.00    -0.118 A  
HETATM    6  C   UNL     1      -9.458   5.302  66.534  1.00  0.00    -0.149 A  
HETATM    7  N   UNL     1      -9.200   6.611  66.367  1.00  0.00    -0.159 NA 
ENDROOT
BRANCH   5   8
HETATM    8  N   UNL     1      -8.049   8.360  65.200  1.00  0.00    -0.139 NA 
HETATM    9  H   UNL     1      -7.068   8.599  65.341  1.00  0.00     0.000 HD 
BRANCH   8  10
HETATM   10  C   UNL     1      -8.880   9.432  64.847  1.00  0.00    -0.202 A  
HETATM   11  C   UNL     1      -9.826   9.939  65.730  1.00  0.00    -0.356 A  
HETATM   12  C   UNL     1      -9.769  10.930  63.132  1.00  0.00    -0.396 A  
HETATM   13  C   UNL     1     -10.746  11.383  64.013  1.00  0.00    -0.387 A  
HETATM   14  C   UNL     1     -10.744  10.902  65.328  1.00  0.00    -0.194 A  
HETATM   15  C   UNL     1      -8.842   9.957  63.546  1.00  0.00    -0.251 A  
BRANCH  13  16
HETATM   16  O   UNL     1     -11.683  12.269  63.527  1.00  0.00    -0.450 OA 
BRANCH  16  17
HETATM   17  C   UNL     1     -12.464  12.852  64.572  1.00  0.00    -0.400 C  
BRANCH  17  18
HETATM   18  C   UNL     1     -12.406  14.379  64.632  1.00  0.00    -0.418 C  
BRANCH  18  19
HETATM   19  N   UNL     1     -11.487  14.783  65.708  1.00  0.00    -0.344 NA 
HETATM   20  C   UNL     1     -10.066  14.649  65.364  1.00  0.00    -0.372 C  
HETATM   21  C   UNL     1     -11.682  14.039  66.945  1.00  0.00    -0.410 C  
HETATM   22  C   UNL     1      -9.344  14.494  66.694  1.00  0.00    -0.301 C  
HETATM   23  C   UNL     1     -10.450  14.443  67.737  1.00  0.00    -0.245 C  
ENDBRANCH  18  19
ENDBRANCH  17  18
ENDBRANCH  16  17
ENDBRANCH  13  16
ENDBRANCH   8  10
ENDBRANCH   5   8
BRANCH   6  24
HETATM   24  N   UNL     1     -10.285   4.854  67.598  1.00  0.00    -0.117 NA 
HETATM   25  H   UNL     1     -11.048   4.251  67.292  1.00  0.00     0.000 HD 
BRANCH  24  26
HETATM   26  C   UNL     1     -10.266   5.073  68.998  1.00  0.00    -0.137 A  
HETATM   27  C   UNL     1      -9.683   4.211  69.931  1.00  0.00    -0.280 A  
HETATM   28  C   UNL     1     -11.018   6.147  69.509  1.00  0.00    -0.463 A  
HETATM   29  C   UNL     1      -9.846   4.397  71.315  1.00  0.00    -0.260 A  
HETATM   30  C   UNL     1     -10.647   5.428  71.801  1.00  0.00    -0.286 A  
HETATM   31  C   UNL     1     -11.254   6.289  70.889  1.00  0.00    -0.324 A  
BRANCH  31  32
HETATM   32  S   UNL     1     -12.295   7.600  71.481  1.00  0.00    -0.340 S  
HETATM   33  O   UNL     1     -13.651   7.092  71.493  1.00  0.00    -0.351 OA 
HETATM   34  O   UNL     1     -11.699   8.144  72.680  1.00  0.00    -0.399 OA 
BRANCH  32  35
HETATM   35  N   UNL     1     -12.270   8.766  70.270  1.00  0.00    -0.271 N  
HETATM   36  C   UNL     1     -11.834  10.797  68.986  1.00  0.00    -0.325 C  
HETATM   37  C   UNL     1     -12.257  10.978  71.420  1.00  0.00    -0.292 C  
HETATM   38  C   UNL     1     -10.109   9.959  70.566  1.00  0.00    -0.207 C  
HETATM   39  C   UNL     1     -11.615  10.095  70.345  1.00  0.00    -0.316 C  
HETATM   40  H   UNL     1     -12.752   8.537  69.400  1.00  0.00     0.000 HD 
ENDBRANCH  32  35
ENDBRANCH  31  32
ENDBRANCH  24  26
ENDBRANCH   6  24
TORSDOF 10
ENDMDL
MODEL       48
REMARK 921   NORMALIZED FREE ENERGY PREDICTED BY IDOCK:   -6.76 KCAL/MOL
REMARK 922        TOTAL FREE ENERGY PREDICTED BY IDOCK:  -12.06 KCAL/MOL
REMARK 923 INTER-LIGAND FREE ENERGY PREDICTED BY IDOCK:  -10.54 KCAL/MOL
REMARK 924 INTRA-LIGAND FREE ENERGY PREDICTED BY IDOCK:   -1.52 KCAL/MOL
REMARK 927      BINDING AFFINITY PREDICTED BY RF-SCORE:    0.00 PKD
ROOT
HETATM    1  C   UNL     1     -10.926   4.640  73.520  1.00  0.00    -0.395 C  
HETATM    2  C   UNL     1     -10.373   4.924  72.160  1.00  0.00    -0.263 A  
HETATM    3  C   UNL     1      -9.914   3.868  71.393  1.00  0.00    -0.127 A  
HETATM    4  N   UNL     1      -9.400   3.994  70.162  1.00  0.00    -0.151 NA 
HETATM    5  C   UNL     1      -9.310   5.236  69.686  1.00  0.00    -0.126 A  
HETATM    6  C   UNL     1     -10.310   6.184  71.567  1.00  0.00    -0.209 A  
HETATM    7  N   UNL     1      -9.759   6.322  70.348  1.00  0.00    -0.164 NA 
ENDROOT
BRANCH   5   8
HETATM    8  N   UNL     1      -8.704   5.341  68.432  1.00  0.00    -0.098 NA 
HETATM    9  H   UNL     1      -8.231   4.497  68.107  1.00  0.00     0.000 HD 
BRANCH   8  10
HETATM   10  C   UNL     1      -8.650   6.432  67.555  1.00  0.00    -0.115 A  
HETATM   11  C   UNL     1      -7.439   6.960  67.125  1.00  0.00    -0.095 A  
HETATM   12  C   UNL     1      -9.786   8.266  66.407  1.00  0.00    -0.283 A  
HETATM   13  C   UNL     1      -8.561   8.813  66.036  1.00  0.00    -0.148 A  
HETATM   14  C   UNL     1      -7.387   8.129  66.375  1.00  0.00    -0.080 A  
HETATM   15  C   UNL     1      -9.830   7.083  67.165  1.00  0.00    -0.225 A  
BRANCH  13  16
HETATM   16  O   UNL     1      -8.575  10.021  65.372  1.00  0.00    -0.138 OA 
BRANCH  16  17
HETATM   17  C   UNL     1      -9.895  10.401  64.978  1.00  0.00    -0.319 C  
BRANCH  17  18
HETATM   18  C   UNL     1     -10.028  10.803  63.509  1.00  0.00    -0.344 C  
BRANCH  18  19
HETATM   19  N   UNL     1     -10.626  12.145  63.431  1.00  0.00    -0.442 NA 
HETATM   20  C   UNL     1     -10.127  13.083  64.444  1.00  0.00    -0.221 C  
HETATM   21  C   UNL     1     -12.078  12.140  63.554  1.00  0.00    -0.550 C  
HETATM   22  C   UNL     1     -11.233  14.115  64.615  1.00  0.00    -0.371 C  
HETATM   23  C   UNL     1     -12.369  13.621  63.734  1.00  0.00    -0.357 C  
ENDBRANCH  18  19
ENDBRANCH  17  18
ENDBRANCH  16  17
ENDBRANCH  13  16
ENDBRANCH   8  10
ENDBRANCH   5   8
BRANCH   6  24
HETATM   24  N   UNL     1     -10.733   7.321  72.305  1.00  0.00    -0.221 NA 
HETATM   25  H   UNL     1     -10.436   7.304  73.281  1.00  0.00     0.000 HD 
BRANCH  24  26
HETATM   26  C   UNL     1     -11.483   8.474  71.964  1.00  0.00    -0.361 A  
HETATM   27  C   UNL     1     -12.770   8.755  72.435  1.00  0.00    -0.433 A  
HETATM   28  C   UNL     1     -10.974   9.323  70.964  1.00  0.00    -0.390 A  
HETATM   29  C   UNL     1     -13.527   9.826  71.929  1.00  0.00    -0.485 A  
HETATM   30  C   UNL     1     -13.031  10.616  70.894  1.00  0.00    -0.429 A  
HETATM   31  C   UNL     1     -11.759  10.344  70.396  1.00  0.00    -0.331 A  
BRANCH  31  32
HETATM   32  S   UNL     1     -11.111  11.323  69.065  1.00  0.00    -0.266 S  
HETATM   33  O   UNL     1      -9.755  10.873  68.827  1.00  0.00    -0.179 OA 
HETATM   34  O   UNL     1     -12.084  11.333  67.996  1.00  0.00    -0.638 OA 
BRANCH  32  35
HETATM   35  N   UNL     1     -10.957  12.875  69.691  1.00  0.00    -0.443 N  
HETATM   36  C   UNL     1     -10.690  15.293  69.914  1.00  0.00    -0.300 C  
HETATM   37  C   UNL     1      -9.381  14.090  68.189  1.00  0.00    -0.201 C  
HETATM   38  C   UNL     1     -11.878  14.374  67.934  1.00  0.00    -0.384 C  
HETATM   39  C   UNL     1     -10.732  14.118  68.911  1.00  0.00    -0.256 C  
HETATM   40  H   UNL     1     -11.026  12.973  70.704  1.00  0.00     0.000 HD 
ENDBRANCH  32  35
ENDBRANCH  31  32
ENDBRANCH  24  26
ENDBRANCH   6  24
TORSDOF 10
ENDMDL
MODEL       49
REMARK 921   NORMALIZED FREE ENERGY PREDICTED BY IDOCK:   -6.74 KCAL/MOL
REMARK 922        TOTAL FREE ENERGY PREDICTED BY IDOCK:  -12.03 KCAL/MOL
REMARK 923 INTER-LIGAND FREE ENERGY PREDICTED BY IDOCK:  -10.40 KCAL/MOL
REMARK 924 INTRA-LIGAND FREE ENERGY PREDICTED BY IDOCK:   -1.64 KCAL/MOL
REMARK 927      BINDING AFFINITY PREDICTED BY RF-SCORE:    0.00 PKD
ROOT
HETATM    1  C   UNL     1     -13.350   9.792  72.288  1.00  0.00    -0.472 C  
HETATM    2  C   UNL     1     -13.002  11.053  71.565  1.00  0.00    -0.553 A  
HETATM    3  C   UNL     1     -13.400  12.263  72.105  1.00  0.00    -0.368 A  
HETATM    4  N   UNL     1     -13.147  13.458  71.555  1.00  0.00    -0.361 NA 
HETATM    5  C   UNL     1     -12.495  13.444  70.392  1.00  0.00    -0.252 A  
HETATM    6  C   UNL     1     -12.264  11.124  70.384  1.00  0.00    -0.369 A  
HETATM    7  N   UNL     1     -12.042  12.318  69.806  1.00  0.00    -0.266 NA 
ENDROOT
BRANCH   5   8
HETATM    8  N   UNL     1     -12.312  14.699  69.808  1.00  0.00    -0.484 NA 
HETATM    9  H   UNL     1     -13.094  15.345  69.912  1.00  0.00     0.000 HD 
BRANCH   8  10
HETATM   10  C   UNL     1     -11.211  15.202  69.101  1.00  0.00    -0.279 A  
HETATM   11  C   UNL     1     -11.224  15.306  67.716  1.00  0.00    -0.327 A  
HETATM   12  C   UNL     1      -8.866  15.888  69.069  1.00  0.00    -0.243 A  
HETATM   13  C   UNL     1      -8.881  15.929  67.677  1.00  0.00    -0.174 A  
HETATM   14  C   UNL     1     -10.082  15.666  67.009  1.00  0.00    -0.253 A  
HETATM   15  C   UNL     1     -10.024  15.524  69.777  1.00  0.00    -0.281 A  
BRANCH  13  16
HETATM   16  O   UNL     1      -7.694  16.204  67.033  1.00  0.00    -0.174 OA 
BRANCH  16  17
HETATM   17  C   UNL     1      -7.842  17.230  66.050  1.00  0.00    -0.175 C  
BRANCH  17  18
HETATM   18  C   UNL     1      -7.079  18.519  66.359  1.00  0.00    -0.235 C  
BRANCH  18  19
HETATM   19  N   UNL     1      -7.999  19.483  66.984  1.00  0.00    -0.260 NA 
HETATM   20  C   UNL     1      -8.100  19.356  68.443  1.00  0.00    -0.343 C  
HETATM   21  C   UNL     1      -9.360  19.402  66.469  1.00  0.00    -0.359 C  
HETATM   22  C   UNL     1      -9.462  19.932  68.803  1.00  0.00    -0.264 C  
HETATM   23  C   UNL     1     -10.112  20.264  67.469  1.00  0.00    -0.519 C  
ENDBRANCH  18  19
ENDBRANCH  17  18
ENDBRANCH  16  17
ENDBRANCH  13  16
ENDBRANCH   8  10
ENDBRANCH   5   8
BRANCH   6  24
HETATM   24  N   UNL     1     -11.848   9.922  69.753  1.00  0.00    -0.463 NA 
HETATM   25  H   UNL     1     -12.622   9.369  69.385  1.00  0.00     0.000 HD 
BRANCH  24  26
HETATM   26  C   UNL     1     -10.579   9.333  69.529  1.00  0.00    -0.224 A  
HETATM   27  C   UNL     1      -9.501   9.405  70.416  1.00  0.00    -0.319 A  
HETATM   28  C   UNL     1     -10.324   8.770  68.265  1.00  0.00    -0.252 A  
HETATM   29  C   UNL     1      -8.218   8.948  70.064  1.00  0.00    -0.122 A  
HETATM   30  C   UNL     1      -7.971   8.453  68.785  1.00  0.00    -0.120 A  
HETATM   31  C   UNL     1      -9.026   8.389  67.878  1.00  0.00    -0.137 A  
BRANCH  31  32
HETATM   32  S   UNL     1      -8.734   7.780  66.236  1.00  0.00    -0.161 S  
HETATM   33  O   UNL     1      -7.322   7.952  65.965  1.00  0.00    -0.071 OA 
HETATM   34  O   UNL     1      -9.356   6.480  66.118  1.00  0.00    -0.147 OA 
BRANCH  32  35
HETATM   35  N   UNL     1      -9.515   8.864  65.216  1.00  0.00    -0.447 N  
HETATM   36  C   UNL     1     -10.035  10.782  63.797  1.00  0.00    -0.411 C  
HETATM   37  C   UNL     1      -8.743  11.140  65.880  1.00  0.00    -0.167 C  
HETATM   38  C   UNL     1      -7.697   9.950  63.913  1.00  0.00    -0.140 C  
HETATM   39  C   UNL     1      -8.973  10.157  64.728  1.00  0.00    -0.203 C  
HETATM   40  H   UNL     1     -10.452   8.609  64.902  1.00  0.00     0.000 HD 
ENDBRANCH  32  35
ENDBRANCH  31  32
ENDBRANCH  24  26
ENDBRANCH   6  24
TORSDOF 10
ENDMDL
MODEL       50
REMARK 921   NORMALIZED FREE ENERGY PREDICTED BY IDOCK:   -6.73 KCAL/MOL
REMARK 922        TOTAL FREE ENERGY PREDICTED BY IDOCK:  -12.01 KCAL/MOL
REMARK 923 INTER-LIGAND FREE ENERGY PREDICTED BY IDOCK:  -10.31 KCAL/MOL
REMARK 924 INTRA-LIGAND FREE ENERGY PREDICTED BY IDOCK:   -1.70 KCAL/MOL
REMARK 927      BINDING AFFINITY PREDICTED BY RF-SCORE:    0.00 PKD
ROOT
HETATM    1  C   UNL     1     -13.599  13.173  72.438  1.00  0.00    -0.667 C  
HETATM    2  C   UNL     1     -12.852  13.234  71.144  1.00  0.00    -0.363 A  
HETATM    3  C   UNL     1     -12.683  14.462  70.529  1.00  0.00    -0.340 A  
HETATM    4  N   UNL     1     -12.033  14.646  69.373  1.00  0.00    -0.314 NA 
HETATM    5  C   UNL     1     -11.557  13.548  68.784  1.00  0.00    -0.325 A  
HETATM    6  C   UNL     1     -12.266  12.143  70.504  1.00  0.00    -0.304 A  
HETATM    7  N   UNL     1     -11.647  12.315  69.322  1.00  0.00    -0.304 NA 
ENDROOT
BRANCH   5   8
HETATM    8  N   UNL     1     -10.949  13.765  67.545  1.00  0.00    -0.268 NA 
HETATM    9  H   UNL     1     -11.402  13.309  66.753  1.00  0.00     0.000 HD 
BRANCH   8  10
HETATM   10  C   UNL     1      -9.809  14.516  67.230  1.00  0.00    -0.236 A  
HETATM   11  C   UNL     1      -8.600  14.312  67.884  1.00  0.00    -0.171 A  
HETATM   12  C   UNL     1      -8.797  16.424  66.087  1.00  0.00    -0.349 A  
HETATM   13  C   UNL     1      -7.613  16.240  66.796  1.00  0.00    -0.250 A  
HETATM   14  C   UNL     1      -7.514  15.153  67.673  1.00  0.00    -0.202 A  
HETATM   15  C   UNL     1      -9.890  15.568  66.305  1.00  0.00    -0.317 A  
BRANCH  13  16
HETATM   16  O   UNL     1      -6.606  17.162  66.609  1.00  0.00    -0.197 OA 
BRANCH  16  17
HETATM   17  C   UNL     1      -7.061  18.316  65.898  1.00  0.00    -0.256 C  
BRANCH  17  18
HETATM   18  C   UNL     1      -6.831  19.641  66.625  1.00  0.00    -0.200 C  
BRANCH  18  19
HETATM   19  N   UNL     1      -8.106  20.101  67.197  1.00  0.00    -0.318 NA 
HETATM   20  C   UNL     1      -8.442  19.484  68.487  1.00  0.00    -0.338 C  
HETATM   21  C   UNL     1      -9.249  19.875  66.322  1.00  0.00    -0.373 C  
HETATM   22  C   UNL     1      -9.958  19.572  68.591  1.00  0.00    -0.538 C  
HETATM   23  C   UNL     1     -10.408  20.159  67.263  1.00  0.00    -0.494 C  
ENDBRANCH  18  19
ENDBRANCH  17  18
ENDBRANCH  16  17
ENDBRANCH  13  16
ENDBRANCH   8  10
ENDBRANCH   5   8
BRANCH   6  24
HETATM   24  N   UNL     1     -12.425  10.845  71.058  1.00  0.00    -0.382 NA 
HETATM   25  H   UNL     1     -13.294  10.731  71.580  1.00  0.00     0.000 HD 
BRANCH  24  26
HETATM   26  C   UNL     1     -11.624   9.676  71.034  1.00  0.00    -0.359 A  
HETATM   27  C   UNL     1     -11.060   9.075  72.163  1.00  0.00    -0.271 A  
HETATM   28  C   UNL     1     -11.234   9.167  69.782  1.00  0.00    -0.073 A  
HETATM   29  C   UNL     1     -10.138   8.019  72.058  1.00  0.00    -0.280 A  
HETATM   30  C   UNL     1      -9.715   7.571  70.809  1.00  0.00    -0.174 A  
HETATM   31  C   UNL     1     -10.250   8.167  69.669  1.00  0.00    -0.205 A  
BRANCH  31  32
HETATM   32  S   UNL     1      -9.714   7.629  68.065  1.00  0.00    -0.157 S  
HETATM   33  O   UNL     1      -8.984   6.392  68.254  1.00  0.00    -0.118 OA 
HETATM   34  O   UNL     1     -10.845   7.689  67.166  1.00  0.00    -0.317 OA 
BRANCH  32  35
HETATM   35  N   UNL     1      -8.561   8.752  67.582  1.00  0.00    -0.127 N  
HETATM   36  C   UNL     1      -7.364  10.506  66.375  1.00  0.00    -0.129 C  
HETATM   37  C   UNL     1      -8.623   8.803  65.090  1.00  0.00    -0.209 C  
HETATM   38  C   UNL     1      -9.847  10.549  66.443  1.00  0.00    -0.260 C  
HETATM   39  C   UNL     1      -8.633   9.624  66.383  1.00  0.00    -0.127 C  
HETATM   40  H   UNL     1      -7.732   8.844  68.170  1.00  0.00     0.000 HD 
ENDBRANCH  32  35
ENDBRANCH  31  32
ENDBRANCH  24  26
ENDBRANCH   6  24
TORSDOF 10
ENDMDL
MODEL       51
REMARK 921   NORMALIZED FREE ENERGY PREDICTED BY IDOCK:   -6.73 KCAL/MOL
REMARK 922        TOTAL FREE ENERGY PREDICTED BY IDOCK:  -12.01 KCAL/MOL
REMARK 923 INTER-LIGAND FREE ENERGY PREDICTED BY IDOCK:  -10.58 KCAL/MOL
REMARK 924 INTRA-LIGAND FREE ENERGY PREDICTED BY IDOCK:   -1.42 KCAL/MOL
REMARK 927      BINDING AFFINITY PREDICTED BY RF-SCORE:    0.00 PKD
ROOT
HETATM    1  C   UNL     1      -9.970   5.395  71.140  1.00  0.00    -0.257 C  
HETATM    2  C   UNL     1     -10.677   6.711  71.221  1.00  0.00    -0.269 A  
HETATM    3  C   UNL     1     -10.764   7.346  72.447  1.00  0.00    -0.253 A  
HETATM    4  N   UNL     1     -11.368   8.525  72.646  1.00  0.00    -0.287 NA 
HETATM    5  C   UNL     1     -11.941   9.082  71.579  1.00  0.00    -0.344 A  
HETATM    6  C   UNL     1     -11.240   7.387  70.139  1.00  0.00    -0.218 A  
HETATM    7  N   UNL     1     -11.882   8.552  70.341  1.00  0.00    -0.015 NA 
ENDROOT
BRANCH   5   8
HETATM    8  N   UNL     1     -12.624  10.273  71.835  1.00  0.00    -0.375 NA 
HETATM    9  H   UNL     1     -13.272  10.242  72.622  1.00  0.00     0.000 HD 
BRANCH   8  10
HETATM   10  C   UNL     1     -12.551  11.504  71.170  1.00  0.00    -0.359 A  
HETATM   11  C   UNL     1     -11.863  11.642  69.970  1.00  0.00    -0.435 A  
HETATM   12  C   UNL     1     -12.900  13.923  71.176  1.00  0.00    -0.423 A  
HETATM   13  C   UNL     1     -12.158  14.048  70.004  1.00  0.00    -0.348 A  
HETATM   14  C   UNL     1     -11.669  12.889  69.389  1.00  0.00    -0.382 A  
HETATM   15  C   UNL     1     -13.094  12.657  71.756  1.00  0.00    -0.461 A  
BRANCH  13  16
HETATM   16  O   UNL     1     -11.924  15.320  69.529  1.00  0.00    -0.320 OA 
BRANCH  16  17
HETATM   17  C   UNL     1     -10.616  15.787  69.866  1.00  0.00    -0.328 C  
BRANCH  17  18
HETATM   18  C   UNL     1      -9.598  15.698  68.729  1.00  0.00    -0.215 C  
BRANCH  18  19
HETATM   19  N   UNL     1      -9.494  17.012  68.075  1.00  0.00    -0.250 NA 
HETATM   20  C   UNL     1      -9.845  18.144  68.943  1.00  0.00    -0.309 C  
HETATM   21  C   UNL     1     -10.324  17.133  66.884  1.00  0.00    -0.308 C  
HETATM   22  C   UNL     1     -10.280  19.254  67.997  1.00  0.00    -0.507 C  
HETATM   23  C   UNL     1     -10.245  18.626  66.613  1.00  0.00    -0.441 C  
ENDBRANCH  18  19
ENDBRANCH  17  18
ENDBRANCH  16  17
ENDBRANCH  13  16
ENDBRANCH   8  10
ENDBRANCH   5   8
BRANCH   6  24
HETATM   24  N   UNL     1     -11.218   6.782  68.855  1.00  0.00    -0.531 NA 
HETATM   25  H   UNL     1     -11.860   5.994  68.767  1.00  0.00     0.000 HD 
BRANCH  24  26
HETATM   26  C   UNL     1     -10.488   7.049  67.670  1.00  0.00    -0.237 A  
HETATM   27  C   UNL     1      -9.620   6.146  67.050  1.00  0.00    -0.153 A  
HETATM   28  C   UNL     1     -10.510   8.360  67.160  1.00  0.00    -0.380 A  
HETATM   29  C   UNL     1      -8.797   6.527  65.975  1.00  0.00    -0.154 A  
HETATM   30  C   UNL     1      -8.785   7.846  65.527  1.00  0.00    -0.112 A  
HETATM   31  C   UNL     1      -9.629   8.769  66.142  1.00  0.00    -0.253 A  
BRANCH  31  32
HETATM   32  S   UNL     1      -9.621  10.460  65.602  1.00  0.00    -0.247 S  
HETATM   33  O   UNL     1      -9.850  10.450  64.172  1.00  0.00    -0.319 OA 
HETATM   34  O   UNL     1     -10.479  11.220  66.483  1.00  0.00    -0.235 OA 
BRANCH  32  35
HETATM   35  N   UNL     1      -8.033  10.977  65.792  1.00  0.00    -0.340 N  
HETATM   36  C   UNL     1      -5.901  11.682  66.752  1.00  0.00    -0.140 C  
HETATM   37  C   UNL     1      -8.007  12.457  67.799  1.00  0.00    -0.156 C  
HETATM   38  C   UNL     1      -7.304  10.037  67.976  1.00  0.00    -0.087 C  
HETATM   39  C   UNL     1      -7.354  11.273  67.079  1.00  0.00    -0.136 C  
HETATM   40  H   UNL     1      -7.482  11.099  64.942  1.00  0.00     0.000 HD 
ENDBRANCH  32  35
ENDBRANCH  31  32
ENDBRANCH  24  26
ENDBRANCH   6  24
TORSDOF 10
ENDMDL
MODEL       52
REMARK 921   NORMALIZED FREE ENERGY PREDICTED BY IDOCK:   -6.72 KCAL/MOL
REMARK 922        TOTAL FREE ENERGY PREDICTED BY IDOCK:  -11.99 KCAL/MOL
REMARK 923 INTER-LIGAND FREE ENERGY PREDICTED BY IDOCK:  -10.97 KCAL/MOL
REMARK 924 INTRA-LIGAND FREE ENERGY PREDICTED BY IDOCK:   -1.02 KCAL/MOL
REMARK 927      BINDING AFFINITY PREDICTED BY RF-SCORE:    0.00 PKD
ROOT
HETATM    1  C   UNL     1     -12.371  12.228  63.823  1.00  0.00    -0.637 C  
HETATM    2  C   UNL     1     -11.950  13.186  64.891  1.00  0.00    -0.431 A  
HETATM    3  C   UNL     1     -11.887  14.535  64.589  1.00  0.00    -0.453 A  
HETATM    4  N   UNL     1     -11.526  15.489  65.458  1.00  0.00    -0.090 NA 
HETATM    5  C   UNL     1     -11.180  15.074  66.677  1.00  0.00    -0.311 A  
HETATM    6  C   UNL     1     -11.640  12.838  66.205  1.00  0.00    -0.379 A  
HETATM    7  N   UNL     1     -11.239  13.786  67.070  1.00  0.00    -0.302 NA 
ENDROOT
BRANCH   5   8
HETATM    8  N   UNL     1     -10.740  16.084  67.536  1.00  0.00    -0.317 NA 
HETATM    9  H   UNL     1     -11.139  16.061  68.474  1.00  0.00     0.000 HD 
BRANCH   8  10
HETATM   10  C   UNL     1      -9.830  17.123  67.299  1.00  0.00    -0.265 A  
HETATM   11  C   UNL     1     -10.191  18.455  67.457  1.00  0.00    -0.393 A  
HETATM   12  C   UNL     1      -7.679  17.875  66.416  1.00  0.00    -0.311 A  
HETATM   13  C   UNL     1      -8.082  19.204  66.526  1.00  0.00    -0.298 A  
HETATM   14  C   UNL     1      -9.335  19.484  67.082  1.00  0.00    -0.409 A  
HETATM   15  C   UNL     1      -8.549  16.841  66.798  1.00  0.00    -0.264 A  
BRANCH  13  16
HETATM   16  O   UNL     1      -7.223  20.173  66.052  1.00  0.00    -0.278 OA 
BRANCH  16  17
HETATM   17  C   UNL     1      -6.774  21.045  67.091  1.00  0.00    -0.357 C  
BRANCH  17  18
HETATM   18  C   UNL     1      -5.471  20.613  67.765  1.00  0.00    -0.225 C  
BRANCH  18  19
HETATM   19  N   UNL     1      -5.790  19.897  69.010  1.00  0.00    -0.242 NA 
HETATM   20  C   UNL     1      -5.312  20.566  70.227  1.00  0.00    -0.308 C  
HETATM   21  C   UNL     1      -5.258  18.541  69.051  1.00  0.00    -0.189 C  
HETATM   22  C   UNL     1      -5.162  19.460  71.261  1.00  0.00    -0.317 C  
HETATM   23  C   UNL     1      -5.476  18.176  70.510  1.00  0.00    -0.238 C  
ENDBRANCH  18  19
ENDBRANCH  17  18
ENDBRANCH  16  17
ENDBRANCH  13  16
ENDBRANCH   8  10
ENDBRANCH   5   8
BRANCH   6  24
HETATM   24  N   UNL     1     -11.651  11.469  66.581  1.00  0.00    -0.459 NA 
HETATM   25  H   UNL     1     -12.534  11.169  66.994  1.00  0.00     0.000 HD 
BRANCH  24  26
HETATM   26  C   UNL     1     -10.687  10.434  66.500  1.00  0.00    -0.092 A  
HETATM   27  C   UNL     1      -9.812  10.242  65.427  1.00  0.00    -0.362 A  
HETATM   28  C   UNL     1     -10.707   9.432  67.488  1.00  0.00    -0.290 A  
HETATM   29  C   UNL     1      -8.998   9.100  65.327  1.00  0.00    -0.246 A  
HETATM   30  C   UNL     1      -9.079   8.089  66.282  1.00  0.00    -0.232 A  
HETATM   31  C   UNL     1      -9.957   8.249  67.352  1.00  0.00    -0.209 A  
BRANCH  31  32
HETATM   32  S   UNL     1     -10.094   6.967  68.573  1.00  0.00    -0.171 S  
HETATM   33  O   UNL     1     -11.362   6.304  68.351  1.00  0.00    -0.298 OA 
HETATM   34  O   UNL     1      -8.858   6.216  68.580  1.00  0.00    -0.115 OA 
BRANCH  32  35
HETATM   35  N   UNL     1     -10.265   7.769  70.040  1.00  0.00    -0.206 N  
HETATM   36  C   UNL     1     -10.816   8.321  72.354  1.00  0.00    -0.421 C  
HETATM   37  C   UNL     1     -12.432   7.008  71.012  1.00  0.00    -0.373 C  
HETATM   38  C   UNL     1     -10.252   5.975  71.761  1.00  0.00    -0.242 C  
HETATM   39  C   UNL     1     -10.937   7.243  71.254  1.00  0.00    -0.243 C  
HETATM   40  H   UNL     1      -9.869   8.707  70.102  1.00  0.00     0.000 HD 
ENDBRANCH  32  35
ENDBRANCH  31  32
ENDBRANCH  24  26
ENDBRANCH   6  24
TORSDOF 10
ENDMDL
MODEL       53
REMARK 921   NORMALIZED FREE ENERGY PREDICTED BY IDOCK:   -6.70 KCAL/MOL
REMARK 922        TOTAL FREE ENERGY PREDICTED BY IDOCK:  -11.96 KCAL/MOL
REMARK 923 INTER-LIGAND FREE ENERGY PREDICTED BY IDOCK:  -10.56 KCAL/MOL
REMARK 924 INTRA-LIGAND FREE ENERGY PREDICTED BY IDOCK:   -1.40 KCAL/MOL
REMARK 927      BINDING AFFINITY PREDICTED BY RF-SCORE:    0.00 PKD
ROOT
HETATM    1  C   UNL     1     -13.088   9.938  71.569  1.00  0.00    -0.516 C  
HETATM    2  C   UNL     1     -12.723  11.223  70.897  1.00  0.00    -0.412 A  
HETATM    3  C   UNL     1     -12.998  12.415  71.543  1.00  0.00    -0.285 A  
HETATM    4  N   UNL     1     -12.718  13.627  71.047  1.00  0.00    -0.343 NA 
HETATM    5  C   UNL     1     -12.166  13.653  69.833  1.00  0.00    -0.304 A  
HETATM    6  C   UNL     1     -12.082  11.329  69.663  1.00  0.00    -0.322 A  
HETATM    7  N   UNL     1     -11.834  12.544  69.142  1.00  0.00    -0.306 NA 
ENDROOT
BRANCH   5   8
HETATM    8  N   UNL     1     -11.953  14.932  69.314  1.00  0.00    -0.422 NA 
HETATM    9  H   UNL     1     -12.728  15.584  69.433  1.00  0.00     0.000 HD 
BRANCH   8  10
HETATM   10  C   UNL     1     -10.832  15.451  68.653  1.00  0.00    -0.259 A  
HETATM   11  C   UNL     1     -10.805  15.597  67.271  1.00  0.00    -0.298 A  
HETATM   12  C   UNL     1      -8.484  16.129  68.708  1.00  0.00    -0.236 A  
HETATM   13  C   UNL     1      -8.461  16.211  67.318  1.00  0.00    -0.180 A  
HETATM   14  C   UNL     1      -9.643  15.973  66.608  1.00  0.00    -0.258 A  
HETATM   15  C   UNL     1      -9.663  15.748  69.371  1.00  0.00    -0.286 A  
BRANCH  13  16
HETATM   16  O   UNL     1      -7.255  16.500  66.716  1.00  0.00    -0.199 OA 
BRANCH  16  17
HETATM   17  C   UNL     1      -7.293  17.742  66.009  1.00  0.00    -0.272 C  
BRANCH  17  18
HETATM   18  C   UNL     1      -6.930  18.964  66.853  1.00  0.00    -0.200 C  
BRANCH  18  19
HETATM   19  N   UNL     1      -8.158  19.709  67.172  1.00  0.00    -0.273 NA 
HETATM   20  C   UNL     1      -8.687  19.447  68.517  1.00  0.00    -0.367 C  
HETATM   21  C   UNL     1      -9.250  19.449  66.243  1.00  0.00    -0.348 C  
HETATM   22  C   UNL     1     -10.174  19.759  68.431  1.00  0.00    -0.568 C  
HETATM   23  C   UNL     1     -10.421  20.090  66.968  1.00  0.00    -0.513 C  
ENDBRANCH  18  19
ENDBRANCH  17  18
ENDBRANCH  16  17
ENDBRANCH  13  16
ENDBRANCH   8  10
ENDBRANCH   5   8
BRANCH   6  24
HETATM   24  N   UNL     1     -11.796  10.150  68.926  1.00  0.00    -0.564 NA 
HETATM   25  H   UNL     1     -12.549   9.874  68.295  1.00  0.00     0.000 HD 
BRANCH  24  26
HETATM   26  C   UNL     1     -10.680   9.279  68.885  1.00  0.00    -0.156 A  
HETATM   27  C   UNL     1     -10.267   8.566  67.756  1.00  0.00    -0.283 A  
HETATM   28  C   UNL     1     -10.028   8.982  70.097  1.00  0.00    -0.216 A  
HETATM   29  C   UNL     1      -9.257   7.589  67.823  1.00  0.00    -0.139 A  
HETATM   30  C   UNL     1      -8.668   7.264  69.043  1.00  0.00    -0.132 A  
HETATM   31  C   UNL     1      -9.077   7.948  70.186  1.00  0.00    -0.152 A  
BRANCH  31  32
HETATM   32  S   UNL     1      -8.357   7.540  71.757  1.00  0.00    -0.109 S  
HETATM   33  O   UNL     1      -6.944   7.316  71.530  1.00  0.00    -0.058 OA 
HETATM   34  O   UNL     1      -8.805   8.514  72.727  1.00  0.00    -0.315 OA 
BRANCH  32  35
HETATM   35  N   UNL     1      -8.985   6.032  72.153  1.00  0.00    -0.142 N  
HETATM   36  C   UNL     1     -10.402   4.242  73.020  1.00  0.00    -0.239 C  
HETATM   37  C   UNL     1     -10.070   6.283  74.384  1.00  0.00    -0.355 C  
HETATM   38  C   UNL     1     -11.446   6.368  72.268  1.00  0.00    -0.339 C  
HETATM   39  C   UNL     1     -10.212   5.774  72.946  1.00  0.00    -0.190 C  
HETATM   40  H   UNL     1      -8.474   5.216  71.815  1.00  0.00     0.000 HD 
ENDBRANCH  32  35
ENDBRANCH  31  32
ENDBRANCH  24  26
ENDBRANCH   6  24
TORSDOF 10
ENDMDL
MODEL       54
REMARK 921   NORMALIZED FREE ENERGY PREDICTED BY IDOCK:   -6.68 KCAL/MOL
REMARK 922        TOTAL FREE ENERGY PREDICTED BY IDOCK:  -11.94 KCAL/MOL
REMARK 923 INTER-LIGAND FREE ENERGY PREDICTED BY IDOCK:  -10.49 KCAL/MOL
REMARK 924 INTRA-LIGAND FREE ENERGY PREDICTED BY IDOCK:   -1.45 KCAL/MOL
REMARK 927      BINDING AFFINITY PREDICTED BY RF-SCORE:    0.00 PKD
ROOT
HETATM    1  C   UNL     1     -13.653  15.685  72.139  1.00  0.00    -0.558 C  
HETATM    2  C   UNL     1     -13.267  14.345  71.599  1.00  0.00    -0.425 A  
HETATM    3  C   UNL     1     -13.626  13.212  72.309  1.00  0.00    -0.581 A  
HETATM    4  N   UNL     1     -13.340  11.960  71.929  1.00  0.00    -0.405 NA 
HETATM    5  C   UNL     1     -12.635  11.832  70.805  1.00  0.00    -0.253 A  
HETATM    6  C   UNL     1     -12.592  14.127  70.399  1.00  0.00    -0.332 A  
HETATM    7  N   UNL     1     -12.268  12.874  70.033  1.00  0.00    -0.265 NA 
ENDROOT
BRANCH   5   8
HETATM    8  N   UNL     1     -12.291  10.519  70.475  1.00  0.00    -0.322 NA 
HETATM    9  H   UNL     1     -12.753  10.144  69.647  1.00  0.00     0.000 HD 
BRANCH   8  10
HETATM   10  C   UNL     1     -11.406   9.641  71.115  1.00  0.00    -0.386 A  
HETATM   11  C   UNL     1     -10.072   9.552  70.737  1.00  0.00    -0.352 A  
HETATM   12  C   UNL     1     -11.035   7.768  72.640  1.00  0.00    -0.422 A  
HETATM   13  C   UNL     1      -9.716   7.656  72.206  1.00  0.00    -0.174 A  
HETATM   14  C   UNL     1      -9.234   8.581  71.272  1.00  0.00    -0.256 A  
HETATM   15  C   UNL     1     -11.875   8.754  72.096  1.00  0.00    -0.436 A  
BRANCH  13  16
HETATM   16  O   UNL     1      -8.965   6.615  72.707  1.00  0.00    -0.124 OA 
BRANCH  16  17
HETATM   17  C   UNL     1      -8.686   5.628  71.713  1.00  0.00    -0.136 C  
BRANCH  17  18
HETATM   18  C   UNL     1      -9.911   4.855  71.223  1.00  0.00    -0.201 C  
BRANCH  18  19
HETATM   19  N   UNL     1     -10.089   5.101  69.784  1.00  0.00    -0.245 NA 
HETATM   20  C   UNL     1      -8.911   5.677  69.123  1.00  0.00    -0.110 C  
HETATM   21  C   UNL     1     -11.204   5.989  69.481  1.00  0.00    -0.346 C  
HETATM   22  C   UNL     1      -9.452   6.409  67.903  1.00  0.00    -0.115 C  
HETATM   23  C   UNL     1     -10.963   6.286  68.011  1.00  0.00    -0.418 C  
ENDBRANCH  18  19
ENDBRANCH  17  18
ENDBRANCH  16  17
ENDBRANCH  13  16
ENDBRANCH   8  10
ENDBRANCH   5   8
BRANCH   6  24
HETATM   24  N   UNL     1     -12.163  15.242  69.632  1.00  0.00    -0.509 NA 
HETATM   25  H   UNL     1     -12.535  16.132  69.966  1.00  0.00     0.000 HD 
BRANCH  24  26
HETATM   26  C   UNL     1     -11.324  15.373  68.498  1.00  0.00    -0.335 A  
HETATM   27  C   UNL     1     -11.741  15.206  67.175  1.00  0.00    -0.141 A  
HETATM   28  C   UNL     1      -9.941  15.528  68.712  1.00  0.00    -0.214 A  
HETATM   29  C   UNL     1     -10.828  15.181  66.106  1.00  0.00    -0.330 A  
HETATM   30  C   UNL     1      -9.458  15.271  66.344  1.00  0.00    -0.326 A  
HETATM   31  C   UNL     1      -9.017  15.420  67.657  1.00  0.00    -0.181 A  
BRANCH  31  32
HETATM   32  S   UNL     1      -7.276  15.518  67.990  1.00  0.00    -0.133 S  
HETATM   33  O   UNL     1      -6.966  14.469  68.940  1.00  0.00    -0.098 OA 
HETATM   34  O   UNL     1      -6.578  15.600  66.726  1.00  0.00    -0.189 OA 
BRANCH  32  35
HETATM   35  N   UNL     1      -7.067  16.955  68.835  1.00  0.00    -0.210 N  
HETATM   36  C   UNL     1      -6.823  19.316  69.412  1.00  0.00    -0.316 C  
HETATM   37  C   UNL     1      -5.756  18.466  67.345  1.00  0.00    -0.145 C  
HETATM   38  C   UNL     1      -8.269  18.672  67.497  1.00  0.00    -0.266 C  
HETATM   39  C   UNL     1      -6.986  18.315  68.246  1.00  0.00    -0.237 C  
HETATM   40  H   UNL     1      -6.988  16.887  69.850  1.00  0.00     0.000 HD 
ENDBRANCH  32  35
ENDBRANCH  31  32
ENDBRANCH  24  26
ENDBRANCH   6  24
TORSDOF 10
ENDMDL
MODEL       55
REMARK 921   NORMALIZED FREE ENERGY PREDICTED BY IDOCK:   -6.68 KCAL/MOL
REMARK 922        TOTAL FREE ENERGY PREDICTED BY IDOCK:  -11.94 KCAL/MOL
REMARK 923 INTER-LIGAND FREE ENERGY PREDICTED BY IDOCK:  -11.15 KCAL/MOL
REMARK 924 INTRA-LIGAND FREE ENERGY PREDICTED BY IDOCK:   -0.78 KCAL/MOL
REMARK 927      BINDING AFFINITY PREDICTED BY RF-SCORE:    0.00 PKD
ROOT
HETATM    1  C   UNL     1      -6.430   8.000  67.456  1.00  0.00    -0.057 C  
HETATM    2  C   UNL     1      -7.819   8.553  67.481  1.00  0.00    -0.099 A  
HETATM    3  C   UNL     1      -8.020   9.868  67.098  1.00  0.00    -0.109 A  
HETATM    4  N   UNL     1      -9.213  10.475  67.076  1.00  0.00    -0.150 NA 
HETATM    5  C   UNL     1     -10.252   9.748  67.487  1.00  0.00    -0.220 A  
HETATM    6  C   UNL     1      -8.962   7.836  67.831  1.00  0.00    -0.125 A  
HETATM    7  N   UNL     1     -10.157   8.452  67.849  1.00  0.00    -0.192 NA 
ENDROOT
BRANCH   5   8
HETATM    8  N   UNL     1     -11.470  10.431  67.522  1.00  0.00    -0.538 NA 
HETATM    9  H   UNL     1     -12.282   9.886  67.234  1.00  0.00     0.000 HD 
BRANCH   8  10
HETATM   10  C   UNL     1     -11.739  11.755  67.893  1.00  0.00    -0.276 A  
HETATM   11  C   UNL     1     -11.893  12.759  66.945  1.00  0.00    -0.440 A  
HETATM   12  C   UNL     1     -11.884  13.464  69.635  1.00  0.00    -0.394 A  
HETATM   13  C   UNL     1     -11.977  14.462  68.669  1.00  0.00    -0.297 A  
HETATM   14  C   UNL     1     -12.014  14.093  67.319  1.00  0.00    -0.449 A  
HETATM   15  C   UNL     1     -11.763  12.118  69.249  1.00  0.00    -0.386 A  
BRANCH  13  16
HETATM   16  O   UNL     1     -12.003  15.770  69.102  1.00  0.00    -0.387 OA 
BRANCH  16  17
HETATM   17  C   UNL     1     -10.765  16.161  69.699  1.00  0.00    -0.325 C  
BRANCH  17  18
HETATM   18  C   UNL     1      -9.733  16.716  68.716  1.00  0.00    -0.254 C  
BRANCH  18  19
HETATM   19  N   UNL     1     -10.269  17.940  68.099  1.00  0.00    -0.362 NA 
HETATM   20  C   UNL     1     -10.207  17.948  66.632  1.00  0.00    -0.371 C  
HETATM   21  C   UNL     1      -9.601  19.155  68.546  1.00  0.00    -0.395 C  
HETATM   22  C   UNL     1     -10.190  19.418  66.239  1.00  0.00    -0.566 C  
HETATM   23  C   UNL     1     -10.138  20.175  67.556  1.00  0.00    -0.549 C  
ENDBRANCH  18  19
ENDBRANCH  17  18
ENDBRANCH  16  17
ENDBRANCH  13  16
ENDBRANCH   8  10
ENDBRANCH   5   8
BRANCH   6  24
HETATM   24  N   UNL     1      -8.831   6.491  68.266  1.00  0.00    -0.120 NA 
HETATM   25  H   UNL     1      -8.457   5.868  67.551  1.00  0.00     0.000 HD 
BRANCH  24  26
HETATM   26  C   UNL     1      -9.115   5.837  69.491  1.00  0.00    -0.130 A  
HETATM   27  C   UNL     1      -9.332   4.462  69.628  1.00  0.00    -0.228 A  
HETATM   28  C   UNL     1      -9.351   6.632  70.627  1.00  0.00    -0.164 A  
HETATM   29  C   UNL     1      -9.775   3.898  70.836  1.00  0.00    -0.253 A  
HETATM   30  C   UNL     1     -10.065   4.709  71.932  1.00  0.00    -0.266 A  
HETATM   31  C   UNL     1      -9.874   6.085  71.813  1.00  0.00    -0.165 A  
BRANCH  31  32
HETATM   32  S   UNL     1     -10.254   7.143  73.187  1.00  0.00    -0.313 S  
HETATM   33  O   UNL     1     -10.182   6.329  74.382  1.00  0.00    -0.319 OA 
HETATM   34  O   UNL     1      -9.462   8.347  73.063  1.00  0.00    -0.250 OA 
BRANCH  32  35
HETATM   35  N   UNL     1     -11.881   7.528  73.012  1.00  0.00    -0.573 N  
HETATM   36  C   UNL     1     -14.037   8.219  72.095  1.00  0.00    -0.418 C  
HETATM   37  C   UNL     1     -11.989   9.423  71.394  1.00  0.00    -0.446 C  
HETATM   38  C   UNL     1     -12.405   7.052  70.629  1.00  0.00    -0.239 C  
HETATM   39  C   UNL     1     -12.533   8.045  71.783  1.00  0.00    -0.324 C  
HETATM   40  H   UNL     1     -12.477   7.394  73.829  1.00  0.00     0.000 HD 
ENDBRANCH  32  35
ENDBRANCH  31  32
ENDBRANCH  24  26
ENDBRANCH   6  24
TORSDOF 10
ENDMDL
MODEL       56
REMARK 921   NORMALIZED FREE ENERGY PREDICTED BY IDOCK:   -6.66 KCAL/MOL
REMARK 922        TOTAL FREE ENERGY PREDICTED BY IDOCK:  -11.90 KCAL/MOL
REMARK 923 INTER-LIGAND FREE ENERGY PREDICTED BY IDOCK:  -10.85 KCAL/MOL
REMARK 924 INTRA-LIGAND FREE ENERGY PREDICTED BY IDOCK:   -1.05 KCAL/MOL
REMARK 927      BINDING AFFINITY PREDICTED BY RF-SCORE:    0.00 PKD
ROOT
HETATM    1  C   UNL     1      -8.150   9.533  62.472  1.00  0.00    -0.137 C  
HETATM    2  C   UNL     1      -9.150  10.287  63.289  1.00  0.00    -0.284 A  
HETATM    3  C   UNL     1      -9.777  11.386  62.728  1.00  0.00    -0.219 A  
HETATM    4  N   UNL     1     -10.689  12.139  63.356  1.00  0.00    -0.438 NA 
HETATM    5  C   UNL     1     -10.965  11.801  64.616  1.00  0.00    -0.310 A  
HETATM    6  C   UNL     1      -9.542   9.955  64.585  1.00  0.00    -0.252 A  
HETATM    7  N   UNL     1     -10.427  10.731  65.235  1.00  0.00    -0.248 NA 
ENDROOT
BRANCH   5   8
HETATM    8  N   UNL     1     -11.864  12.649  65.266  1.00  0.00    -0.386 NA 
HETATM    9  H   UNL     1     -12.849  12.410  65.149  1.00  0.00     0.000 HD 
BRANCH   8  10
HETATM   10  C   UNL     1     -11.613  13.779  66.056  1.00  0.00    -0.346 A  
HETATM   11  C   UNL     1     -10.845  14.837  65.588  1.00  0.00    -0.344 A  
HETATM   12  C   UNL     1     -11.687  14.880  68.237  1.00  0.00    -0.342 A  
HETATM   13  C   UNL     1     -10.867  15.902  67.766  1.00  0.00    -0.324 A  
HETATM   14  C   UNL     1     -10.477  15.887  66.421  1.00  0.00    -0.311 A  
HETATM   15  C   UNL     1     -12.056  13.823  67.388  1.00  0.00    -0.378 A  
BRANCH  13  16
HETATM   16  O   UNL     1     -10.464  16.864  68.666  1.00  0.00    -0.307 OA 
BRANCH  16  17
HETATM   17  C   UNL     1     -10.312  18.145  68.051  1.00  0.00    -0.391 C  
BRANCH  17  18
HETATM   18  C   UNL     1      -9.361  19.093  68.783  1.00  0.00    -0.372 C  
BRANCH  18  19
HETATM   19  N   UNL     1      -8.581  19.850  67.792  1.00  0.00    -0.319 NA 
HETATM   20  C   UNL     1      -8.546  19.234  66.459  1.00  0.00    -0.334 C  
HETATM   21  C   UNL     1      -7.193  20.059  68.185  1.00  0.00    -0.285 C  
HETATM   22  C   UNL     1      -7.271  19.755  65.810  1.00  0.00    -0.336 C  
HETATM   23  C   UNL     1      -6.589  20.578  66.891  1.00  0.00    -0.306 C  
ENDBRANCH  18  19
ENDBRANCH  17  18
ENDBRANCH  16  17
ENDBRANCH  13  16
ENDBRANCH   8  10
ENDBRANCH   5   8
BRANCH   6  24
HETATM   24  N   UNL     1      -8.919   8.859  65.238  1.00  0.00    -0.319 NA 
HETATM   25  H   UNL     1      -8.653   8.106  64.604  1.00  0.00     0.000 HD 
BRANCH  24  26
HETATM   26  C   UNL     1      -8.590   8.598  66.592  1.00  0.00    -0.117 A  
HETATM   27  C   UNL     1      -7.300   8.669  67.126  1.00  0.00    -0.088 A  
HETATM   28  C   UNL     1      -9.595   8.078  67.429  1.00  0.00    -0.196 A  
HETATM   29  C   UNL     1      -7.012   8.234  68.431  1.00  0.00    -0.073 A  
HETATM   30  C   UNL     1      -8.007   7.663  69.222  1.00  0.00    -0.126 A  
HETATM   31  C   UNL     1      -9.297   7.565  68.704  1.00  0.00    -0.143 A  
BRANCH  31  32
HETATM   32  S   UNL     1     -10.580   6.824  69.684  1.00  0.00    -0.250 S  
HETATM   33  O   UNL     1     -11.481   6.156  68.768  1.00  0.00    -0.259 OA 
HETATM   34  O   UNL     1      -9.958   6.099  70.770  1.00  0.00    -0.182 OA 
BRANCH  32  35
HETATM   35  N   UNL     1     -11.460   8.113  70.308  1.00  0.00    -0.457 N  
HETATM   36  C   UNL     1     -12.836   9.528  71.745  1.00  0.00    -0.496 C  
HETATM   37  C   UNL     1     -13.383   7.120  71.547  1.00  0.00    -0.413 C  
HETATM   38  C   UNL     1     -11.306   7.865  72.777  1.00  0.00    -0.453 C  
HETATM   39  C   UNL     1     -12.222   8.120  71.581  1.00  0.00    -0.308 C  
HETATM   40  H   UNL     1     -11.471   8.973  69.759  1.00  0.00     0.000 HD 
ENDBRANCH  32  35
ENDBRANCH  31  32
ENDBRANCH  24  26
ENDBRANCH   6  24
TORSDOF 10
ENDMDL
MODEL       57
REMARK 921   NORMALIZED FREE ENERGY PREDICTED BY IDOCK:   -6.62 KCAL/MOL
REMARK 922        TOTAL FREE ENERGY PREDICTED BY IDOCK:  -11.84 KCAL/MOL
REMARK 923 INTER-LIGAND FREE ENERGY PREDICTED BY IDOCK:   -9.92 KCAL/MOL
REMARK 924 INTRA-LIGAND FREE ENERGY PREDICTED BY IDOCK:   -1.92 KCAL/MOL
REMARK 927      BINDING AFFINITY PREDICTED BY RF-SCORE:    0.00 PKD
ROOT
HETATM    1  C   UNL     1     -11.079  12.130  65.765  1.00  0.00    -0.362 C  
HETATM    2  C   UNL     1     -10.465  10.877  66.303  1.00  0.00    -0.304 A  
HETATM    3  C   UNL     1      -9.370  10.338  65.651  1.00  0.00    -0.192 A  
HETATM    4  N   UNL     1      -8.733   9.225  66.036  1.00  0.00    -0.146 NA 
HETATM    5  C   UNL     1      -9.233   8.599  67.102  1.00  0.00    -0.144 A  
HETATM    6  C   UNL     1     -10.887  10.205  67.450  1.00  0.00    -0.261 A  
HETATM    7  N   UNL     1     -10.276   9.065  67.818  1.00  0.00    -0.216 NA 
ENDROOT
BRANCH   5   8
HETATM    8  N   UNL     1      -8.592   7.403  67.434  1.00  0.00    -0.118 NA 
HETATM    9  H   UNL     1      -7.906   7.075  66.754  1.00  0.00     0.000 HD 
BRANCH   8  10
HETATM   10  C   UNL     1      -8.752   6.588  68.562  1.00  0.00    -0.122 A  
HETATM   11  C   UNL     1      -7.966   6.754  69.696  1.00  0.00    -0.124 A  
HETATM   12  C   UNL     1      -9.720   4.599  69.601  1.00  0.00    -0.283 A  
HETATM   13  C   UNL     1      -8.882   4.748  70.703  1.00  0.00    -0.112 A  
HETATM   14  C   UNL     1      -8.027   5.855  70.754  1.00  0.00    -0.114 A  
HETATM   15  C   UNL     1      -9.654   5.513  68.535  1.00  0.00    -0.162 A  
BRANCH  13  16
HETATM   16  O   UNL     1      -8.926   3.772  71.675  1.00  0.00    -0.100 OA 
BRANCH  16  17
HETATM   17  C   UNL     1      -9.102   4.325  72.981  1.00  0.00    -0.111 C  
BRANCH  17  18
HETATM   18  C   UNL     1     -10.548   4.332  73.479  1.00  0.00    -0.217 C  
BRANCH  18  19
HETATM   19  N   UNL     1     -11.100   5.688  73.330  1.00  0.00    -0.270 NA 
HETATM   20  C   UNL     1     -11.765   5.926  72.042  1.00  0.00    -0.193 C  
HETATM   21  C   UNL     1     -10.102   6.739  73.478  1.00  0.00    -0.268 C  
HETATM   22  C   UNL     1     -11.692   7.431  71.826  1.00  0.00    -0.319 C  
HETATM   23  C   UNL     1     -10.872   7.956  72.994  1.00  0.00    -0.408 C  
ENDBRANCH  18  19
ENDBRANCH  17  18
ENDBRANCH  16  17
ENDBRANCH  13  16
ENDBRANCH   8  10
ENDBRANCH   5   8
BRANCH   6  24
HETATM   24  N   UNL     1     -12.025  10.680  68.153  1.00  0.00    -0.783 NA 
HETATM   25  H   UNL     1     -12.896  10.578  67.632  1.00  0.00     0.000 HD 
BRANCH  24  26
HETATM   26  C   UNL     1     -12.199  11.267  69.431  1.00  0.00    -0.247 A  
HETATM   27  C   UNL     1     -12.900  10.678  70.488  1.00  0.00    -0.356 A  
HETATM   28  C   UNL     1     -11.778  12.597  69.612  1.00  0.00    -0.373 A  
HETATM   29  C   UNL     1     -13.184  11.381  71.673  1.00  0.00    -0.413 A  
HETATM   30  C   UNL     1     -12.815  12.718  71.807  1.00  0.00    -0.342 A  
HETATM   31  C   UNL     1     -12.131  13.331  70.759  1.00  0.00    -0.226 A  
BRANCH  31  32
HETATM   32  S   UNL     1     -11.666  15.039  70.898  1.00  0.00    -0.347 S  
HETATM   33  O   UNL     1     -12.617  15.802  70.116  1.00  0.00    -0.347 OA 
HETATM   34  O   UNL     1     -11.451  15.337  72.296  1.00  0.00    -0.447 OA 
BRANCH  32  35
HETATM   35  N   UNL     1     -10.208  15.169  70.071  1.00  0.00    -0.489 N  
HETATM   36  C   UNL     1      -8.480  15.781  68.458  1.00  0.00    -0.181 C  
HETATM   37  C   UNL     1     -10.782  15.355  67.652  1.00  0.00    -0.292 C  
HETATM   38  C   UNL     1     -10.264  17.418  69.014  1.00  0.00    -0.317 C  
HETATM   39  C   UNL     1      -9.974  15.931  68.819  1.00  0.00    -0.220 C  
HETATM   40  H   UNL     1      -9.407  14.678  70.468  1.00  0.00     0.000 HD 
ENDBRANCH  32  35
ENDBRANCH  31  32
ENDBRANCH  24  26
ENDBRANCH   6  24
TORSDOF 10
ENDMDL
MODEL       58
REMARK 921   NORMALIZED FREE ENERGY PREDICTED BY IDOCK:   -6.62 KCAL/MOL
REMARK 922        TOTAL FREE ENERGY PREDICTED BY IDOCK:  -11.84 KCAL/MOL
REMARK 923 INTER-LIGAND FREE ENERGY PREDICTED BY IDOCK:  -10.40 KCAL/MOL
REMARK 924 INTRA-LIGAND FREE ENERGY PREDICTED BY IDOCK:   -1.44 KCAL/MOL
REMARK 927      BINDING AFFINITY PREDICTED BY RF-SCORE:    0.00 PKD
ROOT
HETATM    1  C   UNL     1      -9.150  10.149  64.069  1.00  0.00    -0.289 C  
HETATM    2  C   UNL     1      -9.862  10.385  65.362  1.00  0.00    -0.347 A  
HETATM    3  C   UNL     1     -10.155   9.299  66.170  1.00  0.00    -0.233 A  
HETATM    4  N   UNL     1     -10.785   9.382  67.348  1.00  0.00    -0.262 NA 
HETATM    5  C   UNL     1     -11.172  10.601  67.725  1.00  0.00    -0.313 A  
HETATM    6  C   UNL     1     -10.237  11.633  65.856  1.00  0.00    -0.238 A  
HETATM    7  N   UNL     1     -10.905  11.718  67.020  1.00  0.00    -0.249 NA 
ENDROOT
BRANCH   5   8
HETATM    8  N   UNL     1     -11.890  10.643  68.923  1.00  0.00    -0.603 NA 
HETATM    9  H   UNL     1     -12.743  11.202  68.898  1.00  0.00     0.000 HD 
BRANCH   8  10
HETATM   10  C   UNL     1     -11.612  10.031  70.152  1.00  0.00    -0.252 A  
HETATM   11  C   UNL     1     -10.308   9.769  70.555  1.00  0.00    -0.348 A  
HETATM   12  C   UNL     1     -12.399   8.831  72.130  1.00  0.00    -0.458 A  
HETATM   13  C   UNL     1     -11.087   8.527  72.486  1.00  0.00    -0.258 A  
HETATM   14  C   UNL     1     -10.042   9.033  71.704  1.00  0.00    -0.405 A  
HETATM   15  C   UNL     1     -12.660   9.576  70.968  1.00  0.00    -0.331 A  
BRANCH  13  16
HETATM   16  O   UNL     1     -10.894   7.717  73.584  1.00  0.00    -0.259 OA 
BRANCH  16  17
HETATM   17  C   UNL     1     -10.224   6.502  73.244  1.00  0.00    -0.224 C  
BRANCH  17  18
HETATM   18  C   UNL     1     -11.110   5.456  72.566  1.00  0.00    -0.253 C  
BRANCH  18  19
HETATM   19  N   UNL     1     -10.611   5.214  71.203  1.00  0.00    -0.173 NA 
HETATM   20  C   UNL     1      -9.156   5.355  71.064  1.00  0.00    -0.143 C  
HETATM   21  C   UNL     1     -11.206   6.092  70.205  1.00  0.00    -0.382 C  
HETATM   22  C   UNL     1      -8.924   5.692  69.598  1.00  0.00    -0.135 C  
HETATM   23  C   UNL     1     -10.316   5.828  69.002  1.00  0.00    -0.313 C  
ENDBRANCH  18  19
ENDBRANCH  17  18
ENDBRANCH  16  17
ENDBRANCH  13  16
ENDBRANCH   8  10
ENDBRANCH   5   8
BRANCH   6  24
HETATM   24  N   UNL     1      -9.999  12.790  65.069  1.00  0.00    -0.475 NA 
HETATM   25  H   UNL     1      -9.471  12.600  64.217  1.00  0.00     0.000 HD 
BRANCH  24  26
HETATM   26  C   UNL     1     -10.345  14.156  65.224  1.00  0.00    -0.388 A  
HETATM   27  C   UNL     1     -11.423  14.781  64.590  1.00  0.00    -0.381 A  
HETATM   28  C   UNL     1      -9.460  14.986  65.937  1.00  0.00    -0.313 A  
HETATM   29  C   UNL     1     -11.613  16.173  64.649  1.00  0.00    -0.133 A  
HETATM   30  C   UNL     1     -10.691  16.985  65.306  1.00  0.00    -0.108 A  
HETATM   31  C   UNL     1      -9.598  16.386  65.930  1.00  0.00    -0.274 A  
BRANCH  31  32
HETATM   32  S   UNL     1      -8.398  17.400  66.758  1.00  0.00    -0.264 S  
HETATM   33  O   UNL     1      -7.675  18.124  65.733  1.00  0.00    -0.523 OA 
HETATM   34  O   UNL     1      -9.065  18.105  67.830  1.00  0.00    -0.257 OA 
BRANCH  32  35
HETATM   35  N   UNL     1      -7.284  16.323  67.409  1.00  0.00    -0.152 N  
HETATM   36  C   UNL     1      -5.945  14.995  68.960  1.00  0.00    -0.096 C  
HETATM   37  C   UNL     1      -6.474  17.345  69.535  1.00  0.00    -0.208 C  
HETATM   38  C   UNL     1      -8.283  15.582  69.562  1.00  0.00    -0.209 C  
HETATM   39  C   UNL     1      -7.029  16.091  68.853  1.00  0.00    -0.148 C  
HETATM   40  H   UNL     1      -6.730  15.778  66.749  1.00  0.00     0.000 HD 
ENDBRANCH  32  35
ENDBRANCH  31  32
ENDBRANCH  24  26
ENDBRANCH   6  24
TORSDOF 10
ENDMDL
MODEL       59
REMARK 921   NORMALIZED FREE ENERGY PREDICTED BY IDOCK:   -6.58 KCAL/MOL
REMARK 922        TOTAL FREE ENERGY PREDICTED BY IDOCK:  -11.77 KCAL/MOL
REMARK 923 INTER-LIGAND FREE ENERGY PREDICTED BY IDOCK:  -10.52 KCAL/MOL
REMARK 924 INTRA-LIGAND FREE ENERGY PREDICTED BY IDOCK:   -1.25 KCAL/MOL
REMARK 927      BINDING AFFINITY PREDICTED BY RF-SCORE:    0.00 PKD
ROOT
HETATM    1  C   UNL     1      -9.693   9.535  66.428  1.00  0.00    -0.295 C  
HETATM    2  C   UNL     1      -9.108  10.820  66.920  1.00  0.00    -0.160 A  
HETATM    3  C   UNL     1      -7.775  11.088  66.658  1.00  0.00    -0.153 A  
HETATM    4  N   UNL     1      -7.139  12.202  67.043  1.00  0.00    -0.108 NA 
HETATM    5  C   UNL     1      -7.855  13.075  67.752  1.00  0.00    -0.157 A  
HETATM    6  C   UNL     1      -9.809  11.811  67.604  1.00  0.00    -0.185 A  
HETATM    7  N   UNL     1      -9.165  12.913  68.028  1.00  0.00    -0.206 NA 
ENDROOT
BRANCH   5   8
HETATM    8  N   UNL     1      -7.144  14.190  68.200  1.00  0.00    -0.111 NA 
HETATM    9  H   UNL     1      -6.672  14.072  69.096  1.00  0.00     0.000 HD 
BRANCH   8  10
HETATM   10  C   UNL     1      -6.982  15.446  67.600  1.00  0.00    -0.184 A  
HETATM   11  C   UNL     1      -7.904  15.937  66.684  1.00  0.00    -0.236 A  
HETATM   12  C   UNL     1      -5.576  17.390  67.134  1.00  0.00    -0.172 A  
HETATM   13  C   UNL     1      -6.484  17.836  66.177  1.00  0.00    -0.260 A  
HETATM   14  C   UNL     1      -7.668  17.114  65.983  1.00  0.00    -0.193 A  
HETATM   15  C   UNL     1      -5.823  16.200  67.840  1.00  0.00    -0.145 A  
BRANCH  13  16
HETATM   16  O   UNL     1      -6.148  18.959  65.453  1.00  0.00    -0.210 OA 
BRANCH  16  17
HETATM   17  C   UNL     1      -7.126  19.994  65.582  1.00  0.00    -0.315 C  
BRANCH  17  18
HETATM   18  C   UNL     1      -7.319  20.510  67.009  1.00  0.00    -0.322 C  
BRANCH  18  19
HETATM   19  N   UNL     1      -8.711  20.273  67.420  1.00  0.00    -0.344 NA 
HETATM   20  C   UNL     1      -8.876  19.166  68.371  1.00  0.00    -0.347 C  
HETATM   21  C   UNL     1      -9.605  19.994  66.304  1.00  0.00    -0.407 C  
HETATM   22  C   UNL     1     -10.309  18.688  68.185  1.00  0.00    -0.402 C  
HETATM   23  C   UNL     1     -10.851  19.514  67.030  1.00  0.00    -0.542 C  
ENDBRANCH  18  19
ENDBRANCH  17  18
ENDBRANCH  16  17
ENDBRANCH  13  16
ENDBRANCH   8  10
ENDBRANCH   5   8
BRANCH   6  24
HETATM   24  N   UNL     1     -11.172  11.593  67.937  1.00  0.00    -0.247 NA 
HETATM   25  H   UNL     1     -11.764  11.414  67.126  1.00  0.00     0.000 HD 
BRANCH  24  26
HETATM   26  C   UNL     1     -11.879  11.573  69.165  1.00  0.00    -0.340 A  
HETATM   27  C   UNL     1     -12.148  12.700  69.947  1.00  0.00    -0.322 A  
HETATM   28  C   UNL     1     -12.199  10.322  69.724  1.00  0.00    -0.075 A  
HETATM   29  C   UNL     1     -12.703  12.594  71.235  1.00  0.00    -0.354 A  
HETATM   30  C   UNL     1     -12.954  11.343  71.796  1.00  0.00    -0.519 A  
HETATM   31  C   UNL     1     -12.676  10.205  71.042  1.00  0.00    -0.386 A  
BRANCH  31  32
HETATM   32  S   UNL     1     -12.968   8.599  71.741  1.00  0.00    -0.376 S  
HETATM   33  O   UNL     1     -12.086   8.466  72.882  1.00  0.00    -0.277 OA 
HETATM   34  O   UNL     1     -14.396   8.422  71.886  1.00  0.00    -0.432 OA 
BRANCH  32  35
HETATM   35  N   UNL     1     -12.386   7.508  70.602  1.00  0.00    -0.539 N  
HETATM   36  C   UNL     1     -11.034   5.843  69.436  1.00  0.00    -0.421 C  
HETATM   37  C   UNL     1      -9.898   7.640  70.706  1.00  0.00    -0.177 C  
HETATM   38  C   UNL     1     -11.140   5.805  71.918  1.00  0.00    -0.308 C  
HETATM   39  C   UNL     1     -11.128   6.727  70.699  1.00  0.00    -0.291 C  
HETATM   40  H   UNL     1     -12.951   7.370  69.765  1.00  0.00     0.000 HD 
ENDBRANCH  32  35
ENDBRANCH  31  32
ENDBRANCH  24  26
ENDBRANCH   6  24
TORSDOF 10
ENDMDL
MODEL       60
REMARK 921   NORMALIZED FREE ENERGY PREDICTED BY IDOCK:   -6.55 KCAL/MOL
REMARK 922        TOTAL FREE ENERGY PREDICTED BY IDOCK:  -11.73 KCAL/MOL
REMARK 923 INTER-LIGAND FREE ENERGY PREDICTED BY IDOCK:   -9.93 KCAL/MOL
REMARK 924 INTRA-LIGAND FREE ENERGY PREDICTED BY IDOCK:   -1.79 KCAL/MOL
REMARK 927      BINDING AFFINITY PREDICTED BY RF-SCORE:    0.00 PKD
ROOT
HETATM    1  C   UNL     1      -5.175  17.442  69.854  1.00  0.00    -0.200 C  
HETATM    2  C   UNL     1      -6.525  17.080  69.323  1.00  0.00    -0.231 A  
HETATM    3  C   UNL     1      -7.394  18.095  68.963  1.00  0.00    -0.189 A  
HETATM    4  N   UNL     1      -8.625  17.900  68.474  1.00  0.00    -0.298 NA 
HETATM    5  C   UNL     1      -9.023  16.631  68.370  1.00  0.00    -0.223 A  
HETATM    6  C   UNL     1      -6.986  15.780  69.120  1.00  0.00    -0.174 A  
HETATM    7  N   UNL     1      -8.236  15.578  68.667  1.00  0.00    -0.152 NA 
ENDROOT
BRANCH   5   8
HETATM    8  N   UNL     1     -10.336  16.463  67.926  1.00  0.00    -0.276 NA 
HETATM    9  H   UNL     1     -11.043  16.966  68.462  1.00  0.00     0.000 HD 
BRANCH   8  10
HETATM   10  C   UNL     1     -10.826  15.706  66.853  1.00  0.00    -0.282 A  
HETATM   11  C   UNL     1     -10.637  16.106  65.536  1.00  0.00    -0.394 A  
HETATM   12  C   UNL     1     -12.229  13.881  66.033  1.00  0.00    -0.495 A  
HETATM   13  C   UNL     1     -12.077  14.333  64.724  1.00  0.00    -0.446 A  
HETATM   14  C   UNL     1     -11.247  15.434  64.483  1.00  0.00    -0.310 A  
HETATM   15  C   UNL     1     -11.609  14.566  67.092  1.00  0.00    -0.406 A  
BRANCH  13  16
HETATM   16  O   UNL     1     -12.781  13.678  63.737  1.00  0.00    -0.681 OA 
BRANCH  16  17
HETATM   17  C   UNL     1     -12.406  12.302  63.634  1.00  0.00    -0.562 C  
BRANCH  17  18
HETATM   18  C   UNL     1     -10.901  12.062  63.508  1.00  0.00    -0.444 C  
BRANCH  18  19
HETATM   19  N   UNL     1     -10.531  10.899  64.329  1.00  0.00    -0.370 NA 
HETATM   20  C   UNL     1     -10.212  11.228  65.725  1.00  0.00    -0.251 C  
HETATM   21  C   UNL     1      -9.387  10.162  63.808  1.00  0.00    -0.288 C  
HETATM   22  C   UNL     1      -9.298  10.108  66.202  1.00  0.00    -0.217 C  
HETATM   23  C   UNL     1      -9.065   9.242  64.974  1.00  0.00    -0.245 C  
ENDBRANCH  18  19
ENDBRANCH  17  18
ENDBRANCH  16  17
ENDBRANCH  13  16
ENDBRANCH   8  10
ENDBRANCH   5   8
BRANCH   6  24
HETATM   24  N   UNL     1      -6.163  14.686  69.497  1.00  0.00    -0.110 NA 
HETATM   25  H   UNL     1      -5.580  14.879  70.311  1.00  0.00     0.000 HD 
BRANCH  24  26
HETATM   26  C   UNL     1      -5.986  13.381  68.973  1.00  0.00    -0.083 A  
HETATM   27  C   UNL     1      -5.370  13.090  67.752  1.00  0.00    -0.111 A  
HETATM   28  C   UNL     1      -6.606  12.310  69.642  1.00  0.00    -0.020 A  
HETATM   29  C   UNL     1      -5.376  11.793  67.209  1.00  0.00    -0.100 A  
HETATM   30  C   UNL     1      -6.051  10.759  67.855  1.00  0.00    -0.046 A  
HETATM   31  C   UNL     1      -6.688  11.030  69.064  1.00  0.00    -0.074 A  
BRANCH  31  32
HETATM   32  S   UNL     1      -7.571   9.735  69.898  1.00  0.00    -0.167 S  
HETATM   33  O   UNL     1      -7.597   8.595  69.005  1.00  0.00    -0.087 OA 
HETATM   34  O   UNL     1      -7.037   9.613  71.237  1.00  0.00    -0.329 OA 
BRANCH  32  35
HETATM   35  N   UNL     1      -9.163  10.267  69.982  1.00  0.00    -0.384 N  
HETATM   36  C   UNL     1     -11.578  10.378  70.329  1.00  0.00    -0.410 C  
HETATM   37  C   UNL     1     -10.592   8.318  69.370  1.00  0.00    -0.203 C  
HETATM   38  C   UNL     1     -10.201   8.916  71.792  1.00  0.00    -0.414 C  
HETATM   39  C   UNL     1     -10.341   9.452  70.368  1.00  0.00    -0.262 C  
HETATM   40  H   UNL     1      -9.336  11.244  69.745  1.00  0.00     0.000 HD 
ENDBRANCH  32  35
ENDBRANCH  31  32
ENDBRANCH  24  26
ENDBRANCH   6  24
TORSDOF 10
ENDMDL
MODEL       61
REMARK 921   NORMALIZED FREE ENERGY PREDICTED BY IDOCK:   -6.53 KCAL/MOL
REMARK 922        TOTAL FREE ENERGY PREDICTED BY IDOCK:  -11.69 KCAL/MOL
REMARK 923 INTER-LIGAND FREE ENERGY PREDICTED BY IDOCK:  -10.84 KCAL/MOL
REMARK 924 INTRA-LIGAND FREE ENERGY PREDICTED BY IDOCK:   -0.85 KCAL/MOL
REMARK 927      BINDING AFFINITY PREDICTED BY RF-SCORE:    0.00 PKD
ROOT
HETATM    1  C   UNL     1     -11.955  13.393  63.744  1.00  0.00    -0.517 C  
HETATM    2  C   UNL     1     -11.361  12.334  64.616  1.00  0.00    -0.375 A  
HETATM    3  C   UNL     1     -10.721  11.261  64.021  1.00  0.00    -0.377 A  
HETATM    4  N   UNL     1     -10.150  10.253  64.693  1.00  0.00    -0.321 NA 
HETATM    5  C   UNL     1     -10.250  10.299  66.022  1.00  0.00    -0.228 A  
HETATM    6  C   UNL     1     -11.364  12.347  66.010  1.00  0.00    -0.353 A  
HETATM    7  N   UNL     1     -10.827  11.318  66.690  1.00  0.00    -0.276 NA 
ENDROOT
BRANCH   5   8
HETATM    8  N   UNL     1      -9.708   9.198  66.689  1.00  0.00    -0.202 NA 
HETATM    9  H   UNL     1      -8.777   8.918  66.381  1.00  0.00     0.000 HD 
BRANCH   8  10
HETATM   10  C   UNL     1     -10.256   8.422  67.719  1.00  0.00    -0.224 A  
HETATM   11  C   UNL     1     -10.314   8.887  69.027  1.00  0.00    -0.226 A  
HETATM   12  C   UNL     1     -11.084   6.265  68.515  1.00  0.00    -0.397 A  
HETATM   13  C   UNL     1     -11.080   6.730  69.827  1.00  0.00    -0.316 A  
HETATM   14  C   UNL     1     -10.722   8.062  70.069  1.00  0.00    -0.244 A  
HETATM   15  C   UNL     1     -10.672   7.106  67.467  1.00  0.00    -0.344 A  
BRANCH  13  16
HETATM   16  O   UNL     1     -11.407   5.836  70.823  1.00  0.00    -0.216 OA 
BRANCH  16  17
HETATM   17  C   UNL     1     -10.608   6.021  71.994  1.00  0.00    -0.223 C  
BRANCH  17  18
HETATM   18  C   UNL     1     -11.137   5.314  73.242  1.00  0.00    -0.316 C  
BRANCH  18  19
HETATM   19  N   UNL     1     -10.506   3.989  73.346  1.00  0.00    -0.160 NA 
HETATM   20  C   UNL     1     -11.458   2.871  73.364  1.00  0.00    -0.060 C  
HETATM   21  C   UNL     1      -9.671   3.837  74.531  1.00  0.00    -0.127 C  
HETATM   22  C   UNL     1     -10.734   1.738  74.077  1.00  0.00    -0.205 C  
HETATM   23  C   UNL     1      -9.411   2.340  74.525  1.00  0.00    -0.110 C  
ENDBRANCH  18  19
ENDBRANCH  17  18
ENDBRANCH  16  17
ENDBRANCH  13  16
ENDBRANCH   8  10
ENDBRANCH   5   8
BRANCH   6  24
HETATM   24  N   UNL     1     -12.030  13.399  66.692  1.00  0.00    -0.397 NA 
HETATM   25  H   UNL     1     -13.034  13.429  66.510  1.00  0.00     0.000 HD 
BRANCH  24  26
HETATM   26  C   UNL     1     -11.588  14.416  67.575  1.00  0.00    -0.373 A  
HETATM   27  C   UNL     1     -11.851  14.449  68.947  1.00  0.00    -0.355 A  
HETATM   28  C   UNL     1     -10.975  15.554  67.019  1.00  0.00    -0.283 A  
HETATM   29  C   UNL     1     -11.531  15.567  69.737  1.00  0.00    -0.339 A  
HETATM   30  C   UNL     1     -10.984  16.710  69.157  1.00  0.00    -0.276 A  
HETATM   31  C   UNL     1     -10.730  16.707  67.787  1.00  0.00    -0.327 A  
BRANCH  31  32
HETATM   32  S   UNL     1     -10.050  18.156  67.019  1.00  0.00    -0.370 S  
HETATM   33  O   UNL     1     -10.512  18.166  65.647  1.00  0.00    -0.626 OA 
HETATM   34  O   UNL     1     -10.295  19.286  67.889  1.00  0.00    -0.380 OA 
BRANCH  32  35
HETATM   35  N   UNL     1      -8.396  17.874  66.927  1.00  0.00    -0.235 N  
HETATM   36  C   UNL     1      -5.973  18.168  66.863  1.00  0.00    -0.172 C  
HETATM   37  C   UNL     1      -7.416  19.815  65.706  1.00  0.00    -0.325 C  
HETATM   38  C   UNL     1      -7.353  19.718  68.229  1.00  0.00    -0.349 C  
HETATM   39  C   UNL     1      -7.328  18.905  66.936  1.00  0.00    -0.214 C  
HETATM   40  H   UNL     1      -8.097  16.902  66.859  1.00  0.00     0.000 HD 
ENDBRANCH  32  35
ENDBRANCH  31  32
ENDBRANCH  24  26
ENDBRANCH   6  24
TORSDOF 10
ENDMDL
MODEL       62
REMARK 921   NORMALIZED FREE ENERGY PREDICTED BY IDOCK:   -6.52 KCAL/MOL
REMARK 922        TOTAL FREE ENERGY PREDICTED BY IDOCK:  -11.68 KCAL/MOL
REMARK 923 INTER-LIGAND FREE ENERGY PREDICTED BY IDOCK:  -10.95 KCAL/MOL
REMARK 924 INTRA-LIGAND FREE ENERGY PREDICTED BY IDOCK:   -0.73 KCAL/MOL
REMARK 927      BINDING AFFINITY PREDICTED BY RF-SCORE:    0.00 PKD
ROOT
HETATM    1  C   UNL     1     -11.805  14.413  63.862  1.00  0.00    -0.086 C  
HETATM    2  C   UNL     1     -11.754  14.360  65.356  1.00  0.00    -0.362 A  
HETATM    3  C   UNL     1     -12.342  13.288  66.005  1.00  0.00    -0.386 A  
HETATM    4  N   UNL     1     -12.361  13.127  67.334  1.00  0.00    -0.194 NA 
HETATM    5  C   UNL     1     -11.796  14.097  68.053  1.00  0.00    -0.365 A  
HETATM    6  C   UNL     1     -11.123  15.298  66.171  1.00  0.00    -0.280 A  
HETATM    7  N   UNL     1     -11.174  15.162  67.508  1.00  0.00    -0.327 NA 
ENDROOT
BRANCH   5   8
HETATM    8  N   UNL     1     -11.897  13.936  69.437  1.00  0.00    -0.313 NA 
HETATM    9  H   UNL     1     -11.783  14.789  69.983  1.00  0.00     0.000 HD 
BRANCH   8  10
HETATM   10  C   UNL     1     -12.131  12.774  70.185  1.00  0.00    -0.298 A  
HETATM   11  C   UNL     1     -11.569  11.555  69.829  1.00  0.00    -0.401 A  
HETATM   12  C   UNL     1     -13.387  11.614  71.932  1.00  0.00    -0.403 A  
HETATM   13  C   UNL     1     -12.858  10.393  71.522  1.00  0.00    -0.464 A  
HETATM   14  C   UNL     1     -11.918  10.380  70.484  1.00  0.00    -0.427 A  
HETATM   15  C   UNL     1     -13.027  12.798  71.265  1.00  0.00    -0.310 A  
BRANCH  13  16
HETATM   16  O   UNL     1     -13.314   9.256  72.152  1.00  0.00    -0.402 OA 
BRANCH  16  17
HETATM   17  C   UNL     1     -12.282   8.281  72.313  1.00  0.00    -0.370 C  
BRANCH  17  18
HETATM   18  C   UNL     1     -12.606   6.909  71.720  1.00  0.00    -0.344 C  
BRANCH  18  19
HETATM   19  N   UNL     1     -11.350   6.236  71.354  1.00  0.00    -0.292 NA 
HETATM   20  C   UNL     1     -10.685   5.556  72.474  1.00  0.00    -0.240 C  
HETATM   21  C   UNL     1     -10.361   7.133  70.771  1.00  0.00    -0.206 C  
HETATM   22  C   UNL     1      -9.215   5.491  72.088  1.00  0.00    -0.155 C  
HETATM   23  C   UNL     1      -9.120   6.256  70.777  1.00  0.00    -0.150 C  
ENDBRANCH  18  19
ENDBRANCH  17  18
ENDBRANCH  16  17
ENDBRANCH  13  16
ENDBRANCH   8  10
ENDBRANCH   5   8
BRANCH   6  24
HETATM   24  N   UNL     1     -10.526  16.442  65.580  1.00  0.00    -0.515 NA 
HETATM   25  H   UNL     1     -10.336  16.331  64.583  1.00  0.00     0.000 HD 
BRANCH  24  26
HETATM   26  C   UNL     1     -10.139  17.706  66.089  1.00  0.00    -0.301 A  
HETATM   27  C   UNL     1     -10.779  18.914  65.792  1.00  0.00    -0.310 A  
HETATM   28  C   UNL     1      -8.938  17.787  66.817  1.00  0.00    -0.272 A  
HETATM   29  C   UNL     1     -10.247  20.153  66.191  1.00  0.00    -0.518 A  
HETATM   30  C   UNL     1      -9.023  20.216  66.855  1.00  0.00    -0.448 A  
HETATM   31  C   UNL     1      -8.358  19.027  67.146  1.00  0.00    -0.278 A  
BRANCH  31  32
HETATM   32  S   UNL     1      -6.789  19.080  67.975  1.00  0.00    -0.237 S  
HETATM   33  O   UNL     1      -5.922  19.930  67.186  1.00  0.00    -0.179 OA 
HETATM   34  O   UNL     1      -7.026  19.361  69.373  1.00  0.00    -0.335 OA 
BRANCH  32  35
HETATM   35  N   UNL     1      -6.153  17.532  67.819  1.00  0.00    -0.150 N  
HETATM   36  C   UNL     1      -5.448  15.237  68.263  1.00  0.00    -0.118 C  
HETATM   37  C   UNL     1      -5.173  16.945  70.035  1.00  0.00    -0.186 C  
HETATM   38  C   UNL     1      -7.475  16.129  69.389  1.00  0.00    -0.181 C  
HETATM   39  C   UNL     1      -6.082  16.502  68.884  1.00  0.00    -0.147 C  
HETATM   40  H   UNL     1      -5.781  17.277  66.904  1.00  0.00     0.000 HD 
ENDBRANCH  32  35
ENDBRANCH  31  32
ENDBRANCH  24  26
ENDBRANCH   6  24
TORSDOF 10
ENDMDL
MODEL       63
REMARK 921   NORMALIZED FREE ENERGY PREDICTED BY IDOCK:   -6.50 KCAL/MOL
REMARK 922        TOTAL FREE ENERGY PREDICTED BY IDOCK:  -11.65 KCAL/MOL
REMARK 923 INTER-LIGAND FREE ENERGY PREDICTED BY IDOCK:  -10.42 KCAL/MOL
REMARK 924 INTRA-LIGAND FREE ENERGY PREDICTED BY IDOCK:   -1.23 KCAL/MOL
REMARK 927      BINDING AFFINITY PREDICTED BY RF-SCORE:    0.00 PKD
ROOT
HETATM    1  C   UNL     1     -14.231   8.536  72.424  1.00  0.00    -0.406 C  
HETATM    2  C   UNL     1     -12.923   8.874  71.783  1.00  0.00    -0.418 A  
HETATM    3  C   UNL     1     -12.064   7.845  71.439  1.00  0.00    -0.307 A  
HETATM    4  N   UNL     1     -10.869   8.019  70.859  1.00  0.00    -0.226 NA 
HETATM    5  C   UNL     1     -10.498   9.281  70.642  1.00  0.00    -0.262 A  
HETATM    6  C   UNL     1     -12.496  10.161  71.461  1.00  0.00    -0.427 A  
HETATM    7  N   UNL     1     -11.280  10.345  70.916  1.00  0.00    -0.244 NA 
ENDROOT
BRANCH   5   8
HETATM    8  N   UNL     1      -9.218   9.431  70.104  1.00  0.00    -0.217 NA 
HETATM    9  H   UNL     1      -8.517   9.799  70.747  1.00  0.00     0.000 HD 
BRANCH   8  10
HETATM   10  C   UNL     1      -8.755   9.150  68.812  1.00  0.00    -0.132 A  
HETATM   11  C   UNL     1      -7.405   8.945  68.552  1.00  0.00    -0.081 A  
HETATM   12  C   UNL     1      -9.172   9.032  66.406  1.00  0.00    -0.239 A  
HETATM   13  C   UNL     1      -7.809   8.887  66.162  1.00  0.00    -0.102 A  
HETATM   14  C   UNL     1      -6.933   8.811  67.252  1.00  0.00    -0.075 A  
HETATM   15  C   UNL     1      -9.642   9.165  67.724  1.00  0.00    -0.173 A  
BRANCH  13  16
HETATM   16  O   UNL     1      -7.396   8.852  64.848  1.00  0.00    -0.090 OA 
BRANCH  16  17
HETATM   17  C   UNL     1      -8.266   8.064  64.033  1.00  0.00    -0.046 C  
BRANCH  17  18
HETATM   18  C   UNL     1      -7.747   6.660  63.721  1.00  0.00    -0.111 C  
BRANCH  18  19
HETATM   19  N   UNL     1      -8.507   5.680  64.513  1.00  0.00    -0.112 NA 
HETATM   20  C   UNL     1      -7.806   5.204  65.712  1.00  0.00    -0.095 C  
HETATM   21  C   UNL     1      -8.884   4.493  63.757  1.00  0.00    -0.140 C  
HETATM   22  C   UNL     1      -8.406   3.838  66.012  1.00  0.00    -0.109 C  
HETATM   23  C   UNL     1      -9.369   3.573  64.865  1.00  0.00    -0.153 C  
ENDBRANCH  18  19
ENDBRANCH  17  18
ENDBRANCH  16  17
ENDBRANCH  13  16
ENDBRANCH   8  10
ENDBRANCH   5   8
BRANCH   6  24
HETATM   24  N   UNL     1     -13.309  11.271  71.813  1.00  0.00    -0.349 NA 
HETATM   25  H   UNL     1     -14.179  11.006  72.275  1.00  0.00     0.000 HD 
BRANCH  24  26
HETATM   26  C   UNL     1     -13.159  12.671  71.655  1.00  0.00    -0.323 A  
HETATM   27  C   UNL     1     -13.890  13.634  72.357  1.00  0.00    -0.691 A  
HETATM   28  C   UNL     1     -12.336  13.135  70.612  1.00  0.00    -0.405 A  
HETATM   29  C   UNL     1     -13.818  15.001  72.035  1.00  0.00    -0.578 A  
HETATM   30  C   UNL     1     -13.047  15.434  70.957  1.00  0.00    -0.565 A  
HETATM   31  C   UNL     1     -12.325  14.490  70.231  1.00  0.00    -0.349 A  
BRANCH  31  32
HETATM   32  S   UNL     1     -11.350  15.012  68.842  1.00  0.00    -0.316 S  
HETATM   33  O   UNL     1     -11.418  16.458  68.796  1.00  0.00    -0.328 OA 
HETATM   34  O   UNL     1     -10.074  14.334  68.904  1.00  0.00    -0.226 OA 
BRANCH  32  35
HETATM   35  N   UNL     1     -12.193  14.486  67.487  1.00  0.00    -0.608 N  
HETATM   36  C   UNL     1     -12.776  13.487  65.336  1.00  0.00    -0.495 C  
HETATM   37  C   UNL     1     -10.632  14.707  65.555  1.00  0.00    -0.369 C  
HETATM   38  C   UNL     1     -10.958  12.478  66.697  1.00  0.00    -0.303 C  
HETATM   39  C   UNL     1     -11.614  13.801  66.304  1.00  0.00    -0.350 C  
HETATM   40  H   UNL     1     -13.199  14.654  67.475  1.00  0.00     0.000 HD 
ENDBRANCH  32  35
ENDBRANCH  31  32
ENDBRANCH  24  26
ENDBRANCH   6  24
TORSDOF 10
ENDMDL
MODEL       64
REMARK 921   NORMALIZED FREE ENERGY PREDICTED BY IDOCK:   -6.49 KCAL/MOL
REMARK 922        TOTAL FREE ENERGY PREDICTED BY IDOCK:  -11.64 KCAL/MOL
REMARK 923 INTER-LIGAND FREE ENERGY PREDICTED BY IDOCK:  -10.43 KCAL/MOL
REMARK 924 INTRA-LIGAND FREE ENERGY PREDICTED BY IDOCK:   -1.21 KCAL/MOL
REMARK 927      BINDING AFFINITY PREDICTED BY RF-SCORE:    0.00 PKD
ROOT
HETATM    1  C   UNL     1     -10.505  15.464  66.365  1.00  0.00    -0.307 C  
HETATM    2  C   UNL     1     -10.903  14.220  67.094  1.00  0.00    -0.296 A  
HETATM    3  C   UNL     1     -11.706  13.297  66.447  1.00  0.00    -0.373 A  
HETATM    4  N   UNL     1     -12.126  12.148  66.991  1.00  0.00    -0.546 NA 
HETATM    5  C   UNL     1     -11.756  11.923  68.252  1.00  0.00    -0.321 A  
HETATM    6  C   UNL     1     -10.501  13.883  68.385  1.00  0.00    -0.247 A  
HETATM    7  N   UNL     1     -10.953  12.750  68.951  1.00  0.00    -0.247 NA 
ENDROOT
BRANCH   5   8
HETATM    8  N   UNL     1     -12.271  10.753  68.814  1.00  0.00    -0.814 NA 
HETATM    9  H   UNL     1     -13.023  10.311  68.285  1.00  0.00     0.000 HD 
BRANCH   8  10
HETATM   10  C   UNL     1     -11.906  10.095  69.997  1.00  0.00    -0.179 A  
HETATM   11  C   UNL     1     -10.634   9.563  70.169  1.00  0.00    -0.298 A  
HETATM   12  C   UNL     1     -12.549   9.089  72.129  1.00  0.00    -0.461 A  
HETATM   13  C   UNL     1     -11.287   8.515  72.256  1.00  0.00    -0.371 A  
HETATM   14  C   UNL     1     -10.321   8.788  71.280  1.00  0.00    -0.331 A  
HETATM   15  C   UNL     1     -12.857   9.873  71.004  1.00  0.00    -0.417 A  
BRANCH  13  16
HETATM   16  O   UNL     1     -11.069   7.683  73.332  1.00  0.00    -0.337 OA 
BRANCH  16  17
HETATM   17  C   UNL     1     -10.119   6.657  73.034  1.00  0.00    -0.186 C  
BRANCH  17  18
HETATM   18  C   UNL     1     -10.543   5.254  73.469  1.00  0.00    -0.270 C  
BRANCH  18  19
HETATM   19  N   UNL     1     -10.131   4.288  72.438  1.00  0.00    -0.171 NA 
HETATM   20  C   UNL     1      -8.919   3.530  72.776  1.00  0.00    -0.096 C  
HETATM   21  C   UNL     1      -9.887   4.897  71.138  1.00  0.00    -0.192 C  
HETATM   22  C   UNL     1      -8.328   3.104  71.440  1.00  0.00    -0.083 C  
HETATM   23  C   UNL     1      -9.216   3.756  70.392  1.00  0.00    -0.213 C  
ENDBRANCH  18  19
ENDBRANCH  17  18
ENDBRANCH  16  17
ENDBRANCH  13  16
ENDBRANCH   8  10
ENDBRANCH   5   8
BRANCH   6  24
HETATM   24  N   UNL     1      -9.703  14.796  69.124  1.00  0.00    -0.341 NA 
HETATM   25  H   UNL     1     -10.237  15.351  69.794  1.00  0.00     0.000 HD 
BRANCH  24  26
HETATM   26  C   UNL     1      -8.318  15.095  69.122  1.00  0.00    -0.221 A  
HETATM   27  C   UNL     1      -7.304  14.172  69.391  1.00  0.00     0.033 A  
HETATM   28  C   UNL     1      -7.932  16.443  68.998  1.00  0.00    -0.227 A  
HETATM   29  C   UNL     1      -5.963  14.565  69.542  1.00  0.00    -0.107 A  
HETATM   30  C   UNL     1      -5.609  15.912  69.478  1.00  0.00    -0.124 A  
HETATM   31  C   UNL     1      -6.606  16.853  69.230  1.00  0.00    -0.232 A  
BRANCH  31  32
HETATM   32  S   UNL     1      -6.187  18.576  69.163  1.00  0.00    -0.251 S  
HETATM   33  O   UNL     1      -5.962  19.011  70.526  1.00  0.00    -0.185 OA 
HETATM   34  O   UNL     1      -5.168  18.755  68.153  1.00  0.00    -0.176 OA 
BRANCH  32  35
HETATM   35  N   UNL     1      -7.594  19.356  68.677  1.00  0.00    -0.352 N  
HETATM   36  C   UNL     1      -9.296  20.501  67.352  1.00  0.00    -0.511 C  
HETATM   37  C   UNL     1      -6.910  21.059  66.988  1.00  0.00    -0.397 C  
HETATM   38  C   UNL     1      -7.827  18.821  66.261  1.00  0.00    -0.295 C  
HETATM   39  C   UNL     1      -7.868  19.912  67.328  1.00  0.00    -0.284 C  
HETATM   40  H   UNL     1      -8.330  19.457  69.376  1.00  0.00     0.000 HD 
ENDBRANCH  32  35
ENDBRANCH  31  32
ENDBRANCH  24  26
ENDBRANCH   6  24
TORSDOF 10
ENDMDL
MODEL       65
REMARK 921   NORMALIZED FREE ENERGY PREDICTED BY IDOCK:   -6.49 KCAL/MOL
REMARK 922        TOTAL FREE ENERGY PREDICTED BY IDOCK:  -11.63 KCAL/MOL
REMARK 923 INTER-LIGAND FREE ENERGY PREDICTED BY IDOCK:  -10.09 KCAL/MOL
REMARK 924 INTRA-LIGAND FREE ENERGY PREDICTED BY IDOCK:   -1.54 KCAL/MOL
REMARK 927      BINDING AFFINITY PREDICTED BY RF-SCORE:    0.00 PKD
ROOT
HETATM    1  C   UNL     1     -12.768  13.326  65.428  1.00  0.00    -0.460 C  
HETATM    2  C   UNL     1     -11.397  13.552  65.982  1.00  0.00    -0.327 A  
HETATM    3  C   UNL     1     -10.642  14.599  65.484  1.00  0.00    -0.355 A  
HETATM    4  N   UNL     1      -9.406  14.904  65.899  1.00  0.00    -0.252 NA 
HETATM    5  C   UNL     1      -8.884  14.107  66.832  1.00  0.00    -0.203 A  
HETATM    6  C   UNL     1     -10.812  12.806  67.004  1.00  0.00    -0.257 A  
HETATM    7  N   UNL     1      -9.556  13.083  67.397  1.00  0.00    -0.205 NA 
ENDROOT
BRANCH   5   8
HETATM    8  N   UNL     1      -7.568  14.407  67.191  1.00  0.00    -0.330 NA 
HETATM    9  H   UNL     1      -6.900  13.646  67.068  1.00  0.00     0.000 HD 
BRANCH   8  10
HETATM   10  C   UNL     1      -7.031  15.599  67.695  1.00  0.00    -0.172 A  
HETATM   11  C   UNL     1      -7.296  16.025  68.990  1.00  0.00    -0.191 A  
HETATM   12  C   UNL     1      -5.863  17.710  67.305  1.00  0.00    -0.161 A  
HETATM   13  C   UNL     1      -6.190  18.145  68.587  1.00  0.00    -0.204 A  
HETATM   14  C   UNL     1      -6.882  17.275  69.438  1.00  0.00    -0.159 A  
HETATM   15  C   UNL     1      -6.283  16.445  66.861  1.00  0.00    -0.079 A  
BRANCH  13  16
HETATM   16  O   UNL     1      -5.830  19.428  68.938  1.00  0.00    -0.214 OA 
BRANCH  16  17
HETATM   17  C   UNL     1      -6.952  20.314  68.954  1.00  0.00    -0.124 C  
BRANCH  17  18
HETATM   18  C   UNL     1      -7.341  20.870  67.583  1.00  0.00    -0.227 C  
BRANCH  18  19
HETATM   19  N   UNL     1      -8.741  20.515  67.303  1.00  0.00    -0.333 NA 
HETATM   20  C   UNL     1      -9.413  19.809  68.401  1.00  0.00    -0.332 C  
HETATM   21  C   UNL     1      -8.901  19.681  66.119  1.00  0.00    -0.332 C  
HETATM   22  C   UNL     1     -10.531  19.014  67.742  1.00  0.00    -0.499 C  
HETATM   23  C   UNL     1     -10.351  19.246  66.250  1.00  0.00    -0.566 C  
ENDBRANCH  18  19
ENDBRANCH  17  18
ENDBRANCH  16  17
ENDBRANCH  13  16
ENDBRANCH   8  10
ENDBRANCH   5   8
BRANCH   6  24
HETATM   24  N   UNL     1     -11.514  11.696  67.542  1.00  0.00    -0.432 NA 
HETATM   25  H   UNL     1     -11.790  11.011  66.839  1.00  0.00     0.000 HD 
BRANCH  24  26
HETATM   26  C   UNL     1     -11.909  11.343  68.857  1.00  0.00    -0.347 A  
HETATM   27  C   UNL     1     -12.408  12.241  69.806  1.00  0.00    -0.081 A  
HETATM   28  C   UNL     1     -11.640  10.036  69.301  1.00  0.00    -0.043 A  
HETATM   29  C   UNL     1     -12.622  11.863  71.143  1.00  0.00    -0.390 A  
HETATM   30  C   UNL     1     -12.289  10.582  71.578  1.00  0.00    -0.443 A  
HETATM   31  C   UNL     1     -11.772   9.676  70.654  1.00  0.00    -0.280 A  
BRANCH  31  32
HETATM   32  S   UNL     1     -11.322   8.044  71.187  1.00  0.00    -0.269 S  
HETATM   33  O   UNL     1     -10.736   8.174  72.505  1.00  0.00    -0.302 OA 
HETATM   34  O   UNL     1     -12.450   7.167  70.963  1.00  0.00    -0.357 OA 
BRANCH  32  35
HETATM   35  N   UNL     1     -10.054   7.585  70.183  1.00  0.00    -0.193 N  
HETATM   36  C   UNL     1      -8.664   6.398  68.564  1.00  0.00    -0.121 C  
HETATM   37  C   UNL     1     -10.046   5.091  70.150  1.00  0.00    -0.338 C  
HETATM   38  C   UNL     1     -11.132   6.399  68.282  1.00  0.00    -0.359 C  
HETATM   39  C   UNL     1     -10.011   6.378  69.320  1.00  0.00    -0.153 C  
HETATM   40  H   UNL     1      -9.236   8.194  70.165  1.00  0.00     0.000 HD 
ENDBRANCH  32  35
ENDBRANCH  31  32
ENDBRANCH  24  26
ENDBRANCH   6  24
TORSDOF 10
ENDMDL
MODEL       66
REMARK 921   NORMALIZED FREE ENERGY PREDICTED BY IDOCK:   -6.49 KCAL/MOL
REMARK 922        TOTAL FREE ENERGY PREDICTED BY IDOCK:  -11.63 KCAL/MOL
REMARK 923 INTER-LIGAND FREE ENERGY PREDICTED BY IDOCK:   -9.84 KCAL/MOL
REMARK 924 INTRA-LIGAND FREE ENERGY PREDICTED BY IDOCK:   -1.78 KCAL/MOL
REMARK 927      BINDING AFFINITY PREDICTED BY RF-SCORE:    0.00 PKD
ROOT
HETATM    1  C   UNL     1      -7.215   5.656  67.955  1.00  0.00    -0.072 C  
HETATM    2  C   UNL     1      -8.029   6.670  67.217  1.00  0.00    -0.117 A  
HETATM    3  C   UNL     1      -7.383   7.562  66.379  1.00  0.00    -0.083 A  
HETATM    4  N   UNL     1      -8.000   8.512  65.664  1.00  0.00    -0.101 NA 
HETATM    5  C   UNL     1      -9.321   8.599  65.818  1.00  0.00    -0.158 A  
HETATM    6  C   UNL     1      -9.418   6.778  67.271  1.00  0.00    -0.135 A  
HETATM    7  N   UNL     1     -10.039   7.756  66.588  1.00  0.00    -0.249 NA 
ENDROOT
BRANCH   5   8
HETATM    8  N   UNL     1      -9.925   9.645  65.117  1.00  0.00    -0.402 NA 
HETATM    9  H   UNL     1     -10.018   9.498  64.112  1.00  0.00     0.000 HD 
BRANCH   8  10
HETATM   10  C   UNL     1     -10.422  10.867  65.591  1.00  0.00    -0.208 A  
HETATM   11  C   UNL     1     -11.425  11.553  64.917  1.00  0.00    -0.123 A  
HETATM   12  C   UNL     1     -10.230  12.767  67.115  1.00  0.00    -0.235 A  
HETATM   13  C   UNL     1     -11.195  13.464  66.392  1.00  0.00    -0.304 A  
HETATM   14  C   UNL     1     -11.813  12.830  65.307  1.00  0.00    -0.442 A  
HETATM   15  C   UNL     1      -9.844  11.476  66.715  1.00  0.00    -0.227 A  
BRANCH  13  16
HETATM   16  O   UNL     1     -11.468  14.759  66.775  1.00  0.00    -0.351 OA 
BRANCH  16  17
HETATM   17  C   UNL     1     -11.467  14.910  68.196  1.00  0.00    -0.330 C  
BRANCH  17  18
HETATM   18  C   UNL     1     -10.752  16.164  68.701  1.00  0.00    -0.295 C  
BRANCH  18  19
HETATM   19  N   UNL     1     -10.255  16.930  67.547  1.00  0.00    -0.287 NA 
HETATM   20  C   UNL     1      -8.825  16.741  67.274  1.00  0.00    -0.204 C  
HETATM   21  C   UNL     1     -10.465  18.366  67.673  1.00  0.00    -0.419 C  
HETATM   22  C   UNL     1      -8.389  17.998  66.535  1.00  0.00    -0.293 C  
HETATM   23  C   UNL     1      -9.617  18.895  66.527  1.00  0.00    -0.373 C  
ENDBRANCH  18  19
ENDBRANCH  17  18
ENDBRANCH  16  17
ENDBRANCH  13  16
ENDBRANCH   8  10
ENDBRANCH   5   8
BRANCH   6  24
HETATM   24  N   UNL     1     -10.147   5.919  68.134  1.00  0.00    -0.153 NA 
HETATM   25  H   UNL     1     -10.542   5.107  67.659  1.00  0.00     0.000 HD 
BRANCH  24  26
HETATM   26  C   UNL     1     -10.439   5.957  69.521  1.00  0.00    -0.278 A  
HETATM   27  C   UNL     1     -10.018   5.001  70.450  1.00  0.00    -0.317 A  
HETATM   28  C   UNL     1     -11.344   6.933  69.980  1.00  0.00    -0.343 A  
HETATM   29  C   UNL     1     -10.481   5.003  71.777  1.00  0.00    -0.246 A  
HETATM   30  C   UNL     1     -11.426   5.938  72.196  1.00  0.00    -0.333 A  
HETATM   31  C   UNL     1     -11.874   6.890  71.282  1.00  0.00    -0.341 A  
BRANCH  31  32
HETATM   32  S   UNL     1     -13.091   8.080  71.784  1.00  0.00    -0.319 S  
HETATM   33  O   UNL     1     -14.387   7.450  71.638  1.00  0.00    -0.438 OA 
HETATM   34  O   UNL     1     -12.681   8.640  73.053  1.00  0.00    -0.242 OA 
BRANCH  32  35
HETATM   35  N   UNL     1     -13.048   9.280  70.608  1.00  0.00    -0.427 N  
HETATM   36  C   UNL     1     -12.533  11.314  69.359  1.00  0.00    -0.075 C  
HETATM   37  C   UNL     1     -12.798  11.446  71.818  1.00  0.00    -0.449 C  
HETATM   38  C   UNL     1     -10.788  10.298  70.807  1.00  0.00    -0.116 C  
HETATM   39  C   UNL     1     -12.289  10.554  70.681  1.00  0.00    -0.356 C  
HETATM   40  H   UNL     1     -13.595   9.118  69.762  1.00  0.00     0.000 HD 
ENDBRANCH  32  35
ENDBRANCH  31  32
ENDBRANCH  24  26
ENDBRANCH   6  24
TORSDOF 10
ENDMDL
MODEL       67
REMARK 921   NORMALIZED FREE ENERGY PREDICTED BY IDOCK:   -6.48 KCAL/MOL
REMARK 922        TOTAL FREE ENERGY PREDICTED BY IDOCK:  -11.62 KCAL/MOL
REMARK 923 INTER-LIGAND FREE ENERGY PREDICTED BY IDOCK:   -9.88 KCAL/MOL
REMARK 924 INTRA-LIGAND FREE ENERGY PREDICTED BY IDOCK:   -1.74 KCAL/MOL
REMARK 927      BINDING AFFINITY PREDICTED BY RF-SCORE:    0.00 PKD
ROOT
HETATM    1  C   UNL     1     -11.367  11.683  63.750  1.00  0.00    -0.482 C  
HETATM    2  C   UNL     1     -11.233  12.688  64.849  1.00  0.00    -0.332 A  
HETATM    3  C   UNL     1     -12.263  13.589  65.058  1.00  0.00    -0.419 A  
HETATM    4  N   UNL     1     -12.262  14.531  66.009  1.00  0.00    -0.308 NA 
HETATM    5  C   UNL     1     -11.167  14.602  66.767  1.00  0.00    -0.344 A  
HETATM    6  C   UNL     1     -10.153  12.779  65.725  1.00  0.00    -0.286 A  
HETATM    7  N   UNL     1     -10.128  13.750  66.656  1.00  0.00    -0.271 NA 
ENDROOT
BRANCH   5   8
HETATM    8  N   UNL     1     -11.166  15.642  67.700  1.00  0.00    -0.309 NA 
HETATM    9  H   UNL     1     -11.607  15.423  68.593  1.00  0.00     0.000 HD 
BRANCH   8  10
HETATM   10  C   UNL     1     -10.649  16.939  67.590  1.00  0.00    -0.325 A  
HETATM   11  C   UNL     1     -10.410  17.523  66.352  1.00  0.00    -0.334 A  
HETATM   12  C   UNL     1      -9.610  18.887  68.640  1.00  0.00    -0.443 A  
HETATM   13  C   UNL     1      -9.327  19.428  67.389  1.00  0.00    -0.315 A  
HETATM   14  C   UNL     1      -9.763  18.749  66.245  1.00  0.00    -0.354 A  
HETATM   15  C   UNL     1     -10.266  17.647  68.739  1.00  0.00    -0.373 A  
BRANCH  13  16
HETATM   16  O   UNL     1      -8.603  20.600  67.350  1.00  0.00    -0.329 OA 
BRANCH  16  17
HETATM   17  C   UNL     1      -7.304  20.448  67.927  1.00  0.00    -0.251 C  
BRANCH  17  18
HETATM   18  C   UNL     1      -6.337  19.601  67.100  1.00  0.00    -0.188 C  
BRANCH  18  19
HETATM   19  N   UNL     1      -5.930  18.428  67.890  1.00  0.00    -0.177 NA 
HETATM   20  C   UNL     1      -6.632  17.190  67.530  1.00  0.00    -0.139 C  
HETATM   21  C   UNL     1      -6.114  18.604  69.324  1.00  0.00    -0.251 C  
HETATM   22  C   UNL     1      -6.570  16.317  68.775  1.00  0.00    -0.136 C  
HETATM   23  C   UNL     1      -5.905  17.187  69.830  1.00  0.00    -0.236 C  
ENDBRANCH  18  19
ENDBRANCH  17  18
ENDBRANCH  16  17
ENDBRANCH  13  16
ENDBRANCH   8  10
ENDBRANCH   5   8
BRANCH   6  24
HETATM   24  N   UNL     1      -9.044  11.910  65.553  1.00  0.00    -0.424 NA 
HETATM   25  H   UNL     1      -8.554  12.048  64.668  1.00  0.00     0.000 HD 
BRANCH  24  26
HETATM   26  C   UNL     1      -8.476  10.890  66.357  1.00  0.00    -0.163 A  
HETATM   27  C   UNL     1      -7.435  10.048  65.957  1.00  0.00    -0.112 A  
HETATM   28  C   UNL     1      -9.099  10.591  67.583  1.00  0.00    -0.146 A  
HETATM   29  C   UNL     1      -7.031   8.948  66.733  1.00  0.00    -0.077 A  
HETATM   30  C   UNL     1      -7.701   8.630  67.913  1.00  0.00    -0.102 A  
HETATM   31  C   UNL     1      -8.755   9.444  68.322  1.00  0.00    -0.124 A  
BRANCH  31  32
HETATM   32  S   UNL     1      -9.639   9.051  69.811  1.00  0.00    -0.183 S  
HETATM   33  O   UNL     1      -8.834   9.522  70.919  1.00  0.00    -0.229 OA 
HETATM   34  O   UNL     1     -11.008   9.490  69.653  1.00  0.00    -0.236 OA 
BRANCH  32  35
HETATM   35  N   UNL     1      -9.601   7.374  69.918  1.00  0.00    -0.164 N  
HETATM   36  C   UNL     1     -10.210   5.011  69.837  1.00  0.00    -0.340 C  
HETATM   37  C   UNL     1     -11.888   6.660  70.611  1.00  0.00    -0.443 C  
HETATM   38  C   UNL     1     -11.195   6.580  68.183  1.00  0.00    -0.250 C  
HETATM   39  C   UNL     1     -10.728   6.451  69.632  1.00  0.00    -0.282 C  
HETATM   40  H   UNL     1      -8.720   6.950  70.207  1.00  0.00     0.000 HD 
ENDBRANCH  32  35
ENDBRANCH  31  32
ENDBRANCH  24  26
ENDBRANCH   6  24
TORSDOF 10
ENDMDL
MODEL       68
REMARK 921   NORMALIZED FREE ENERGY PREDICTED BY IDOCK:   -6.47 KCAL/MOL
REMARK 922        TOTAL FREE ENERGY PREDICTED BY IDOCK:  -11.59 KCAL/MOL
REMARK 923 INTER-LIGAND FREE ENERGY PREDICTED BY IDOCK:   -9.57 KCAL/MOL
REMARK 924 INTRA-LIGAND FREE ENERGY PREDICTED BY IDOCK:   -2.03 KCAL/MOL
REMARK 927      BINDING AFFINITY PREDICTED BY RF-SCORE:    0.00 PKD
ROOT
HETATM    1  C   UNL     1     -10.208   4.723  72.428  1.00  0.00    -0.252 C  
HETATM    2  C   UNL     1     -10.917   6.018  72.195  1.00  0.00    -0.314 A  
HETATM    3  C   UNL     1     -11.132   6.864  73.269  1.00  0.00    -0.152 A  
HETATM    4  N   UNL     1     -11.751   8.048  73.188  1.00  0.00    -0.152 NA 
HETATM    5  C   UNL     1     -12.208   8.392  71.983  1.00  0.00    -0.362 A  
HETATM    6  C   UNL     1     -11.361   6.478  70.956  1.00  0.00    -0.323 A  
HETATM    7  N   UNL     1     -12.019   7.648  70.875  1.00  0.00    -0.268 NA 
ENDROOT
BRANCH   5   8
HETATM    8  N   UNL     1     -12.912   9.598  71.946  1.00  0.00    -0.406 NA 
HETATM    9  H   UNL     1     -13.742   9.635  72.537  1.00  0.00     0.000 HD 
BRANCH   8  10
HETATM   10  C   UNL     1     -12.646  10.764  71.216  1.00  0.00    -0.426 A  
HETATM   11  C   UNL     1     -11.876  10.738  70.060  1.00  0.00    -0.424 A  
HETATM   12  C   UNL     1     -12.691  13.203  71.057  1.00  0.00    -0.361 A  
HETATM   13  C   UNL     1     -11.870  13.159  69.933  1.00  0.00    -0.308 A  
HETATM   14  C   UNL     1     -11.494  11.912  69.421  1.00  0.00    -0.366 A  
HETATM   15  C   UNL     1     -13.075  12.011  71.696  1.00  0.00    -0.422 A  
BRANCH  13  16
HETATM   16  O   UNL     1     -11.451  14.360  69.401  1.00  0.00    -0.258 OA 
BRANCH  16  17
HETATM   17  C   UNL     1     -11.888  14.530  68.051  1.00  0.00    -0.315 C  
BRANCH  17  18
HETATM   18  C   UNL     1     -10.758  14.627  67.025  1.00  0.00    -0.290 C  
BRANCH  18  19
HETATM   19  N   UNL     1     -11.001  13.652  65.951  1.00  0.00    -0.281 NA 
HETATM   20  C   UNL     1     -11.050  14.240  64.606  1.00  0.00    -0.363 C  
HETATM   21  C   UNL     1     -12.239  12.902  66.118  1.00  0.00    -0.317 C  
HETATM   22  C   UNL     1     -11.890  13.278  63.778  1.00  0.00    -0.522 C  
HETATM   23  C   UNL     1     -12.365  12.223  64.764  1.00  0.00    -0.416 C  
ENDBRANCH  18  19
ENDBRANCH  17  18
ENDBRANCH  16  17
ENDBRANCH  13  16
ENDBRANCH   8  10
ENDBRANCH   5   8
BRANCH   6  24
HETATM   24  N   UNL     1     -11.205   5.652  69.812  1.00  0.00    -0.130 NA 
HETATM   25  H   UNL     1     -11.769   4.802  69.846  1.00  0.00     0.000 HD 
BRANCH  24  26
HETATM   26  C   UNL     1     -10.427   5.764  68.633  1.00  0.00    -0.229 A  
HETATM   27  C   UNL     1      -9.604   4.756  68.123  1.00  0.00    -0.200 A  
HETATM   28  C   UNL     1     -10.346   7.024  68.012  1.00  0.00    -0.234 A  
HETATM   29  C   UNL     1      -8.728   4.986  67.048  1.00  0.00    -0.103 A  
HETATM   30  C   UNL     1      -8.615   6.257  66.487  1.00  0.00    -0.128 A  
HETATM   31  C   UNL     1      -9.412   7.283  66.991  1.00  0.00    -0.156 A  
BRANCH  31  32
HETATM   32  S   UNL     1      -9.275   8.915  66.308  1.00  0.00    -0.224 S  
HETATM   33  O   UNL     1      -9.075   8.763  64.882  1.00  0.00    -0.096 OA 
HETATM   34  O   UNL     1     -10.368   9.713  66.819  1.00  0.00    -0.239 OA 
BRANCH  32  35
HETATM   35  N   UNL     1      -7.822   9.521  66.896  1.00  0.00    -0.101 N  
HETATM   36  C   UNL     1      -6.147  10.727  68.201  1.00  0.00    -0.050 C  
HETATM   37  C   UNL     1      -8.281  11.855  67.643  1.00  0.00    -0.148 C  
HETATM   38  C   UNL     1      -8.234   9.957  69.309  1.00  0.00    -0.138 C  
HETATM   39  C   UNL     1      -7.662  10.500  68.000  1.00  0.00    -0.092 C  
HETATM   40  H   UNL     1      -6.968   9.183  66.452  1.00  0.00     0.000 HD 
ENDBRANCH  32  35
ENDBRANCH  31  32
ENDBRANCH  24  26
ENDBRANCH   6  24
TORSDOF 10
ENDMDL
MODEL       69
REMARK 921   NORMALIZED FREE ENERGY PREDICTED BY IDOCK:   -6.46 KCAL/MOL
REMARK 922        TOTAL FREE ENERGY PREDICTED BY IDOCK:  -11.58 KCAL/MOL
REMARK 923 INTER-LIGAND FREE ENERGY PREDICTED BY IDOCK:   -9.48 KCAL/MOL
REMARK 924 INTRA-LIGAND FREE ENERGY PREDICTED BY IDOCK:   -2.10 KCAL/MOL
REMARK 927      BINDING AFFINITY PREDICTED BY RF-SCORE:    0.00 PKD
ROOT
HETATM    1  C   UNL     1     -10.726   5.517  70.866  1.00  0.00    -0.283 C  
HETATM    2  C   UNL     1     -11.361   6.800  71.296  1.00  0.00    -0.333 A  
HETATM    3  C   UNL     1     -12.690   7.024  70.981  1.00  0.00    -0.246 A  
HETATM    4  N   UNL     1     -13.370   8.130  71.311  1.00  0.00    -0.186 NA 
HETATM    5  C   UNL     1     -12.683   9.072  71.958  1.00  0.00    -0.398 A  
HETATM    6  C   UNL     1     -10.730   7.801  72.033  1.00  0.00    -0.231 A  
HETATM    7  N   UNL     1     -11.396   8.930  72.332  1.00  0.00    -0.220 NA 
ENDROOT
BRANCH   5   8
HETATM    8  N   UNL     1     -13.399  10.241  72.223  1.00  0.00    -0.590 NA 
HETATM    9  H   UNL     1     -14.154  10.144  72.902  1.00  0.00     0.000 HD 
BRANCH   8  10
HETATM   10  C   UNL     1     -13.234  11.528  71.694  1.00  0.00    -0.286 A  
HETATM   11  C   UNL     1     -12.396  11.767  70.612  1.00  0.00    -0.421 A  
HETATM   12  C   UNL     1     -13.569  13.942  71.888  1.00  0.00    -0.516 A  
HETATM   13  C   UNL     1     -12.680  14.164  70.840  1.00  0.00    -0.361 A  
HETATM   14  C   UNL     1     -12.121  13.061  70.184  1.00  0.00    -0.377 A  
HETATM   15  C   UNL     1     -13.843  12.631  72.314  1.00  0.00    -0.310 A  
BRANCH  13  16
HETATM   16  O   UNL     1     -12.381  15.472  70.523  1.00  0.00    -0.375 OA 
BRANCH  16  17
HETATM   17  C   UNL     1     -12.235  15.663  69.114  1.00  0.00    -0.124 C  
BRANCH  17  18
HETATM   18  C   UNL     1     -10.991  16.454  68.706  1.00  0.00    -0.344 C  
BRANCH  18  19
HETATM   19  N   UNL     1     -10.506  15.950  67.412  1.00  0.00    -0.300 NA 
HETATM   20  C   UNL     1     -10.657  16.902  66.303  1.00  0.00    -0.191 C  
HETATM   21  C   UNL     1     -11.159  14.718  66.988  1.00  0.00    -0.333 C  
HETATM   22  C   UNL     1     -10.712  16.047  65.045  1.00  0.00    -0.400 C  
HETATM   23  C   UNL     1     -10.692  14.611  65.546  1.00  0.00    -0.360 C  
ENDBRANCH  18  19
ENDBRANCH  17  18
ENDBRANCH  16  17
ENDBRANCH  13  16
ENDBRANCH   8  10
ENDBRANCH   5   8
BRANCH   6  24
HETATM   24  N   UNL     1      -9.357   7.657  72.365  1.00  0.00    -0.150 NA 
HETATM   25  H   UNL     1      -9.191   7.000  73.128  1.00  0.00     0.000 HD 
BRANCH  24  26
HETATM   26  C   UNL     1      -8.170   8.237  71.853  1.00  0.00    -0.149 A  
HETATM   27  C   UNL     1      -6.949   8.281  72.532  1.00  0.00    -0.110 A  
HETATM   28  C   UNL     1      -8.252   8.960  70.649  1.00  0.00    -0.183 A  
HETATM   29  C   UNL     1      -5.855   9.019  72.045  1.00  0.00    -0.074 A  
HETATM   30  C   UNL     1      -5.976   9.780  70.884  1.00  0.00    -0.089 A  
HETATM   31  C   UNL     1      -7.190   9.767  70.200  1.00  0.00    -0.145 A  
BRANCH  31  32
HETATM   32  S   UNL     1      -7.377  10.743  68.729  1.00  0.00    -0.113 S  
HETATM   33  O   UNL     1      -6.975  12.093  69.062  1.00  0.00    -0.103 OA 
HETATM   34  O   UNL     1      -6.752  10.034  67.634  1.00  0.00    -0.073 OA 
BRANCH  32  35
HETATM   35  N   UNL     1      -9.034  10.828  68.462  1.00  0.00    -0.153 N  
HETATM   36  C   UNL     1     -11.258  10.632  67.472  1.00  0.00    -0.326 C  
HETATM   37  C   UNL     1      -9.337  11.204  66.016  1.00  0.00    -0.228 C  
HETATM   38  C   UNL     1      -9.553   8.887  66.998  1.00  0.00    -0.232 C  
HETATM   39  C   UNL     1      -9.750  10.382  67.241  1.00  0.00    -0.165 C  
HETATM   40  H   UNL     1      -9.602  11.224  69.211  1.00  0.00     0.000 HD 
ENDBRANCH  32  35
ENDBRANCH  31  32
ENDBRANCH  24  26
ENDBRANCH   6  24
TORSDOF 10
ENDMDL
MODEL       70
REMARK 921   NORMALIZED FREE ENERGY PREDICTED BY IDOCK:   -6.45 KCAL/MOL
REMARK 922        TOTAL FREE ENERGY PREDICTED BY IDOCK:  -11.57 KCAL/MOL
REMARK 923 INTER-LIGAND FREE ENERGY PREDICTED BY IDOCK:  -10.62 KCAL/MOL
REMARK 924 INTRA-LIGAND FREE ENERGY PREDICTED BY IDOCK:   -0.95 KCAL/MOL
REMARK 927      BINDING AFFINITY PREDICTED BY RF-SCORE:    0.00 PKD
ROOT
HETATM    1  C   UNL     1     -12.327  16.326  72.688  1.00  0.00    -0.516 C  
HETATM    2  C   UNL     1     -12.529  14.931  72.188  1.00  0.00    -0.416 A  
HETATM    3  C   UNL     1     -13.458  14.124  72.821  1.00  0.00    -0.489 A  
HETATM    4  N   UNL     1     -13.730  12.862  72.466  1.00  0.00    -0.566 NA 
HETATM    5  C   UNL     1     -13.018  12.368  71.453  1.00  0.00    -0.250 A  
HETATM    6  C   UNL     1     -11.874  14.368  71.093  1.00  0.00    -0.251 A  
HETATM    7  N   UNL     1     -12.114  13.088  70.758  1.00  0.00    -0.276 NA 
ENDROOT
BRANCH   5   8
HETATM    8  N   UNL     1     -13.273  11.028  71.155  1.00  0.00    -0.197 NA 
HETATM    9  H   UNL     1     -14.111  10.858  70.599  1.00  0.00     0.000 HD 
BRANCH   8  10
HETATM   10  C   UNL     1     -12.548   9.882  71.508  1.00  0.00    -0.416 A  
HETATM   11  C   UNL     1     -13.129   8.848  72.232  1.00  0.00    -0.491 A  
HETATM   12  C   UNL     1     -10.404   8.723  71.692  1.00  0.00    -0.391 A  
HETATM   13  C   UNL     1     -10.992   7.727  72.467  1.00  0.00    -0.338 A  
HETATM   14  C   UNL     1     -12.371   7.783  72.704  1.00  0.00    -0.047 A  
HETATM   15  C   UNL     1     -11.177   9.796  71.217  1.00  0.00    -0.417 A  
BRANCH  13  16
HETATM   16  O   UNL     1     -10.169   6.748  72.981  1.00  0.00    -0.187 OA 
BRANCH  16  17
HETATM   17  C   UNL     1      -9.244   7.272  73.936  1.00  0.00    -0.247 C  
BRANCH  17  18
HETATM   18  C   UNL     1      -8.079   6.340  74.269  1.00  0.00    -0.115 C  
BRANCH  18  19
HETATM   19  N   UNL     1      -7.377   5.986  73.025  1.00  0.00    -0.093 NA 
HETATM   20  C   UNL     1      -6.487   4.824  73.148  1.00  0.00    -0.051 C  
HETATM   21  C   UNL     1      -6.567   7.071  72.488  1.00  0.00    -0.057 C  
HETATM   22  C   UNL     1      -5.446   4.999  72.052  1.00  0.00    -0.008 C  
HETATM   23  C   UNL     1      -5.762   6.346  71.422  1.00  0.00    -0.027 C  
ENDBRANCH  18  19
ENDBRANCH  17  18
ENDBRANCH  16  17
ENDBRANCH  13  16
ENDBRANCH   8  10
ENDBRANCH   5   8
BRANCH   6  24
HETATM   24  N   UNL     1     -10.884  15.124  70.413  1.00  0.00    -0.453 NA 
HETATM   25  H   UNL     1     -10.179  15.522  71.035  1.00  0.00     0.000 HD 
BRANCH  24  26
HETATM   26  C   UNL     1     -10.672  15.439  69.048  1.00  0.00    -0.242 A  
HETATM   27  C   UNL     1     -10.567  16.736  68.537  1.00  0.00    -0.354 A  
HETATM   28  C   UNL     1     -10.726  14.390  68.111  1.00  0.00    -0.239 A  
HETATM   29  C   UNL     1     -10.528  16.987  67.154  1.00  0.00    -0.291 A  
HETATM   30  C   UNL     1     -10.647  15.942  66.241  1.00  0.00    -0.301 A  
HETATM   31  C   UNL     1     -10.771  14.641  66.727  1.00  0.00    -0.301 A  
BRANCH  31  32
HETATM   32  S   UNL     1     -10.944  13.293  65.586  1.00  0.00    -0.280 S  
HETATM   33  O   UNL     1     -12.013  12.451  66.083  1.00  0.00    -0.549 OA 
HETATM   34  O   UNL     1     -10.993  13.836  64.247  1.00  0.00    -0.367 OA 
BRANCH  32  35
HETATM   35  N   UNL     1      -9.544  12.380  65.764  1.00  0.00    -0.395 N  
HETATM   36  C   UNL     1      -7.921  10.555  65.737  1.00  0.00    -0.158 C  
HETATM   37  C   UNL     1     -10.277  10.062  66.320  1.00  0.00    -0.285 C  
HETATM   38  C   UNL     1      -9.646  10.679  63.954  1.00  0.00    -0.356 C  
HETATM   39  C   UNL     1      -9.387  10.941  65.436  1.00  0.00    -0.208 C  
HETATM   40  H   UNL     1      -8.723  12.861  66.133  1.00  0.00     0.000 HD 
ENDBRANCH  32  35
ENDBRANCH  31  32
ENDBRANCH  24  26
ENDBRANCH   6  24
TORSDOF 10
ENDMDL
MODEL       71
REMARK 921   NORMALIZED FREE ENERGY PREDICTED BY IDOCK:   -6.44 KCAL/MOL
REMARK 922        TOTAL FREE ENERGY PREDICTED BY IDOCK:  -11.55 KCAL/MOL
REMARK 923 INTER-LIGAND FREE ENERGY PREDICTED BY IDOCK:  -10.52 KCAL/MOL
REMARK 924 INTRA-LIGAND FREE ENERGY PREDICTED BY IDOCK:   -1.03 KCAL/MOL
REMARK 927      BINDING AFFINITY PREDICTED BY RF-SCORE:    0.00 PKD
ROOT
HETATM    1  C   UNL     1      -8.462   8.416  64.495  1.00  0.00    -0.078 C  
HETATM    2  C   UNL     1      -9.228   8.769  65.730  1.00  0.00    -0.269 A  
HETATM    3  C   UNL     1      -9.242   7.874  66.785  1.00  0.00    -0.166 A  
HETATM    4  N   UNL     1      -9.888   8.076  67.940  1.00  0.00    -0.160 NA 
HETATM    5  C   UNL     1     -10.581   9.211  68.037  1.00  0.00    -0.197 A  
HETATM    6  C   UNL     1      -9.918   9.964  65.932  1.00  0.00    -0.277 A  
HETATM    7  N   UNL     1     -10.602  10.155  67.074  1.00  0.00    -0.242 NA 
ENDROOT
BRANCH   5   8
HETATM    8  N   UNL     1     -11.302   9.358  69.224  1.00  0.00    -0.440 NA 
HETATM    9  H   UNL     1     -12.165   9.896  69.144  1.00  0.00     0.000 HD 
BRANCH   8  10
HETATM   10  C   UNL     1     -11.015   8.876  70.508  1.00  0.00    -0.241 A  
HETATM   11  C   UNL     1      -9.788   9.113  71.115  1.00  0.00    -0.371 A  
HETATM   12  C   UNL     1     -11.602   7.440  72.396  1.00  0.00    -0.327 A  
HETATM   13  C   UNL     1     -10.346   7.643  72.960  1.00  0.00    -0.335 A  
HETATM   14  C   UNL     1      -9.453   8.513  72.323  1.00  0.00    -0.365 A  
HETATM   15  C   UNL     1     -11.934   8.052  71.175  1.00  0.00    -0.297 A  
BRANCH  13  16
HETATM   16  O   UNL     1     -10.042   6.947  74.111  1.00  0.00    -0.331 OA 
BRANCH  16  17
HETATM   17  C   UNL     1      -8.915   6.086  73.936  1.00  0.00    -0.127 C  
BRANCH  17  18
HETATM   18  C   UNL     1      -9.213   4.600  74.141  1.00  0.00    -0.113 C  
BRANCH  18  19
HETATM   19  N   UNL     1      -9.743   4.039  72.888  1.00  0.00    -0.129 NA 
HETATM   20  C   UNL     1      -9.959   2.587  72.925  1.00  0.00    -0.129 C  
HETATM   21  C   UNL     1      -8.894   4.300  71.733  1.00  0.00    -0.115 C  
HETATM   22  C   UNL     1      -9.884   2.134  71.474  1.00  0.00    -0.202 C  
HETATM   23  C   UNL     1      -9.514   3.383  70.691  1.00  0.00    -0.243 C  
ENDBRANCH  18  19
ENDBRANCH  17  18
ENDBRANCH  16  17
ENDBRANCH  13  16
ENDBRANCH   8  10
ENDBRANCH   5   8
BRANCH   6  24
HETATM   24  N   UNL     1      -9.976  10.918  64.882  1.00  0.00    -0.278 NA 
HETATM   25  H   UNL     1      -9.329  10.720  64.118  1.00  0.00     0.000 HD 
BRANCH  24  26
HETATM   26  C   UNL     1     -10.748  12.088  64.678  1.00  0.00    -0.309 A  
HETATM   27  C   UNL     1     -11.789  12.204  63.751  1.00  0.00    -0.592 A  
HETATM   28  C   UNL     1     -10.348  13.268  65.333  1.00  0.00    -0.316 A  
HETATM   29  C   UNL     1     -12.403  13.439  63.476  1.00  0.00    -0.398 A  
HETATM   30  C   UNL     1     -11.950  14.606  64.087  1.00  0.00    -0.316 A  
HETATM   31  C   UNL     1     -10.901  14.518  65.001  1.00  0.00    -0.412 A  
BRANCH  31  32
HETATM   32  S   UNL     1     -10.293  15.992  65.780  1.00  0.00    -0.391 S  
HETATM   33  O   UNL     1      -8.882  15.786  66.036  1.00  0.00    -0.327 OA 
HETATM   34  O   UNL     1     -10.745  17.130  65.011  1.00  0.00    -0.712 OA 
BRANCH  32  35
HETATM   35  N   UNL     1     -11.017  16.023  67.296  1.00  0.00    -0.261 N  
HETATM   36  C   UNL     1     -11.504  16.466  69.648  1.00  0.00    -0.112 C  
HETATM   37  C   UNL     1      -9.164  16.030  68.964  1.00  0.00    -0.244 C  
HETATM   38  C   UNL     1     -10.310  18.182  68.306  1.00  0.00    -0.377 C  
HETATM   39  C   UNL     1     -10.477  16.678  68.514  1.00  0.00    -0.319 C  
HETATM   40  H   UNL     1     -11.914  15.547  67.389  1.00  0.00     0.000 HD 
ENDBRANCH  32  35
ENDBRANCH  31  32
ENDBRANCH  24  26
ENDBRANCH   6  24
TORSDOF 10
ENDMDL
MODEL       72
REMARK 921   NORMALIZED FREE ENERGY PREDICTED BY IDOCK:   -6.39 KCAL/MOL
REMARK 922        TOTAL FREE ENERGY PREDICTED BY IDOCK:  -11.47 KCAL/MOL
REMARK 923 INTER-LIGAND FREE ENERGY PREDICTED BY IDOCK:   -9.62 KCAL/MOL
REMARK 924 INTRA-LIGAND FREE ENERGY PREDICTED BY IDOCK:   -1.85 KCAL/MOL
REMARK 927      BINDING AFFINITY PREDICTED BY RF-SCORE:    0.00 PKD
ROOT
HETATM    1  C   UNL     1      -6.014  10.351  64.450  1.00  0.00    -0.105 C  
HETATM    2  C   UNL     1      -7.046   9.389  64.945  1.00  0.00    -0.105 A  
HETATM    3  C   UNL     1      -6.653   8.106  65.284  1.00  0.00    -0.052 A  
HETATM    4  N   UNL     1      -7.480   7.157  65.740  1.00  0.00    -0.078 NA 
HETATM    5  C   UNL     1      -8.768   7.492  65.831  1.00  0.00    -0.147 A  
HETATM    6  C   UNL     1      -8.396   9.685  65.132  1.00  0.00    -0.137 A  
HETATM    7  N   UNL     1      -9.238   8.724  65.551  1.00  0.00    -0.179 NA 
ENDROOT
BRANCH   5   8
HETATM    8  N   UNL     1      -9.615   6.459  66.239  1.00  0.00    -0.332 NA 
HETATM    9  H   UNL     1     -10.051   5.930  65.483  1.00  0.00     0.000 HD 
BRANCH   8  10
HETATM   10  C   UNL     1      -9.953   6.041  67.533  1.00  0.00    -0.137 A  
HETATM   11  C   UNL     1     -11.075   6.535  68.186  1.00  0.00    -0.332 A  
HETATM   12  C   UNL     1      -9.349   4.867  69.590  1.00  0.00    -0.190 A  
HETATM   13  C   UNL     1     -10.446   5.419  70.245  1.00  0.00    -0.285 A  
HETATM   14  C   UNL     1     -11.326   6.231  69.519  1.00  0.00    -0.475 A  
HETATM   15  C   UNL     1      -9.102   5.178  68.242  1.00  0.00    -0.128 A  
BRANCH  13  16
HETATM   16  O   UNL     1     -10.588   5.152  71.589  1.00  0.00    -0.212 OA 
BRANCH  16  17
HETATM   17  C   UNL     1     -10.837   6.338  72.348  1.00  0.00    -0.243 C  
BRANCH  17  18
HETATM   18  C   UNL     1      -9.580   7.107  72.755  1.00  0.00    -0.152 C  
BRANCH  18  19
HETATM   19  N   UNL     1      -9.561   8.400  72.053  1.00  0.00    -0.246 NA 
HETATM   20  C   UNL     1     -10.893   8.928  71.731  1.00  0.00    -0.365 C  
HETATM   21  C   UNL     1      -8.817   8.367  70.801  1.00  0.00    -0.151 C  
HETATM   22  C   UNL     1     -10.682   9.848  70.537  1.00  0.00    -0.382 C  
HETATM   23  C   UNL     1      -9.211   9.698  70.182  1.00  0.00    -0.287 C  
ENDBRANCH  18  19
ENDBRANCH  17  18
ENDBRANCH  16  17
ENDBRANCH  13  16
ENDBRANCH   8  10
ENDBRANCH   5   8
BRANCH   6  24
HETATM   24  N   UNL     1      -8.880  10.971  64.775  1.00  0.00    -0.358 NA 
HETATM   25  H   UNL     1      -8.258  11.478  64.146  1.00  0.00     0.000 HD 
BRANCH  24  26
HETATM   26  C   UNL     1     -10.051  11.694  65.114  1.00  0.00    -0.262 A  
HETATM   27  C   UNL     1     -11.131  11.908  64.252  1.00  0.00    -0.418 A  
HETATM   28  C   UNL     1     -10.073  12.380  66.342  1.00  0.00    -0.252 A  
HETATM   29  C   UNL     1     -12.186  12.775  64.587  1.00  0.00    -0.510 A  
HETATM   30  C   UNL     1     -12.159  13.495  65.779  1.00  0.00    -0.473 A  
HETATM   31  C   UNL     1     -11.083  13.312  66.646  1.00  0.00    -0.291 A  
BRANCH  31  32
HETATM   32  S   UNL     1     -11.013  14.231  68.163  1.00  0.00    -0.254 S  
HETATM   33  O   UNL     1     -12.239  13.955  68.883  1.00  0.00    -0.354 OA 
HETATM   34  O   UNL     1      -9.726  13.993  68.777  1.00  0.00    -0.205 OA 
BRANCH  32  35
HETATM   35  N   UNL     1     -11.122  15.845  67.708  1.00  0.00    -0.315 N  
HETATM   36  C   UNL     1     -10.590  18.095  66.921  1.00  0.00    -0.326 C  
HETATM   37  C   UNL     1      -8.970  16.914  68.375  1.00  0.00    -0.244 C  
HETATM   38  C   UNL     1      -9.346  16.154  65.995  1.00  0.00    -0.368 C  
HETATM   39  C   UNL     1     -10.000  16.708  67.260  1.00  0.00    -0.270 C  
HETATM   40  H   UNL     1     -12.047  16.273  67.742  1.00  0.00     0.000 HD 
ENDBRANCH  32  35
ENDBRANCH  31  32
ENDBRANCH  24  26
ENDBRANCH   6  24
TORSDOF 10
ENDMDL
MODEL       73
REMARK 921   NORMALIZED FREE ENERGY PREDICTED BY IDOCK:   -6.35 KCAL/MOL
REMARK 922        TOTAL FREE ENERGY PREDICTED BY IDOCK:  -11.41 KCAL/MOL
REMARK 923 INTER-LIGAND FREE ENERGY PREDICTED BY IDOCK:  -10.58 KCAL/MOL
REMARK 924 INTRA-LIGAND FREE ENERGY PREDICTED BY IDOCK:   -0.84 KCAL/MOL
REMARK 927      BINDING AFFINITY PREDICTED BY RF-SCORE:    0.00 PKD
ROOT
HETATM    1  C   UNL     1     -12.289  15.548  71.469  1.00  0.00    -0.465 C  
HETATM    2  C   UNL     1     -12.456  14.079  71.244  1.00  0.00    -0.448 A  
HETATM    3  C   UNL     1     -13.302  13.369  72.077  1.00  0.00    -0.479 A  
HETATM    4  N   UNL     1     -13.535  12.054  71.977  1.00  0.00    -0.393 NA 
HETATM    5  C   UNL     1     -12.867  11.409  71.020  1.00  0.00    -0.286 A  
HETATM    6  C   UNL     1     -11.847  13.349  70.224  1.00  0.00    -0.245 A  
HETATM    7  N   UNL     1     -12.046  12.021  70.143  1.00  0.00    -0.321 NA 
ENDROOT
BRANCH   5   8
HETATM    8  N   UNL     1     -13.076  10.028  70.987  1.00  0.00    -0.473 NA 
HETATM    9  H   UNL     1     -13.996   9.736  70.659  1.00  0.00     0.000 HD 
BRANCH   8  10
HETATM   10  C   UNL     1     -12.208   8.986  71.339  1.00  0.00    -0.323 A  
HETATM   11  C   UNL     1     -10.829   9.120  71.228  1.00  0.00    -0.402 A  
HETATM   12  C   UNL     1     -11.870   6.641  71.937  1.00  0.00    -0.375 A  
HETATM   13  C   UNL     1     -10.495   6.779  71.763  1.00  0.00    -0.207 A  
HETATM   14  C   UNL     1      -9.980   8.040  71.439  1.00  0.00    -0.221 A  
HETATM   15  C   UNL     1     -12.722   7.738  71.724  1.00  0.00    -0.354 A  
BRANCH  13  16
HETATM   16  O   UNL     1      -9.718   5.649  71.897  1.00  0.00    -0.158 OA 
BRANCH  16  17
HETATM   17  C   UNL     1      -9.391   5.382  73.262  1.00  0.00    -0.135 C  
BRANCH  17  18
HETATM   18  C   UNL     1      -8.742   6.553  74.001  1.00  0.00    -0.137 C  
BRANCH  18  19
HETATM   19  N   UNL     1      -7.279   6.427  73.907  1.00  0.00    -0.086 NA 
HETATM   20  C   UNL     1      -6.679   7.206  72.816  1.00  0.00    -0.067 C  
HETATM   21  C   UNL     1      -6.826   5.054  73.731  1.00  0.00    -0.079 C  
HETATM   22  C   UNL     1      -5.371   6.498  72.491  1.00  0.00    -0.036 C  
HETATM   23  C   UNL     1      -5.363   5.263  73.377  1.00  0.00    -0.021 C  
ENDBRANCH  18  19
ENDBRANCH  17  18
ENDBRANCH  16  17
ENDBRANCH  13  16
ENDBRANCH   8  10
ENDBRANCH   5   8
BRANCH   6  24
HETATM   24  N   UNL     1     -10.940  14.003  69.349  1.00  0.00    -0.392 NA 
HETATM   25  H   UNL     1     -10.015  14.143  69.755  1.00  0.00     0.000 HD 
BRANCH  24  26
HETATM   26  C   UNL     1     -11.056  14.500  68.027  1.00  0.00    -0.276 A  
HETATM   27  C   UNL     1     -11.209  13.704  66.888  1.00  0.00    -0.326 A  
HETATM   28  C   UNL     1     -10.847  15.875  67.817  1.00  0.00    -0.324 A  
HETATM   29  C   UNL     1     -11.147  14.245  65.592  1.00  0.00    -0.316 A  
HETATM   30  C   UNL     1     -10.876  15.598  65.402  1.00  0.00    -0.394 A  
HETATM   31  C   UNL     1     -10.702  16.408  66.523  1.00  0.00    -0.163 A  
BRANCH  31  32
HETATM   32  S   UNL     1     -10.336  18.132  66.309  1.00  0.00    -0.353 S  
HETATM   33  O   UNL     1     -10.840  18.515  65.007  1.00  0.00    -0.596 OA 
HETATM   34  O   UNL     1     -10.758  18.835  67.501  1.00  0.00    -0.438 OA 
BRANCH  32  35
HETATM   35  N   UNL     1      -8.663  18.217  66.178  1.00  0.00    -0.158 N  
HETATM   36  C   UNL     1      -6.302  18.667  66.610  1.00  0.00    -0.203 C  
HETATM   37  C   UNL     1      -7.983  20.388  67.200  1.00  0.00    -0.379 C  
HETATM   38  C   UNL     1      -7.831  18.241  68.521  1.00  0.00    -0.313 C  
HETATM   39  C   UNL     1      -7.740  18.877  67.135  1.00  0.00    -0.235 C  
HETATM   40  H   UNL     1      -8.241  17.772  65.363  1.00  0.00     0.000 HD 
ENDBRANCH  32  35
ENDBRANCH  31  32
ENDBRANCH  24  26
ENDBRANCH   6  24
TORSDOF 10
ENDMDL
MODEL       74
REMARK 921   NORMALIZED FREE ENERGY PREDICTED BY IDOCK:   -6.35 KCAL/MOL
REMARK 922        TOTAL FREE ENERGY PREDICTED BY IDOCK:  -11.41 KCAL/MOL
REMARK 923 INTER-LIGAND FREE ENERGY PREDICTED BY IDOCK:   -9.72 KCAL/MOL
REMARK 924 INTRA-LIGAND FREE ENERGY PREDICTED BY IDOCK:   -1.69 KCAL/MOL
REMARK 927      BINDING AFFINITY PREDICTED BY RF-SCORE:    0.00 PKD
ROOT
HETATM    1  C   UNL     1     -10.128  19.169  66.822  1.00  0.00    -0.458 C  
HETATM    2  C   UNL     1      -9.054  18.238  67.286  1.00  0.00    -0.256 A  
HETATM    3  C   UNL     1      -8.214  18.646  68.307  1.00  0.00    -0.323 A  
HETATM    4  N   UNL     1      -7.219  17.904  68.810  1.00  0.00    -0.270 NA 
HETATM    5  C   UNL     1      -7.030  16.711  68.245  1.00  0.00    -0.155 A  
HETATM    6  C   UNL     1      -8.839  16.952  66.794  1.00  0.00    -0.235 A  
HETATM    7  N   UNL     1      -7.816  16.218  67.267  1.00  0.00    -0.158 NA 
ENDROOT
BRANCH   5   8
HETATM    8  N   UNL     1      -5.940  15.993  68.742  1.00  0.00    -0.104 NA 
HETATM    9  H   UNL     1      -5.063  16.512  68.786  1.00  0.00     0.000 HD 
BRANCH   8  10
HETATM   10  C   UNL     1      -5.874  14.667  69.189  1.00  0.00    -0.099 A  
HETATM   11  C   UNL     1      -6.193  13.602  68.355  1.00  0.00    -0.095 A  
HETATM   12  C   UNL     1      -5.650  13.076  71.031  1.00  0.00    -0.158 A  
HETATM   13  C   UNL     1      -6.029  12.030  70.193  1.00  0.00    -0.159 A  
HETATM   14  C   UNL     1      -6.267  12.302  68.841  1.00  0.00    -0.078 A  
HETATM   15  C   UNL     1      -5.576  14.388  70.532  1.00  0.00    -0.145 A  
BRANCH  13  16
HETATM   16  O   UNL     1      -6.173  10.781  70.757  1.00  0.00    -0.316 OA 
BRANCH  16  17
HETATM   17  C   UNL     1      -7.298  10.078  70.224  1.00  0.00    -0.141 C  
BRANCH  17  18
HETATM   18  C   UNL     1      -7.864   8.996  71.143  1.00  0.00    -0.116 C  
BRANCH  18  19
HETATM   19  N   UNL     1      -9.284   9.283  71.404  1.00  0.00    -0.296 NA 
HETATM   20  C   UNL     1      -9.850   8.534  72.533  1.00  0.00    -0.254 C  
HETATM   21  C   UNL     1     -10.147   9.020  70.260  1.00  0.00    -0.198 C  
HETATM   22  C   UNL     1     -11.346   8.467  72.260  1.00  0.00    -0.448 C  
HETATM   23  C   UNL     1     -11.525   9.114  70.896  1.00  0.00    -0.357 C  
ENDBRANCH  18  19
ENDBRANCH  17  18
ENDBRANCH  16  17
ENDBRANCH  13  16
ENDBRANCH   8  10
ENDBRANCH   5   8
BRANCH   6  24
HETATM   24  N   UNL     1      -9.640  16.475  65.723  1.00  0.00    -0.518 NA 
HETATM   25  H   UNL     1      -9.644  17.094  64.912  1.00  0.00     0.000 HD 
BRANCH  24  26
HETATM   26  C   UNL     1     -10.436  15.316  65.549  1.00  0.00    -0.374 A  
HETATM   27  C   UNL     1     -11.547  15.232  64.704  1.00  0.00    -0.333 A  
HETATM   28  C   UNL     1     -10.199  14.217  66.395  1.00  0.00    -0.292 A  
HETATM   29  C   UNL     1     -12.395  14.110  64.703  1.00  0.00    -0.432 A  
HETATM   30  C   UNL     1     -12.181  13.060  65.594  1.00  0.00    -0.521 A  
HETATM   31  C   UNL     1     -11.090  13.130  66.458  1.00  0.00    -0.294 A  
BRANCH  31  32
HETATM   32  S   UNL     1     -10.805  11.814  67.616  1.00  0.00    -0.231 S  
HETATM   33  O   UNL     1     -10.472  12.430  68.884  1.00  0.00    -0.190 OA 
HETATM   34  O   UNL     1     -11.901  10.877  67.515  1.00  0.00    -0.524 OA 
BRANCH  32  35
HETATM   35  N   UNL     1      -9.389  11.070  67.100  1.00  0.00    -0.163 N  
HETATM   36  C   UNL     1      -7.785   9.652  65.925  1.00  0.00    -0.102 C  
HETATM   37  C   UNL     1      -9.988   8.712  66.556  1.00  0.00    -0.353 C  
HETATM   38  C   UNL     1      -9.812  10.449  64.730  1.00  0.00    -0.406 C  
HETATM   39  C   UNL     1      -9.284   9.989  66.088  1.00  0.00    -0.165 C  
HETATM   40  H   UNL     1      -8.518  11.393  67.522  1.00  0.00     0.000 HD 
ENDBRANCH  32  35
ENDBRANCH  31  32
ENDBRANCH  24  26
ENDBRANCH   6  24
TORSDOF 10
ENDMDL
MODEL       75
REMARK 921   NORMALIZED FREE ENERGY PREDICTED BY IDOCK:   -6.34 KCAL/MOL
REMARK 922        TOTAL FREE ENERGY PREDICTED BY IDOCK:  -11.39 KCAL/MOL
REMARK 923 INTER-LIGAND FREE ENERGY PREDICTED BY IDOCK:  -10.31 KCAL/MOL
REMARK 924 INTRA-LIGAND FREE ENERGY PREDICTED BY IDOCK:   -1.08 KCAL/MOL
REMARK 927      BINDING AFFINITY PREDICTED BY RF-SCORE:    0.00 PKD
ROOT
HETATM    1  C   UNL     1     -13.394  12.845  72.414  1.00  0.00    -0.526 C  
HETATM    2  C   UNL     1     -12.714  13.388  71.198  1.00  0.00    -0.411 A  
HETATM    3  C   UNL     1     -12.467  14.747  71.123  1.00  0.00    -0.329 A  
HETATM    4  N   UNL     1     -11.865  15.351  70.090  1.00  0.00    -0.309 NA 
HETATM    5  C   UNL     1     -11.522  14.566  69.067  1.00  0.00    -0.290 A  
HETATM    6  C   UNL     1     -12.265  12.624  70.122  1.00  0.00    -0.238 A  
HETATM    7  N   UNL     1     -11.696  13.229  69.064  1.00  0.00    -0.302 NA 
ENDROOT
BRANCH   5   8
HETATM    8  N   UNL     1     -10.964  15.236  67.977  1.00  0.00    -0.288 NA 
HETATM    9  H   UNL     1     -11.574  15.328  67.165  1.00  0.00     0.000 HD 
BRANCH   8  10
HETATM   10  C   UNL     1      -9.689  15.800  67.834  1.00  0.00    -0.216 A  
HETATM   11  C   UNL     1      -8.912  16.130  68.938  1.00  0.00    -0.247 A  
HETATM   12  C   UNL     1      -7.995  16.838  66.410  1.00  0.00    -0.356 A  
HETATM   13  C   UNL     1      -7.260  17.212  67.532  1.00  0.00    -0.157 A  
HETATM   14  C   UNL     1      -7.714  16.821  68.797  1.00  0.00    -0.242 A  
HETATM   15  C   UNL     1      -9.204  16.138  66.561  1.00  0.00    -0.303 A  
BRANCH  13  16
HETATM   16  O   UNL     1      -6.129  17.974  67.330  1.00  0.00    -0.147 OA 
BRANCH  16  17
HETATM   17  C   UNL     1      -6.442  19.272  66.820  1.00  0.00    -0.187 C  
BRANCH  17  18
HETATM   18  C   UNL     1      -7.154  20.190  67.815  1.00  0.00    -0.295 C  
BRANCH  18  19
HETATM   19  N   UNL     1      -8.537  20.408  67.362  1.00  0.00    -0.342 NA 
HETATM   20  C   UNL     1      -9.554  19.790  68.221  1.00  0.00    -0.368 C  
HETATM   21  C   UNL     1      -8.787  19.922  66.012  1.00  0.00    -0.240 C  
HETATM   22  C   UNL     1     -10.763  19.576  67.321  1.00  0.00    -0.604 C  
HETATM   23  C   UNL     1     -10.302  20.006  65.938  1.00  0.00    -0.529 C  
ENDBRANCH  18  19
ENDBRANCH  17  18
ENDBRANCH  16  17
ENDBRANCH  13  16
ENDBRANCH   8  10
ENDBRANCH   5   8
BRANCH   6  24
HETATM   24  N   UNL     1     -12.512  11.226  70.112  1.00  0.00    -0.253 NA 
HETATM   25  H   UNL     1     -13.311  10.959  69.537  1.00  0.00     0.000 HD 
BRANCH  24  26
HETATM   26  C   UNL     1     -11.875  10.124  70.737  1.00  0.00    -0.351 A  
HETATM   27  C   UNL     1     -12.445   9.342  71.745  1.00  0.00    -0.458 A  
HETATM   28  C   UNL     1     -10.519   9.890  70.442  1.00  0.00    -0.347 A  
HETATM   29  C   UNL     1     -11.702   8.373  72.442  1.00  0.00    -0.452 A  
HETATM   30  C   UNL     1     -10.345   8.199  72.180  1.00  0.00    -0.342 A  
HETATM   31  C   UNL     1      -9.750   8.981  71.192  1.00  0.00    -0.299 A  
BRANCH  31  32
HETATM   32  S   UNL     1      -8.017   8.794  70.852  1.00  0.00    -0.149 S  
HETATM   33  O   UNL     1      -7.893   7.777  69.829  1.00  0.00    -0.101 OA 
HETATM   34  O   UNL     1      -7.450  10.110  70.658  1.00  0.00    -0.277 OA 
BRANCH  32  35
HETATM   35  N   UNL     1      -7.365   8.107  72.240  1.00  0.00    -0.096 N  
HETATM   36  C   UNL     1      -6.242   6.599  73.799  1.00  0.00    -0.064 C  
HETATM   37  C   UNL     1      -7.680   5.643  72.023  1.00  0.00    -0.102 C  
HETATM   38  C   UNL     1      -5.467   6.714  71.441  1.00  0.00    -0.027 C  
HETATM   39  C   UNL     1      -6.704   6.782  72.336  1.00  0.00    -0.062 C  
HETATM   40  H   UNL     1      -7.430   8.653  73.099  1.00  0.00     0.000 HD 
ENDBRANCH  32  35
ENDBRANCH  31  32
ENDBRANCH  24  26
ENDBRANCH   6  24
TORSDOF 10
ENDMDL
MODEL       76
REMARK 921   NORMALIZED FREE ENERGY PREDICTED BY IDOCK:   -6.34 KCAL/MOL
REMARK 922        TOTAL FREE ENERGY PREDICTED BY IDOCK:  -11.39 KCAL/MOL
REMARK 923 INTER-LIGAND FREE ENERGY PREDICTED BY IDOCK:  -10.21 KCAL/MOL
REMARK 924 INTRA-LIGAND FREE ENERGY PREDICTED BY IDOCK:   -1.18 KCAL/MOL
REMARK 927      BINDING AFFINITY PREDICTED BY RF-SCORE:    0.00 PKD
ROOT
HETATM    1  C   UNL     1      -8.428   6.313  66.569  1.00  0.00    -0.121 C  
HETATM    2  C   UNL     1      -9.020   7.617  66.139  1.00  0.00    -0.197 A  
HETATM    3  C   UNL     1      -8.518   8.236  65.007  1.00  0.00    -0.123 A  
HETATM    4  N   UNL     1      -8.965   9.401  64.521  1.00  0.00    -0.208 NA 
HETATM    5  C   UNL     1      -9.937   9.994  65.214  1.00  0.00    -0.298 A  
HETATM    6  C   UNL     1     -10.082   8.263  66.770  1.00  0.00    -0.303 A  
HETATM    7  N   UNL     1     -10.508   9.453  66.309  1.00  0.00    -0.126 NA 
ENDROOT
BRANCH   5   8
HETATM    8  N   UNL     1     -10.331  11.241  64.723  1.00  0.00    -0.288 NA 
HETATM    9  H   UNL     1     -10.487  11.281  63.716  1.00  0.00     0.000 HD 
BRANCH   8  10
HETATM   10  C   UNL     1     -10.542  12.444  65.409  1.00  0.00    -0.284 A  
HETATM   11  C   UNL     1      -9.564  12.996  66.227  1.00  0.00    -0.243 A  
HETATM   12  C   UNL     1     -12.070  14.199  66.158  1.00  0.00    -0.454 A  
HETATM   13  C   UNL     1     -11.095  14.702  67.016  1.00  0.00    -0.333 A  
HETATM   14  C   UNL     1      -9.827  14.108  67.018  1.00  0.00    -0.258 A  
HETATM   15  C   UNL     1     -11.795  13.075  65.360  1.00  0.00    -0.428 A  
BRANCH  13  16
HETATM   16  O   UNL     1     -11.448  15.748  67.840  1.00  0.00    -0.316 OA 
BRANCH  16  17
HETATM   17  C   UNL     1     -11.301  15.416  69.222  1.00  0.00    -0.315 C  
BRANCH  17  18
HETATM   18  C   UNL     1     -12.567  14.869  69.882  1.00  0.00    -0.167 C  
BRANCH  18  19
HETATM   19  N   UNL     1     -12.760  15.538  71.178  1.00  0.00    -0.435 NA 
HETATM   20  C   UNL     1     -11.755  15.186  72.190  1.00  0.00    -0.414 C  
HETATM   21  C   UNL     1     -14.060  15.271  71.780  1.00  0.00    -0.555 C  
HETATM   22  C   UNL     1     -12.433  15.432  73.531  1.00  0.00    -0.666 C  
HETATM   23  C   UNL     1     -13.861  15.820  73.182  1.00  0.00    -0.379 C  
ENDBRANCH  18  19
ENDBRANCH  17  18
ENDBRANCH  16  17
ENDBRANCH  13  16
ENDBRANCH   8  10
ENDBRANCH   5   8
BRANCH   6  24
HETATM   24  N   UNL     1     -10.628   7.705  67.955  1.00  0.00    -0.365 NA 
HETATM   25  H   UNL     1     -11.195   6.874  67.788  1.00  0.00     0.000 HD 
BRANCH  24  26
HETATM   26  C   UNL     1     -10.547   8.066  69.323  1.00  0.00    -0.184 A  
HETATM   27  C   UNL     1     -10.117   9.310  69.795  1.00  0.00    -0.218 A  
HETATM   28  C   UNL     1     -10.762   7.063  70.286  1.00  0.00    -0.266 A  
HETATM   29  C   UNL     1      -9.897   9.550  71.162  1.00  0.00    -0.177 A  
HETATM   30  C   UNL     1     -10.053   8.526  72.094  1.00  0.00    -0.393 A  
HETATM   31  C   UNL     1     -10.464   7.272  71.645  1.00  0.00    -0.198 A  
BRANCH  31  32
HETATM   32  S   UNL     1     -10.653   5.944  72.809  1.00  0.00    -0.241 S  
HETATM   33  O   UNL     1     -10.462   6.507  74.129  1.00  0.00    -0.337 OA 
HETATM   34  O   UNL     1     -11.862   5.223  72.480  1.00  0.00    -0.149 OA 
BRANCH  32  35
HETATM   35  N   UNL     1      -9.325   4.944  72.558  1.00  0.00    -0.134 N  
HETATM   36  C   UNL     1      -7.879   3.109  71.849  1.00  0.00    -0.054 C  
HETATM   37  C   UNL     1     -10.185   2.604  72.598  1.00  0.00    -0.235 C  
HETATM   38  C   UNL     1      -9.782   3.790  70.404  1.00  0.00    -0.225 C  
HETATM   39  C   UNL     1      -9.331   3.637  71.856  1.00  0.00    -0.125 C  
HETATM   40  H   UNL     1      -8.429   5.267  72.924  1.00  0.00     0.000 HD 
ENDBRANCH  32  35
ENDBRANCH  31  32
ENDBRANCH  24  26
ENDBRANCH   6  24
TORSDOF 10
ENDMDL
MODEL       77
REMARK 921   NORMALIZED FREE ENERGY PREDICTED BY IDOCK:   -6.31 KCAL/MOL
REMARK 922        TOTAL FREE ENERGY PREDICTED BY IDOCK:  -11.35 KCAL/MOL
REMARK 923 INTER-LIGAND FREE ENERGY PREDICTED BY IDOCK:   -9.81 KCAL/MOL
REMARK 924 INTRA-LIGAND FREE ENERGY PREDICTED BY IDOCK:   -1.54 KCAL/MOL
REMARK 927      BINDING AFFINITY PREDICTED BY RF-SCORE:    0.00 PKD
ROOT
HETATM    1  C   UNL     1     -10.315   8.364  66.783  1.00  0.00    -0.357 C  
HETATM    2  C   UNL     1      -9.796   9.666  67.306  1.00  0.00    -0.225 A  
HETATM    3  C   UNL     1      -8.572  10.126  66.853  1.00  0.00    -0.126 A  
HETATM    4  N   UNL     1      -8.004  11.274  67.245  1.00  0.00    -0.134 NA 
HETATM    5  C   UNL     1      -8.672  11.981  68.156  1.00  0.00    -0.177 A  
HETATM    6  C   UNL     1     -10.467  10.494  68.205  1.00  0.00    -0.186 A  
HETATM    7  N   UNL     1      -9.883  11.628  68.632  1.00  0.00    -0.193 NA 
ENDROOT
BRANCH   5   8
HETATM    8  N   UNL     1      -8.019  13.135  68.597  1.00  0.00    -0.292 NA 
HETATM    9  H   UNL     1      -7.615  13.075  69.531  1.00  0.00     0.000 HD 
BRANCH   8  10
HETATM   10  C   UNL     1      -7.837  14.361  67.944  1.00  0.00    -0.150 A  
HETATM   11  C   UNL     1      -8.758  14.835  67.017  1.00  0.00    -0.258 A  
HETATM   12  C   UNL     1      -6.396  16.255  67.387  1.00  0.00    -0.206 A  
HETATM   13  C   UNL     1      -7.303  16.680  66.421  1.00  0.00    -0.181 A  
HETATM   14  C   UNL     1      -8.504  15.977  66.267  1.00  0.00    -0.337 A  
HETATM   15  C   UNL     1      -6.661  15.100  68.143  1.00  0.00    -0.132 A  
BRANCH  13  16
HETATM   16  O   UNL     1      -6.951  17.766  65.648  1.00  0.00    -0.412 OA 
BRANCH  16  17
HETATM   17  C   UNL     1      -6.593  18.898  66.444  1.00  0.00    -0.196 C  
BRANCH  17  18
HETATM   18  C   UNL     1      -7.420  20.154  66.168  1.00  0.00    -0.278 C  
BRANCH  18  19
HETATM   19  N   UNL     1      -8.648  20.107  66.978  1.00  0.00    -0.330 NA 
HETATM   20  C   UNL     1      -8.512  19.354  68.231  1.00  0.00    -0.341 C  
HETATM   21  C   UNL     1      -9.785  19.529  66.272  1.00  0.00    -0.402 C  
HETATM   22  C   UNL     1      -9.921  18.895  68.578  1.00  0.00    -0.463 C  
HETATM   23  C   UNL     1     -10.779  19.342  67.406  1.00  0.00    -0.594 C  
ENDBRANCH  18  19
ENDBRANCH  17  18
ENDBRANCH  16  17
ENDBRANCH  13  16
ENDBRANCH   8  10
ENDBRANCH   5   8
BRANCH   6  24
HETATM   24  N   UNL     1     -11.713  10.073  68.738  1.00  0.00    -0.509 NA 
HETATM   25  H   UNL     1     -12.463  10.049  68.047  1.00  0.00     0.000 HD 
BRANCH  24  26
HETATM   26  C   UNL     1     -12.130   9.679  70.034  1.00  0.00     0.201 A  
HETATM   27  C   UNL     1     -12.965  10.432  70.866  1.00  0.00    -0.475 A  
HETATM   28  C   UNL     1     -11.545   8.529  70.596  1.00  0.00    -0.214 A  
HETATM   29  C   UNL     1     -13.204  10.068  72.202  1.00  0.00    -0.489 A  
HETATM   30  C   UNL     1     -12.565   8.962  72.760  1.00  0.00    -0.105 A  
HETATM   31  C   UNL     1     -11.714   8.207  71.956  1.00  0.00    -0.332 A  
BRANCH  31  32
HETATM   32  S   UNL     1     -10.873   6.804  72.646  1.00  0.00    -0.263 S  
HETATM   33  O   UNL     1     -10.309   7.227  73.911  1.00  0.00    -0.352 OA 
HETATM   34  O   UNL     1     -11.762   5.665  72.577  1.00  0.00    -0.297 OA 
BRANCH  32  35
HETATM   35  N   UNL     1      -9.553   6.540  71.639  1.00  0.00    -0.161 N  
HETATM   36  C   UNL     1      -8.039   5.616  69.961  1.00  0.00    -0.106 C  
HETATM   37  C   UNL     1      -9.335   4.068  71.395  1.00  0.00    -0.212 C  
HETATM   38  C   UNL     1     -10.493   5.439  69.617  1.00  0.00    -0.361 C  
HETATM   39  C   UNL     1      -9.393   5.420  70.678  1.00  0.00    -0.162 C  
HETATM   40  H   UNL     1      -8.789   7.213  71.694  1.00  0.00     0.000 HD 
ENDBRANCH  32  35
ENDBRANCH  31  32
ENDBRANCH  24  26
ENDBRANCH   6  24
TORSDOF 10
ENDMDL
MODEL       78
REMARK 921   NORMALIZED FREE ENERGY PREDICTED BY IDOCK:   -6.30 KCAL/MOL
REMARK 922        TOTAL FREE ENERGY PREDICTED BY IDOCK:  -11.32 KCAL/MOL
REMARK 923 INTER-LIGAND FREE ENERGY PREDICTED BY IDOCK:   -9.23 KCAL/MOL
REMARK 924 INTRA-LIGAND FREE ENERGY PREDICTED BY IDOCK:   -2.10 KCAL/MOL
REMARK 927      BINDING AFFINITY PREDICTED BY RF-SCORE:    0.00 PKD
ROOT
HETATM    1  C   UNL     1     -10.947  12.182  63.430  1.00  0.00    -0.480 C  
HETATM    2  C   UNL     1     -11.019  12.148  64.924  1.00  0.00    -0.355 A  
HETATM    3  C   UNL     1     -12.143  12.659  65.549  1.00  0.00    -0.458 A  
HETATM    4  N   UNL     1     -12.325  12.684  66.875  1.00  0.00    -0.340 NA 
HETATM    5  C   UNL     1     -11.324  12.207  67.616  1.00  0.00    -0.314 A  
HETATM    6  C   UNL     1     -10.046  11.605  65.762  1.00  0.00    -0.240 A  
HETATM    7  N   UNL     1     -10.206  11.663  67.096  1.00  0.00    -0.210 NA 
ENDROOT
BRANCH   5   8
HETATM    8  N   UNL     1     -11.514  12.315  68.996  1.00  0.00    -0.275 NA 
HETATM    9  H   UNL     1     -11.646  13.264  69.343  1.00  0.00     0.000 HD 
BRANCH   8  10
HETATM   10  C   UNL     1     -11.550  11.310  69.972  1.00  0.00    -0.321 A  
HETATM   11  C   UNL     1     -10.566  10.332  70.045  1.00  0.00    -0.321 A  
HETATM   12  C   UNL     1     -12.769  10.127  71.730  1.00  0.00    -0.534 A  
HETATM   13  C   UNL     1     -11.801   9.126  71.747  1.00  0.00    -0.383 A  
HETATM   14  C   UNL     1     -10.681   9.257  70.918  1.00  0.00    -0.371 A  
HETATM   15  C   UNL     1     -12.645  11.212  70.845  1.00  0.00    -0.483 A  
BRANCH  13  16
HETATM   16  O   UNL     1     -12.020   8.041  72.568  1.00  0.00    -0.358 OA 
BRANCH  16  17
HETATM   17  C   UNL     1     -10.808   7.557  73.151  1.00  0.00    -0.395 C  
BRANCH  17  18
HETATM   18  C   UNL     1     -10.642   6.037  73.101  1.00  0.00    -0.246 C  
BRANCH  18  19
HETATM   19  N   UNL     1      -9.208   5.714  73.030  1.00  0.00    -0.137 NA 
HETATM   20  C   UNL     1      -8.462   6.507  72.044  1.00  0.00    -0.114 C  
HETATM   21  C   UNL     1      -8.945   4.315  72.717  1.00  0.00    -0.106 C  
HETATM   22  C   UNL     1      -7.255   5.656  71.676  1.00  0.00    -0.082 C  
HETATM   23  C   UNL     1      -7.455   4.347  72.424  1.00  0.00    -0.077 C  
ENDBRANCH  18  19
ENDBRANCH  17  18
ENDBRANCH  16  17
ENDBRANCH  13  16
ENDBRANCH   8  10
ENDBRANCH   5   8
BRANCH   6  24
HETATM   24  N   UNL     1      -8.850  11.091  65.195  1.00  0.00    -0.330 NA 
HETATM   25  H   UNL     1      -8.248  11.812  64.797  1.00  0.00     0.000 HD 
BRANCH  24  26
HETATM   26  C   UNL     1      -8.321   9.783  65.069  1.00  0.00    -0.145 A  
HETATM   27  C   UNL     1      -8.210   9.081  63.865  1.00  0.00    -0.172 A  
HETATM   28  C   UNL     1      -8.028   9.071  66.247  1.00  0.00    -0.103 A  
HETATM   29  C   UNL     1      -7.836   7.727  63.827  1.00  0.00    -0.132 A  
HETATM   30  C   UNL     1      -7.613   7.021  65.008  1.00  0.00    -0.104 A  
HETATM   31  C   UNL     1      -7.735   7.695  66.222  1.00  0.00    -0.089 A  
BRANCH  31  32
HETATM   32  S   UNL     1      -7.475   6.816  67.742  1.00  0.00    -0.100 S  
HETATM   33  O   UNL     1      -7.229   5.432  67.394  1.00  0.00    -0.072 OA 
HETATM   34  O   UNL     1      -6.523   7.559  68.537  1.00  0.00    -0.042 OA 
BRANCH  32  35
HETATM   35  N   UNL     1      -8.967   6.819  68.516  1.00  0.00    -0.122 N  
HETATM   36  C   UNL     1     -11.180   6.187  69.334  1.00  0.00    -0.466 C  
HETATM   37  C   UNL     1     -10.547   5.612  67.009  1.00  0.00    -0.358 C  
HETATM   38  C   UNL     1      -9.469   4.425  68.961  1.00  0.00    -0.237 C  
HETATM   39  C   UNL     1     -10.001   5.756  68.433  1.00  0.00    -0.153 C  
HETATM   40  H   UNL     1      -9.184   7.628  69.098  1.00  0.00     0.000 HD 
ENDBRANCH  32  35
ENDBRANCH  31  32
ENDBRANCH  24  26
ENDBRANCH   6  24
TORSDOF 10
ENDMDL
MODEL       79
REMARK 921   NORMALIZED FREE ENERGY PREDICTED BY IDOCK:   -6.30 KCAL/MOL
REMARK 922        TOTAL FREE ENERGY PREDICTED BY IDOCK:  -11.32 KCAL/MOL
REMARK 923 INTER-LIGAND FREE ENERGY PREDICTED BY IDOCK:   -9.55 KCAL/MOL
REMARK 924 INTRA-LIGAND FREE ENERGY PREDICTED BY IDOCK:   -1.77 KCAL/MOL
REMARK 927      BINDING AFFINITY PREDICTED BY RF-SCORE:    0.00 PKD
ROOT
HETATM    1  C   UNL     1      -5.513   8.306  69.197  1.00  0.00    -0.031 C  
HETATM    2  C   UNL     1      -6.590   8.488  68.176  1.00  0.00    -0.061 A  
HETATM    3  C   UNL     1      -6.245   8.948  66.917  1.00  0.00    -0.059 A  
HETATM    4  N   UNL     1      -7.116   9.149  65.920  1.00  0.00    -0.088 NA 
HETATM    5  C   UNL     1      -8.398   8.911  66.201  1.00  0.00    -0.122 A  
HETATM    6  C   UNL     1      -7.939   8.195  68.371  1.00  0.00    -0.123 A  
HETATM    7  N   UNL     1      -8.824   8.432  67.387  1.00  0.00    -0.134 NA 
ENDROOT
BRANCH   5   8
HETATM    8  N   UNL     1      -9.288   9.200  65.164  1.00  0.00    -0.445 NA 
HETATM    9  H   UNL     1      -9.438   8.443  64.497  1.00  0.00     0.000 HD 
BRANCH   8  10
HETATM   10  C   UNL     1     -10.006  10.375  64.906  1.00  0.00    -0.339 A  
HETATM   11  C   UNL     1     -10.725  11.022  65.903  1.00  0.00    -0.226 A  
HETATM   12  C   UNL     1     -10.927  11.967  63.296  1.00  0.00    -0.399 A  
HETATM   13  C   UNL     1     -11.686  12.565  64.298  1.00  0.00    -0.382 A  
HETATM   14  C   UNL     1     -11.551  12.101  65.613  1.00  0.00    -0.409 A  
HETATM   15  C   UNL     1     -10.093  10.877  63.598  1.00  0.00    -0.414 A  
BRANCH  13  16
HETATM   16  O   UNL     1     -12.553  13.570  63.929  1.00  0.00    -0.681 OA 
BRANCH  16  17
HETATM   17  C   UNL     1     -12.449  14.709  64.786  1.00  0.00    -0.273 C  
BRANCH  17  18
HETATM   18  C   UNL     1     -11.173  15.531  64.598  1.00  0.00    -0.371 C  
BRANCH  18  19
HETATM   19  N   UNL     1     -10.669  15.943  65.917  1.00  0.00    -0.317 NA 
HETATM   20  C   UNL     1     -10.396  17.382  66.032  1.00  0.00    -0.304 C  
HETATM   21  C   UNL     1      -9.445  15.259  66.310  1.00  0.00    -0.309 C  
HETATM   22  C   UNL     1      -9.357  17.506  67.137  1.00  0.00    -0.250 C  
HETATM   23  C   UNL     1      -9.020  16.074  67.520  1.00  0.00    -0.201 C  
ENDBRANCH  18  19
ENDBRANCH  17  18
ENDBRANCH  16  17
ENDBRANCH  13  16
ENDBRANCH   8  10
ENDBRANCH   5   8
BRANCH   6  24
HETATM   24  N   UNL     1      -8.374   7.748  69.647  1.00  0.00    -0.127 NA 
HETATM   25  H   UNL     1      -7.906   6.898  69.961  1.00  0.00     0.000 HD 
BRANCH  24  26
HETATM   26  C   UNL     1      -9.326   8.242  70.574  1.00  0.00    -0.159 A  
HETATM   27  C   UNL     1      -9.601   7.663  71.817  1.00  0.00    -0.183 A  
HETATM   28  C   UNL     1     -10.168   9.292  70.163  1.00  0.00    -0.251 A  
HETATM   29  C   UNL     1     -10.672   8.098  72.617  1.00  0.00    -0.421 A  
HETATM   30  C   UNL     1     -11.533   9.095  72.164  1.00  0.00    -0.238 A  
HETATM   31  C   UNL     1     -11.290   9.674  70.920  1.00  0.00    -0.360 A  
BRANCH  31  32
HETATM   32  S   UNL     1     -12.383  10.934  70.311  1.00  0.00    -0.321 S  
HETATM   33  O   UNL     1     -12.353  10.859  68.865  1.00  0.00    -0.486 OA 
HETATM   34  O   UNL     1     -13.634  10.833  71.030  1.00  0.00     0.048 OA 
BRANCH  32  35
HETATM   35  N   UNL     1     -11.638  12.390  70.695  1.00  0.00    -0.281 N  
HETATM   36  C   UNL     1     -11.133  14.767  70.939  1.00  0.00    -0.051 C  
HETATM   37  C   UNL     1     -12.167  13.966  68.836  1.00  0.00    -0.257 C  
HETATM   38  C   UNL     1     -13.500  14.013  70.981  1.00  0.00    -0.178 C  
HETATM   39  C   UNL     1     -12.133  13.747  70.352  1.00  0.00    -0.350 C  
HETATM   40  H   UNL     1     -10.761  12.337  71.214  1.00  0.00     0.000 HD 
ENDBRANCH  32  35
ENDBRANCH  31  32
ENDBRANCH  24  26
ENDBRANCH   6  24
TORSDOF 10
ENDMDL
MODEL       80
REMARK 921   NORMALIZED FREE ENERGY PREDICTED BY IDOCK:   -6.29 KCAL/MOL
REMARK 922        TOTAL FREE ENERGY PREDICTED BY IDOCK:  -11.32 KCAL/MOL
REMARK 923 INTER-LIGAND FREE ENERGY PREDICTED BY IDOCK:  -10.57 KCAL/MOL
REMARK 924 INTRA-LIGAND FREE ENERGY PREDICTED BY IDOCK:   -0.74 KCAL/MOL
REMARK 927      BINDING AFFINITY PREDICTED BY RF-SCORE:    0.00 PKD
ROOT
HETATM    1  C   UNL     1      -6.466   7.578  67.122  1.00  0.00    -0.061 C  
HETATM    2  C   UNL     1      -7.829   8.192  67.168  1.00  0.00    -0.101 A  
HETATM    3  C   UNL     1      -8.002   9.469  66.663  1.00  0.00    -0.108 A  
HETATM    4  N   UNL     1      -9.171  10.123  66.646  1.00  0.00    -0.153 NA 
HETATM    5  C   UNL     1     -10.210   9.487  67.187  1.00  0.00    -0.242 A  
HETATM    6  C   UNL     1      -8.976   7.565  67.653  1.00  0.00    -0.127 A  
HETATM    7  N   UNL     1     -10.143   8.232  67.674  1.00  0.00    -0.193 NA 
ENDROOT
BRANCH   5   8
HETATM    8  N   UNL     1     -11.396  10.224  67.219  1.00  0.00    -0.378 NA 
HETATM    9  H   UNL     1     -12.246   9.687  67.044  1.00  0.00     0.000 HD 
BRANCH   8  10
HETATM   10  C   UNL     1     -11.591  11.591  67.456  1.00  0.00    -0.246 A  
HETATM   11  C   UNL     1     -11.864  12.476  66.420  1.00  0.00    -0.445 A  
HETATM   12  C   UNL     1     -11.462  13.503  68.973  1.00  0.00    -0.349 A  
HETATM   13  C   UNL     1     -11.678  14.378  67.912  1.00  0.00    -0.356 A  
HETATM   14  C   UNL     1     -11.912  13.849  66.638  1.00  0.00    -0.474 A  
HETATM   15  C   UNL     1     -11.416  12.117  68.745  1.00  0.00    -0.359 A  
BRANCH  13  16
HETATM   16  O   UNL     1     -11.622  15.730  68.178  1.00  0.00    -0.344 OA 
BRANCH  16  17
HETATM   17  C   UNL     1     -10.766  16.024  69.284  1.00  0.00    -0.275 C  
BRANCH  17  18
HETATM   18  C   UNL     1     -11.472  16.660  70.482  1.00  0.00     0.201 C  
BRANCH  18  19
HETATM   19  N   UNL     1     -12.124  15.603  71.270  1.00  0.00    -0.373 NA 
HETATM   20  C   UNL     1     -13.554  15.434  70.980  1.00  0.00    -0.395 C  
HETATM   21  C   UNL     1     -12.017  15.805  72.709  1.00  0.00    -0.492 C  
HETATM   22  C   UNL     1     -14.148  14.817  72.238  1.00  0.00    -0.587 C  
HETATM   23  C   UNL     1     -12.999  14.770  73.232  1.00  0.00    -0.608 C  
ENDBRANCH  18  19
ENDBRANCH  17  18
ENDBRANCH  16  17
ENDBRANCH  13  16
ENDBRANCH   8  10
ENDBRANCH   5   8
BRANCH   6  24
HETATM   24  N   UNL     1      -8.871   6.266  68.216  1.00  0.00    -0.115 NA 
HETATM   25  H   UNL     1      -8.537   5.563  67.556  1.00  0.00     0.000 HD 
BRANCH  24  26
HETATM   26  C   UNL     1      -9.134   5.745  69.508  1.00  0.00    -0.130 A  
HETATM   27  C   UNL     1      -9.306   4.389  69.799  1.00  0.00    -0.224 A  
HETATM   28  C   UNL     1      -9.398   6.656  70.548  1.00  0.00    -0.167 A  
HETATM   29  C   UNL     1      -9.733   3.950  71.065  1.00  0.00    -0.252 A  
HETATM   30  C   UNL     1     -10.051   4.870  72.062  1.00  0.00    -0.256 A  
HETATM   31  C   UNL     1      -9.905   6.229  71.789  1.00  0.00    -0.163 A  
BRANCH  31  32
HETATM   32  S   UNL     1     -10.321   7.423  73.035  1.00  0.00    -0.342 S  
HETATM   33  O   UNL     1     -10.112   6.787  74.319  1.00  0.00    -0.338 OA 
HETATM   34  O   UNL     1      -9.658   8.666  72.709  1.00  0.00    -0.224 OA 
BRANCH  32  35
HETATM   35  N   UNL     1     -11.985   7.631  72.910  1.00  0.00    -0.593 N  
HETATM   36  C   UNL     1     -14.229   8.083  72.059  1.00  0.00    -0.465 C  
HETATM   37  C   UNL     1     -12.344   9.495  71.292  1.00  0.00    -0.430 C  
HETATM   38  C   UNL     1     -12.528   7.089  70.545  1.00  0.00    -0.085 C  
HETATM   39  C   UNL     1     -12.726   8.069  71.701  1.00  0.00    -0.326 C  
HETATM   40  H   UNL     1     -12.538   7.438  73.745  1.00  0.00     0.000 HD 
ENDBRANCH  32  35
ENDBRANCH  31  32
ENDBRANCH  24  26
ENDBRANCH   6  24
TORSDOF 10
ENDMDL
MODEL       81
REMARK 921   NORMALIZED FREE ENERGY PREDICTED BY IDOCK:   -6.29 KCAL/MOL
REMARK 922        TOTAL FREE ENERGY PREDICTED BY IDOCK:  -11.31 KCAL/MOL
REMARK 923 INTER-LIGAND FREE ENERGY PREDICTED BY IDOCK:  -10.27 KCAL/MOL
REMARK 924 INTRA-LIGAND FREE ENERGY PREDICTED BY IDOCK:   -1.04 KCAL/MOL
REMARK 927      BINDING AFFINITY PREDICTED BY RF-SCORE:    0.00 PKD
ROOT
HETATM    1  C   UNL     1     -11.846  17.163  73.316  1.00  0.00     0.352 C  
HETATM    2  C   UNL     1     -12.267  15.843  72.753  1.00  0.00    -0.604 A  
HETATM    3  C   UNL     1     -12.943  14.955  73.571  1.00  0.00    -0.388 A  
HETATM    4  N   UNL     1     -13.373  13.747  73.184  1.00  0.00    -0.454 NA 
HETATM    5  C   UNL     1     -13.084  13.393  71.931  1.00  0.00    -0.383 A  
HETATM    6  C   UNL     1     -12.064  15.430  71.437  1.00  0.00    -0.373 A  
HETATM    7  N   UNL     1     -12.457  14.202  71.054  1.00  0.00    -0.345 NA 
ENDROOT
BRANCH   5   8
HETATM    8  N   UNL     1     -13.481  12.100  71.581  1.00  0.00    -0.132 NA 
HETATM    9  H   UNL     1     -14.470  11.996  71.354  1.00  0.00     0.000 HD 
BRANCH   8  10
HETATM   10  C   UNL     1     -12.721  10.926  71.497  1.00  0.00    -0.428 A  
HETATM   11  C   UNL     1     -11.697  10.788  70.567  1.00  0.00    -0.449 A  
HETATM   12  C   UNL     1     -12.389   8.585  72.116  1.00  0.00    -0.444 A  
HETATM   13  C   UNL     1     -11.407   8.450  71.139  1.00  0.00    -0.268 A  
HETATM   14  C   UNL     1     -11.044   9.575  70.388  1.00  0.00    -0.330 A  
HETATM   15  C   UNL     1     -13.044   9.816  72.293  1.00  0.00    -0.445 A  
BRANCH  13  16
HETATM   16  O   UNL     1     -10.862   7.199  70.949  1.00  0.00    -0.235 OA 
BRANCH  16  17
HETATM   17  C   UNL     1     -11.187   6.305  72.016  1.00  0.00    -0.281 C  
BRANCH  17  18
HETATM   18  C   UNL     1     -10.050   5.370  72.430  1.00  0.00    -0.182 C  
BRANCH  18  19
HETATM   19  N   UNL     1     -10.105   4.153  71.604  1.00  0.00    -0.164 NA 
HETATM   20  C   UNL     1      -9.946   2.906  72.363  1.00  0.00    -0.165 C  
HETATM   21  C   UNL     1      -9.101   4.124  70.548  1.00  0.00    -0.109 C  
HETATM   22  C   UNL     1      -9.414   1.892  71.360  1.00  0.00    -0.195 C  
HETATM   23  C   UNL     1      -9.201   2.682  70.079  1.00  0.00    -0.202 C  
ENDBRANCH  18  19
ENDBRANCH  17  18
ENDBRANCH  16  17
ENDBRANCH  13  16
ENDBRANCH   8  10
ENDBRANCH   5   8
BRANCH   6  24
HETATM   24  N   UNL     1     -11.348  16.274  70.548  1.00  0.00    -0.473 NA 
HETATM   25  H   UNL     1     -11.072  17.163  70.965  1.00  0.00     0.000 HD 
BRANCH  24  26
HETATM   26  C   UNL     1     -10.938  16.135  69.198  1.00  0.00    -0.309 A  
HETATM   27  C   UNL     1     -10.682  17.200  68.330  1.00  0.00    -0.347 A  
HETATM   28  C   UNL     1     -10.935  14.844  68.637  1.00  0.00    -0.263 A  
HETATM   29  C   UNL     1     -10.444  16.999  66.959  1.00  0.00    -0.279 A  
HETATM   30  C   UNL     1     -10.509  15.720  66.410  1.00  0.00    -0.307 A  
HETATM   31  C   UNL     1     -10.781  14.644  67.253  1.00  0.00    -0.290 A  
BRANCH  31  32
HETATM   32  S   UNL     1     -10.889  13.007  66.576  1.00  0.00    -0.282 S  
HETATM   33  O   UNL     1     -12.224  12.520  66.855  1.00  0.00    -0.511 OA 
HETATM   34  O   UNL     1     -10.384  13.043  65.222  1.00  0.00    -0.294 OA 
BRANCH  32  35
HETATM   35  N   UNL     1      -9.868  12.067  67.525  1.00  0.00    -0.184 N  
HETATM   36  C   UNL     1      -7.911  10.916  68.423  1.00  0.00    -0.127 C  
HETATM   37  C   UNL     1      -8.229  11.013  65.969  1.00  0.00    -0.129 C  
HETATM   38  C   UNL     1      -7.619  13.094  67.265  1.00  0.00    -0.090 C  
HETATM   39  C   UNL     1      -8.431  11.800  67.268  1.00  0.00    -0.160 C  
HETATM   40  H   UNL     1     -10.275  11.640  68.357  1.00  0.00     0.000 HD 
ENDBRANCH  32  35
ENDBRANCH  31  32
ENDBRANCH  24  26
ENDBRANCH   6  24
TORSDOF 10
ENDMDL
MODEL       82
REMARK 921   NORMALIZED FREE ENERGY PREDICTED BY IDOCK:   -6.28 KCAL/MOL
REMARK 922        TOTAL FREE ENERGY PREDICTED BY IDOCK:  -11.30 KCAL/MOL
REMARK 923 INTER-LIGAND FREE ENERGY PREDICTED BY IDOCK:  -10.18 KCAL/MOL
REMARK 924 INTRA-LIGAND FREE ENERGY PREDICTED BY IDOCK:   -1.12 KCAL/MOL
REMARK 927      BINDING AFFINITY PREDICTED BY RF-SCORE:    0.00 PKD
ROOT
HETATM    1  C   UNL     1     -11.768   9.338  71.793  1.00  0.00    -0.456 C  
HETATM    2  C   UNL     1     -11.545   9.799  70.388  1.00  0.00    -0.327 A  
HETATM    3  C   UNL     1     -12.347  10.807  69.882  1.00  0.00    -0.271 A  
HETATM    4  N   UNL     1     -12.244  11.305  68.643  1.00  0.00    -0.542 NA 
HETATM    5  C   UNL     1     -11.319  10.750  67.860  1.00  0.00    -0.299 A  
HETATM    6  C   UNL     1     -10.556   9.316  69.532  1.00  0.00    -0.224 A  
HETATM    7  N   UNL     1     -10.474   9.785  68.274  1.00  0.00    -0.205 NA 
ENDROOT
BRANCH   5   8
HETATM    8  N   UNL     1     -11.286  11.242  66.553  1.00  0.00    -0.318 NA 
HETATM    9  H   UNL     1     -11.458  10.549  65.824  1.00  0.00     0.000 HD 
BRANCH   8  10
HETATM   10  C   UNL     1     -11.053  12.545  66.096  1.00  0.00    -0.298 A  
HETATM   11  C   UNL     1      -9.883  13.226  66.408  1.00  0.00    -0.281 A  
HETATM   12  C   UNL     1     -11.889  14.590  65.050  1.00  0.00    -0.399 A  
HETATM   13  C   UNL     1     -10.734  15.271  65.423  1.00  0.00    -0.391 A  
HETATM   14  C   UNL     1      -9.717  14.566  66.078  1.00  0.00    -0.331 A  
HETATM   15  C   UNL     1     -12.048  13.234  65.386  1.00  0.00    -0.464 A  
BRANCH  13  16
HETATM   16  O   UNL     1     -10.671  16.620  65.147  1.00  0.00    -0.621 OA 
BRANCH  16  17
HETATM   17  C   UNL     1     -10.573  17.407  66.336  1.00  0.00    -0.192 C  
BRANCH  17  18
HETATM   18  C   UNL     1     -10.403  18.907  66.092  1.00  0.00    -0.460 C  
BRANCH  18  19
HETATM   19  N   UNL     1      -9.235  19.386  66.848  1.00  0.00    -0.309 NA 
HETATM   20  C   UNL     1      -7.944  18.951  66.298  1.00  0.00    -0.273 C  
HETATM   21  C   UNL     1      -9.244  18.980  68.247  1.00  0.00    -0.334 C  
HETATM   22  C   UNL     1      -6.977  18.982  67.472  1.00  0.00    -0.223 C  
HETATM   23  C   UNL     1      -7.832  19.345  68.675  1.00  0.00    -0.399 C  
ENDBRANCH  18  19
ENDBRANCH  17  18
ENDBRANCH  16  17
ENDBRANCH  13  16
ENDBRANCH   8  10
ENDBRANCH   5   8
BRANCH   6  24
HETATM   24  N   UNL     1      -9.715   8.259  69.970  1.00  0.00    -0.175 NA 
HETATM   25  H   UNL     1      -8.856   8.581  70.415  1.00  0.00     0.000 HD 
BRANCH  24  26
HETATM   26  C   UNL     1      -9.825   6.847  69.915  1.00  0.00    -0.165 A  
HETATM   27  C   UNL     1      -9.821   6.004  71.030  1.00  0.00    -0.220 A  
HETATM   28  C   UNL     1      -9.779   6.228  68.652  1.00  0.00    -0.137 A  
HETATM   29  C   UNL     1      -9.762   4.605  70.903  1.00  0.00    -0.262 A  
HETATM   30  C   UNL     1      -9.652   4.013  69.646  1.00  0.00    -0.270 A  
HETATM   31  C   UNL     1      -9.636   4.835  68.520  1.00  0.00    -0.156 A  
BRANCH  31  32
HETATM   32  S   UNL     1      -9.477   4.108  66.908  1.00  0.00    -0.201 S  
HETATM   33  O   UNL     1      -9.296   2.684  67.101  1.00  0.00    -0.154 OA 
HETATM   34  O   UNL     1     -10.550   4.610  66.078  1.00  0.00    -0.302 OA 
BRANCH  32  35
HETATM   35  N   UNL     1      -8.007   4.665  66.314  1.00  0.00    -0.102 N  
HETATM   36  C   UNL     1      -6.300   5.879  65.059  1.00  0.00    -0.037 C  
HETATM   37  C   UNL     1      -8.365   5.159  63.896  1.00  0.00    -0.131 C  
HETATM   38  C   UNL     1      -8.442   7.010  65.612  1.00  0.00    -0.144 C  
HETATM   39  C   UNL     1      -7.820   5.666  65.235  1.00  0.00    -0.100 C  
HETATM   40  H   UNL     1      -7.163   4.278  66.736  1.00  0.00     0.000 HD 
ENDBRANCH  32  35
ENDBRANCH  31  32
ENDBRANCH  24  26
ENDBRANCH   6  24
TORSDOF 10
ENDMDL
MODEL       83
REMARK 921   NORMALIZED FREE ENERGY PREDICTED BY IDOCK:   -6.27 KCAL/MOL
REMARK 922        TOTAL FREE ENERGY PREDICTED BY IDOCK:  -11.28 KCAL/MOL
REMARK 923 INTER-LIGAND FREE ENERGY PREDICTED BY IDOCK:   -9.40 KCAL/MOL
REMARK 924 INTRA-LIGAND FREE ENERGY PREDICTED BY IDOCK:   -1.88 KCAL/MOL
REMARK 927      BINDING AFFINITY PREDICTED BY RF-SCORE:    0.00 PKD
ROOT
HETATM    1  C   UNL     1     -10.563  19.530  66.896  1.00  0.00    -0.602 C  
HETATM    2  C   UNL     1      -9.509  18.632  67.462  1.00  0.00    -0.311 A  
HETATM    3  C   UNL     1      -8.180  18.986  67.309  1.00  0.00    -0.274 A  
HETATM    4  N   UNL     1      -7.149  18.268  67.772  1.00  0.00    -0.211 NA 
HETATM    5  C   UNL     1      -7.455  17.125  68.387  1.00  0.00    -0.227 A  
HETATM    6  C   UNL     1      -9.753  17.461  68.176  1.00  0.00    -0.291 A  
HETATM    7  N   UNL     1      -8.720  16.715  68.608  1.00  0.00    -0.241 NA 
ENDROOT
BRANCH   5   8
HETATM    8  N   UNL     1      -6.356  16.365  68.793  1.00  0.00    -0.130 NA 
HETATM    9  H   UNL     1      -5.512  16.898  69.001  1.00  0.00     0.000 HD 
BRANCH   8  10
HETATM   10  C   UNL     1      -6.243  14.978  68.956  1.00  0.00    -0.098 A  
HETATM   11  C   UNL     1      -5.821  14.419  70.156  1.00  0.00    -0.140 A  
HETATM   12  C   UNL     1      -6.208  12.740  67.974  1.00  0.00    -0.103 A  
HETATM   13  C   UNL     1      -5.730  12.207  69.168  1.00  0.00    -0.069 A  
HETATM   14  C   UNL     1      -5.570  13.057  70.269  1.00  0.00    -0.145 A  
HETATM   15  C   UNL     1      -6.461  14.118  67.868  1.00  0.00    -0.174 A  
BRANCH  13  16
HETATM   16  O   UNL     1      -5.414  10.866  69.188  1.00  0.00    -0.041 OA 
BRANCH  16  17
HETATM   17  C   UNL     1      -6.553  10.051  69.473  1.00  0.00    -0.055 C  
BRANCH  17  18
HETATM   18  C   UNL     1      -6.759   8.886  68.504  1.00  0.00    -0.060 C  
BRANCH  18  19
HETATM   19  N   UNL     1      -8.184   8.805  68.149  1.00  0.00    -0.114 NA 
HETATM   20  C   UNL     1      -8.939   7.810  68.921  1.00  0.00    -0.141 C  
HETATM   21  C   UNL     1      -8.414   8.495  66.743  1.00  0.00    -0.109 C  
HETATM   22  C   UNL     1     -10.125   7.436  68.043  1.00  0.00    -0.216 C  
HETATM   23  C   UNL     1      -9.902   8.190  66.742  1.00  0.00    -0.329 C  
ENDBRANCH  18  19
ENDBRANCH  17  18
ENDBRANCH  16  17
ENDBRANCH  13  16
ENDBRANCH   8  10
ENDBRANCH   5   8
BRANCH   6  24
HETATM   24  N   UNL     1     -11.091  17.017  68.346  1.00  0.00    -0.260 NA 
HETATM   25  H   UNL     1     -11.786  17.731  68.127  1.00  0.00     0.000 HD 
BRANCH  24  26
HETATM   26  C   UNL     1     -11.659  15.785  68.756  1.00  0.00    -0.395 A  
HETATM   27  C   UNL     1     -12.333  15.582  69.963  1.00  0.00    -0.345 A  
HETATM   28  C   UNL     1     -11.397  14.643  67.976  1.00  0.00    -0.329 A  
HETATM   29  C   UNL     1     -12.724  14.300  70.388  1.00  0.00    -0.355 A  
HETATM   30  C   UNL     1     -12.400  13.175  69.633  1.00  0.00    -0.129 A  
HETATM   31  C   UNL     1     -11.711  13.351  68.435  1.00  0.00    -0.355 A  
BRANCH  31  32
HETATM   32  S   UNL     1     -11.268  11.932  67.463  1.00  0.00    -0.317 S  
HETATM   33  O   UNL     1      -9.832  11.976  67.279  1.00  0.00    -0.190 OA 
HETATM   34  O   UNL     1     -11.904  10.770  68.043  1.00  0.00    -0.546 OA 
BRANCH  32  35
HETATM   35  N   UNL     1     -11.919  12.219  65.940  1.00  0.00    -0.370 N  
HETATM   36  C   UNL     1     -12.187  12.556  63.536  1.00  0.00    -0.652 C  
HETATM   37  C   UNL     1     -10.204  13.512  64.672  1.00  0.00    -0.341 C  
HETATM   38  C   UNL     1     -10.422  11.014  64.362  1.00  0.00    -0.422 C  
HETATM   39  C   UNL     1     -11.162  12.316  64.667  1.00  0.00    -0.315 C  
HETATM   40  H   UNL     1     -12.930  12.337  65.885  1.00  0.00     0.000 HD 
ENDBRANCH  32  35
ENDBRANCH  31  32
ENDBRANCH  24  26
ENDBRANCH   6  24
TORSDOF 10
ENDMDL
MODEL       84
REMARK 921   NORMALIZED FREE ENERGY PREDICTED BY IDOCK:   -6.25 KCAL/MOL
REMARK 922        TOTAL FREE ENERGY PREDICTED BY IDOCK:  -11.25 KCAL/MOL
REMARK 923 INTER-LIGAND FREE ENERGY PREDICTED BY IDOCK:   -9.86 KCAL/MOL
REMARK 924 INTRA-LIGAND FREE ENERGY PREDICTED BY IDOCK:   -1.39 KCAL/MOL
REMARK 927      BINDING AFFINITY PREDICTED BY RF-SCORE:    0.00 PKD
ROOT
HETATM    1  C   UNL     1     -11.917  13.061  63.374  1.00  0.00    -0.592 C  
HETATM    2  C   UNL     1     -11.066  11.928  63.853  1.00  0.00    -0.483 A  
HETATM    3  C   UNL     1     -10.283  11.249  62.936  1.00  0.00    -0.149 A  
HETATM    4  N   UNL     1      -9.480  10.222  63.241  1.00  0.00    -0.304 NA 
HETATM    5  C   UNL     1      -9.481   9.831  64.516  1.00  0.00    -0.202 A  
HETATM    6  C   UNL     1     -10.961  11.507  65.177  1.00  0.00    -0.234 A  
HETATM    7  N   UNL     1     -10.187  10.451  65.483  1.00  0.00    -0.271 NA 
ENDROOT
BRANCH   5   8
HETATM    8  N   UNL     1      -8.690   8.713  64.787  1.00  0.00    -0.377 NA 
HETATM    9  H   UNL     1      -7.991   8.493  64.078  1.00  0.00     0.000 HD 
BRANCH   8  10
HETATM   10  C   UNL     1      -8.714   7.849  65.890  1.00  0.00    -0.154 A  
HETATM   11  C   UNL     1      -7.953   8.099  67.025  1.00  0.00    -0.104 A  
HETATM   12  C   UNL     1      -9.359   5.705  66.869  1.00  0.00    -0.129 A  
HETATM   13  C   UNL     1      -8.544   5.946  67.972  1.00  0.00    -0.113 A  
HETATM   14  C   UNL     1      -7.867   7.169  68.055  1.00  0.00    -0.118 A  
HETATM   15  C   UNL     1      -9.442   6.650  65.833  1.00  0.00     0.107 A  
BRANCH  13  16
HETATM   16  O   UNL     1      -8.430   4.946  68.914  1.00  0.00    -0.083 OA 
BRANCH  16  17
HETATM   17  C   UNL     1      -9.706   4.445  69.319  1.00  0.00    -0.182 C  
BRANCH  17  18
HETATM   18  C   UNL     1      -9.999   4.588  70.813  1.00  0.00    -0.199 C  
BRANCH  18  19
HETATM   19  N   UNL     1     -10.444   5.964  71.085  1.00  0.00    -0.223 NA 
HETATM   20  C   UNL     1     -11.219   6.570  69.994  1.00  0.00    -0.393 C  
HETATM   21  C   UNL     1      -9.349   6.881  71.370  1.00  0.00    -0.156 C  
HETATM   22  C   UNL     1     -11.040   8.072  70.161  1.00  0.00    -0.191 C  
HETATM   23  C   UNL     1     -10.058   8.224  71.312  1.00  0.00    -0.249 C  
ENDBRANCH  18  19
ENDBRANCH  17  18
ENDBRANCH  16  17
ENDBRANCH  13  16
ENDBRANCH   8  10
ENDBRANCH   5   8
BRANCH   6  24
HETATM   24  N   UNL     1     -11.759  12.135  66.170  1.00  0.00    -0.522 NA 
HETATM   25  H   UNL     1     -12.684  11.717  66.271  1.00  0.00     0.000 HD 
BRANCH  24  26
HETATM   26  C   UNL     1     -11.533  13.223  67.050  1.00  0.00    -0.339 A  
HETATM   27  C   UNL     1     -11.988  13.287  68.370  1.00  0.00    -0.336 A  
HETATM   28  C   UNL     1     -10.949  14.390  66.523  1.00  0.00    -0.316 A  
HETATM   29  C   UNL     1     -11.880  14.461  69.136  1.00  0.00    -0.359 A  
HETATM   30  C   UNL     1     -11.357  15.625  68.576  1.00  0.00    -0.361 A  
HETATM   31  C   UNL     1     -10.914  15.590  67.256  1.00  0.00    -0.303 A  
BRANCH  31  32
HETATM   32  S   UNL     1     -10.261  17.064  66.512  1.00  0.00    -0.310 S  
HETATM   33  O   UNL     1     -10.657  17.048  65.119  1.00  0.00    -0.688 OA 
HETATM   34  O   UNL     1     -10.595  18.186  67.362  1.00  0.00    -0.400 OA 
BRANCH  32  35
HETATM   35  N   UNL     1      -8.594  16.853  66.501  1.00  0.00    -0.247 N  
HETATM   36  C   UNL     1      -6.235  16.824  67.132  1.00  0.00    -0.216 C  
HETATM   37  C   UNL     1      -7.632  18.763  67.783  1.00  0.00    -0.248 C  
HETATM   38  C   UNL     1      -7.970  16.515  68.884  1.00  0.00    -0.239 C  
HETATM   39  C   UNL     1      -7.653  17.245  67.580  1.00  0.00    -0.178 C  
HETATM   40  H   UNL     1      -8.190  16.414  65.674  1.00  0.00     0.000 HD 
ENDBRANCH  32  35
ENDBRANCH  31  32
ENDBRANCH  24  26
ENDBRANCH   6  24
TORSDOF 10
ENDMDL
MODEL       85
REMARK 921   NORMALIZED FREE ENERGY PREDICTED BY IDOCK:   -6.24 KCAL/MOL
REMARK 922        TOTAL FREE ENERGY PREDICTED BY IDOCK:  -11.24 KCAL/MOL
REMARK 923 INTER-LIGAND FREE ENERGY PREDICTED BY IDOCK:  -10.02 KCAL/MOL
REMARK 924 INTRA-LIGAND FREE ENERGY PREDICTED BY IDOCK:   -1.22 KCAL/MOL
REMARK 927      BINDING AFFINITY PREDICTED BY RF-SCORE:    0.00 PKD
ROOT
HETATM    1  C   UNL     1      -7.987   8.635  71.513  1.00  0.00    -0.178 C  
HETATM    2  C   UNL     1      -9.048   9.108  70.572  1.00  0.00    -0.284 A  
HETATM    3  C   UNL     1      -8.753  10.143  69.701  1.00  0.00    -0.158 A  
HETATM    4  N   UNL     1      -9.615  10.652  68.812  1.00  0.00    -0.179 NA 
HETATM    5  C   UNL     1     -10.841  10.127  68.813  1.00  0.00    -0.225 A  
HETATM    6  C   UNL     1     -10.327   8.564  70.465  1.00  0.00    -0.200 A  
HETATM    7  N   UNL     1     -11.210   9.098  69.602  1.00  0.00    -0.087 NA 
ENDROOT
BRANCH   5   8
HETATM    8  N   UNL     1     -11.737  10.728  67.926  1.00  0.00    -0.716 NA 
HETATM    9  H   UNL     1     -12.656  10.289  67.872  1.00  0.00     0.000 HD 
BRANCH   8  10
HETATM   10  C   UNL     1     -11.559  11.846  67.099  1.00  0.00    -0.290 A  
HETATM   11  C   UNL     1     -10.967  11.737  65.847  1.00  0.00    -0.354 A  
HETATM   12  C   UNL     1     -11.583  14.272  66.808  1.00  0.00    -0.407 A  
HETATM   13  C   UNL     1     -10.935  14.147  65.582  1.00  0.00    -0.308 A  
HETATM   14  C   UNL     1     -10.660  12.864  65.094  1.00  0.00    -0.321 A  
HETATM   15  C   UNL     1     -11.891  13.128  67.564  1.00  0.00    -0.409 A  
BRANCH  13  16
HETATM   16  O   UNL     1     -10.577  15.305  64.927  1.00  0.00    -0.407 OA 
BRANCH  16  17
HETATM   17  C   UNL     1     -10.485  16.418  65.818  1.00  0.00    -0.354 C  
BRANCH  17  18
HETATM   18  C   UNL     1      -9.059  16.784  66.231  1.00  0.00    -0.285 C  
BRANCH  18  19
HETATM   19  N   UNL     1      -9.094  18.012  67.041  1.00  0.00    -0.253 NA 
HETATM   20  C   UNL     1     -10.373  18.245  67.723  1.00  0.00    -0.401 C  
HETATM   21  C   UNL     1      -8.811  19.219  66.275  1.00  0.00    -0.326 C  
HETATM   22  C   UNL     1     -10.440  19.748  67.950  1.00  0.00    -0.531 C  
HETATM   23  C   UNL     1      -9.200  20.303  67.266  1.00  0.00    -0.523 C  
ENDBRANCH  18  19
ENDBRANCH  17  18
ENDBRANCH  16  17
ENDBRANCH  13  16
ENDBRANCH   8  10
ENDBRANCH   5   8
BRANCH   6  24
HETATM   24  N   UNL     1     -10.714   7.522  71.348  1.00  0.00    -0.222 NA 
HETATM   25  H   UNL     1     -11.248   7.849  72.153  1.00  0.00     0.000 HD 
BRANCH  24  26
HETATM   26  C   UNL     1     -10.510   6.119  71.339  1.00  0.00    -0.225 A  
HETATM   27  C   UNL     1     -10.687   5.282  72.445  1.00  0.00    -0.286 A  
HETATM   28  C   UNL     1      -9.942   5.540  70.190  1.00  0.00    -0.287 A  
HETATM   29  C   UNL     1     -10.306   3.929  72.420  1.00  0.00    -0.194 A  
HETATM   30  C   UNL     1      -9.686   3.390  71.294  1.00  0.00    -0.227 A  
HETATM   31  C   UNL     1      -9.482   4.210  70.186  1.00  0.00    -0.184 A  
BRANCH  31  32
HETATM   32  S   UNL     1      -8.677   3.553  68.747  1.00  0.00    -0.109 S  
HETATM   33  O   UNL     1      -7.369   3.094  69.165  1.00  0.00    -0.048 OA 
HETATM   34  O   UNL     1      -9.598   2.658  68.083  1.00  0.00    -0.199 OA 
BRANCH  32  35
HETATM   35  N   UNL     1      -8.384   4.881  67.759  1.00  0.00    -0.104 N  
HETATM   36  C   UNL     1      -8.433   6.482  65.915  1.00  0.00    -0.147 C  
HETATM   37  C   UNL     1      -8.528   4.059  65.409  1.00  0.00    -0.109 C  
HETATM   38  C   UNL     1     -10.495   5.219  66.489  1.00  0.00    -0.354 C  
HETATM   39  C   UNL     1      -8.972   5.124  66.417  1.00  0.00    -0.125 C  
HETATM   40  H   UNL     1      -7.742   5.589  68.115  1.00  0.00     0.000 HD 
ENDBRANCH  32  35
ENDBRANCH  31  32
ENDBRANCH  24  26
ENDBRANCH   6  24
TORSDOF 10
ENDMDL
MODEL       86
REMARK 921   NORMALIZED FREE ENERGY PREDICTED BY IDOCK:   -6.23 KCAL/MOL
REMARK 922        TOTAL FREE ENERGY PREDICTED BY IDOCK:  -11.22 KCAL/MOL
REMARK 923 INTER-LIGAND FREE ENERGY PREDICTED BY IDOCK:   -9.63 KCAL/MOL
REMARK 924 INTRA-LIGAND FREE ENERGY PREDICTED BY IDOCK:   -1.59 KCAL/MOL
REMARK 927      BINDING AFFINITY PREDICTED BY RF-SCORE:    0.00 PKD
ROOT
HETATM    1  C   UNL     1     -12.720  13.196  65.241  1.00  0.00    -0.457 C  
HETATM    2  C   UNL     1     -11.415  13.403  65.942  1.00  0.00    -0.344 A  
HETATM    3  C   UNL     1     -10.515  14.315  65.420  1.00  0.00    -0.365 A  
HETATM    4  N   UNL     1      -9.319  14.589  65.956  1.00  0.00    -0.219 NA 
HETATM    5  C   UNL     1      -8.989  13.896  67.046  1.00  0.00    -0.240 A  
HETATM    6  C   UNL     1     -11.029  12.769  67.122  1.00  0.00    -0.263 A  
HETATM    7  N   UNL     1      -9.812  13.010  67.642  1.00  0.00    -0.207 NA 
ENDROOT
BRANCH   5   8
HETATM    8  N   UNL     1      -7.707  14.152  67.538  1.00  0.00    -0.177 NA 
HETATM    9  H   UNL     1      -7.103  13.334  67.623  1.00  0.00     0.000 HD 
BRANCH   8  10
HETATM   10  C   UNL     1      -7.129  15.366  67.932  1.00  0.00    -0.140 A  
HETATM   11  C   UNL     1      -7.528  16.019  69.092  1.00  0.00    -0.216 A  
HETATM   12  C   UNL     1      -5.713  17.289  67.410  1.00  0.00    -0.159 A  
HETATM   13  C   UNL     1      -6.170  17.952  68.546  1.00  0.00    -0.189 A  
HETATM   14  C   UNL     1      -7.058  17.290  69.402  1.00  0.00    -0.076 A  
HETATM   15  C   UNL     1      -6.192  16.004  67.104  1.00  0.00    -0.079 A  
BRANCH  13  16
HETATM   16  O   UNL     1      -5.736  19.244  68.749  1.00  0.00    -0.204 OA 
BRANCH  16  17
HETATM   17  C   UNL     1      -6.825  20.164  68.859  1.00  0.00    -0.233 C  
BRANCH  17  18
HETATM   18  C   UNL     1      -7.252  20.803  67.536  1.00  0.00    -0.326 C  
BRANCH  18  19
HETATM   19  N   UNL     1      -8.649  20.436  67.256  1.00  0.00    -0.347 NA 
HETATM   20  C   UNL     1      -9.353  19.838  68.398  1.00  0.00    -0.314 C  
HETATM   21  C   UNL     1      -8.790  19.499  66.149  1.00  0.00    -0.309 C  
HETATM   22  C   UNL     1     -10.464  18.995  67.788  1.00  0.00    -0.499 C  
HETATM   23  C   UNL     1     -10.247  19.089  66.286  1.00  0.00    -0.510 C  
ENDBRANCH  18  19
ENDBRANCH  17  18
ENDBRANCH  16  17
ENDBRANCH  13  16
ENDBRANCH   8  10
ENDBRANCH   5   8
BRANCH   6  24
HETATM   24  N   UNL     1     -11.886  11.796  67.699  1.00  0.00    -0.603 NA 
HETATM   25  H   UNL     1     -12.730  11.622  67.152  1.00  0.00     0.000 HD 
BRANCH  24  26
HETATM   26  C   UNL     1     -11.810  11.015  68.880  1.00  0.00    -0.308 A  
HETATM   27  C   UNL     1     -12.785  10.990  69.882  1.00  0.00    -0.103 A  
HETATM   28  C   UNL     1     -10.607  10.336  69.148  1.00  0.00    -0.254 A  
HETATM   29  C   UNL     1     -12.575  10.329  71.105  1.00  0.00    -0.501 A  
HETATM   30  C   UNL     1     -11.353   9.717  71.377  1.00  0.00    -0.444 A  
HETATM   31  C   UNL     1     -10.360   9.744  70.400  1.00  0.00    -0.293 A  
BRANCH  31  32
HETATM   32  S   UNL     1      -8.787   8.988  70.729  1.00  0.00    -0.247 S  
HETATM   33  O   UNL     1      -8.675   8.850  72.166  1.00  0.00    -0.386 OA 
HETATM   34  O   UNL     1      -8.649   7.839  69.863  1.00  0.00    -0.134 OA 
BRANCH  32  35
HETATM   35  N   UNL     1      -7.643  10.144  70.305  1.00  0.00    -0.265 N  
HETATM   36  C   UNL     1      -5.801  11.325  69.222  1.00  0.00    -0.049 C  
HETATM   37  C   UNL     1      -5.587   8.895  69.650  1.00  0.00    -0.033 C  
HETATM   38  C   UNL     1      -7.188   9.749  67.893  1.00  0.00    -0.084 C  
HETATM   39  C   UNL     1      -6.585   9.995  69.275  1.00  0.00    -0.051 C  
HETATM   40  H   UNL     1      -7.679  11.033  70.804  1.00  0.00     0.000 HD 
ENDBRANCH  32  35
ENDBRANCH  31  32
ENDBRANCH  24  26
ENDBRANCH   6  24
TORSDOF 10
ENDMDL
MODEL       87
REMARK 921   NORMALIZED FREE ENERGY PREDICTED BY IDOCK:   -6.22 KCAL/MOL
REMARK 922        TOTAL FREE ENERGY PREDICTED BY IDOCK:  -11.20 KCAL/MOL
REMARK 923 INTER-LIGAND FREE ENERGY PREDICTED BY IDOCK:  -10.16 KCAL/MOL
REMARK 924 INTRA-LIGAND FREE ENERGY PREDICTED BY IDOCK:   -1.04 KCAL/MOL
REMARK 927      BINDING AFFINITY PREDICTED BY RF-SCORE:    0.00 PKD
ROOT
HETATM    1  C   UNL     1     -13.425  12.931  72.348  1.00  0.00    -0.573 C  
HETATM    2  C   UNL     1     -12.805  13.297  71.038  1.00  0.00    -0.311 A  
HETATM    3  C   UNL     1     -12.829  14.621  70.636  1.00  0.00    -0.342 A  
HETATM    4  N   UNL     1     -12.306  15.073  69.489  1.00  0.00    -0.213 NA 
HETATM    5  C   UNL     1     -11.762  14.156  68.688  1.00  0.00    -0.350 A  
HETATM    6  C   UNL     1     -12.157  12.409  70.181  1.00  0.00    -0.290 A  
HETATM    7  N   UNL     1     -11.666  12.850  69.009  1.00  0.00    -0.311 NA 
ENDROOT
BRANCH   5   8
HETATM    8  N   UNL     1     -11.292  14.647  67.468  1.00  0.00    -0.333 NA 
HETATM    9  H   UNL     1     -11.990  14.712  66.728  1.00  0.00     0.000 HD 
BRANCH   8  10
HETATM   10  C   UNL     1     -10.003  15.066  67.112  1.00  0.00    -0.237 A  
HETATM   11  C   UNL     1      -8.871  14.414  67.585  1.00  0.00    -0.193 A  
HETATM   12  C   UNL     1      -8.539  16.740  66.099  1.00  0.00    -0.299 A  
HETATM   13  C   UNL     1      -7.420  16.106  66.631  1.00  0.00    -0.165 A  
HETATM   14  C   UNL     1      -7.597  14.917  67.350  1.00  0.00    -0.232 A  
HETATM   15  C   UNL     1      -9.824  16.224  66.340  1.00  0.00    -0.310 A  
BRANCH  13  16
HETATM   16  O   UNL     1      -6.194  16.705  66.439  1.00  0.00    -0.266 OA 
BRANCH  16  17
HETATM   17  C   UNL     1      -6.318  18.009  65.866  1.00  0.00    -0.259 C  
BRANCH  17  18
HETATM   18  C   UNL     1      -5.848  19.148  66.771  1.00  0.00    -0.158 C  
BRANCH  18  19
HETATM   19  N   UNL     1      -7.015  19.737  67.446  1.00  0.00    -0.214 NA 
HETATM   20  C   UNL     1      -7.368  19.083  68.713  1.00  0.00    -0.331 C  
HETATM   21  C   UNL     1      -8.221  19.729  66.630  1.00  0.00    -0.323 C  
HETATM   22  C   UNL     1      -8.849  19.369  68.913  1.00  0.00    -0.331 C  
HETATM   23  C   UNL     1      -9.280  20.103  67.653  1.00  0.00    -0.461 C  
ENDBRANCH  18  19
ENDBRANCH  17  18
ENDBRANCH  16  17
ENDBRANCH  13  16
ENDBRANCH   8  10
ENDBRANCH   5   8
BRANCH   6  24
HETATM   24  N   UNL     1     -12.120  11.028  70.510  1.00  0.00    -0.348 NA 
HETATM   25  H   UNL     1     -13.041  10.632  70.700  1.00  0.00     0.000 HD 
BRANCH  24  26
HETATM   26  C   UNL     1     -11.067  10.088  70.630  1.00  0.00    -0.335 A  
HETATM   27  C   UNL     1      -9.964  10.015  69.774  1.00  0.00    -0.276 A  
HETATM   28  C   UNL     1     -11.207   9.054  71.574  1.00  0.00    -0.418 A  
HETATM   29  C   UNL     1      -9.042   8.956  69.841  1.00  0.00    -0.166 A  
HETATM   30  C   UNL     1      -9.233   7.907  70.740  1.00  0.00    -0.159 A  
HETATM   31  C   UNL     1     -10.336   7.949  71.591  1.00  0.00    -0.204 A  
BRANCH  31  32
HETATM   32  S   UNL     1     -10.613   6.618  72.731  1.00  0.00    -0.247 S  
HETATM   33  O   UNL     1     -10.472   7.165  74.065  1.00  0.00    -0.353 OA 
HETATM   34  O   UNL     1     -11.823   5.930  72.339  1.00  0.00    -0.311 OA 
BRANCH  32  35
HETATM   35  N   UNL     1      -9.300   5.587  72.536  1.00  0.00    -0.142 N  
HETATM   36  C   UNL     1      -7.884   3.690  71.938  1.00  0.00    -0.062 C  
HETATM   37  C   UNL     1     -10.187   3.266  72.743  1.00  0.00    -0.240 C  
HETATM   38  C   UNL     1      -9.795   4.295  70.470  1.00  0.00    -0.269 C  
HETATM   39  C   UNL     1      -9.329   4.235  71.924  1.00  0.00    -0.131 C  
HETATM   40  H   UNL     1      -8.396   5.922  72.870  1.00  0.00     0.000 HD 
ENDBRANCH  32  35
ENDBRANCH  31  32
ENDBRANCH  24  26
ENDBRANCH   6  24
TORSDOF 10
ENDMDL
MODEL       88
REMARK 921   NORMALIZED FREE ENERGY PREDICTED BY IDOCK:   -6.22 KCAL/MOL
REMARK 922        TOTAL FREE ENERGY PREDICTED BY IDOCK:  -11.20 KCAL/MOL
REMARK 923 INTER-LIGAND FREE ENERGY PREDICTED BY IDOCK:   -9.60 KCAL/MOL
REMARK 924 INTRA-LIGAND FREE ENERGY PREDICTED BY IDOCK:   -1.60 KCAL/MOL
REMARK 927      BINDING AFFINITY PREDICTED BY RF-SCORE:    0.00 PKD
ROOT
HETATM    1  C   UNL     1     -13.455  12.682  71.988  1.00  0.00    -0.516 C  
HETATM    2  C   UNL     1     -12.813  11.407  71.542  1.00  0.00    -0.508 A  
HETATM    3  C   UNL     1     -13.188  10.223  72.152  1.00  0.00    -0.340 A  
HETATM    4  N   UNL     1     -12.689   9.020  71.841  1.00  0.00    -0.354 NA 
HETATM    5  C   UNL     1     -11.746   9.000  70.898  1.00  0.00    -0.276 A  
HETATM    6  C   UNL     1     -11.874  11.297  70.518  1.00  0.00    -0.324 A  
HETATM    7  N   UNL     1     -11.339  10.098  70.228  1.00  0.00    -0.293 NA 
ENDROOT
BRANCH   5   8
HETATM    8  N   UNL     1     -11.194   7.742  70.648  1.00  0.00    -0.268 NA 
HETATM    9  H   UNL     1     -11.246   7.083  71.424  1.00  0.00     0.000 HD 
BRANCH   8  10
HETATM   10  C   UNL     1     -10.579   7.252  69.488  1.00  0.00    -0.234 A  
HETATM   11  C   UNL     1     -11.266   6.448  68.586  1.00  0.00    -0.338 A  
HETATM   12  C   UNL     1      -8.549   6.880  68.179  1.00  0.00    -0.123 A  
HETATM   13  C   UNL     1      -9.241   6.030  67.320  1.00  0.00    -0.114 A  
HETATM   14  C   UNL     1     -10.615   5.846  67.515  1.00  0.00    -0.347 A  
HETATM   15  C   UNL     1      -9.214   7.486  69.258  1.00  0.00    -0.144 A  
BRANCH  13  16
HETATM   16  O   UNL     1      -8.519   5.393  66.334  1.00  0.00    -0.112 OA 
BRANCH  16  17
HETATM   17  C   UNL     1      -8.322   6.226  65.190  1.00  0.00    -0.119 C  
BRANCH  17  18
HETATM   18  C   UNL     1      -6.875   6.668  64.968  1.00  0.00    -0.050 C  
BRANCH  18  19
HETATM   19  N   UNL     1      -6.829   8.136  64.879  1.00  0.00    -0.061 NA 
HETATM   20  C   UNL     1      -5.991   8.773  65.902  1.00  0.00    -0.051 C  
HETATM   21  C   UNL     1      -8.141   8.762  64.974  1.00  0.00    -0.144 C  
HETATM   22  C   UNL     1      -6.542  10.183  66.052  1.00  0.00    -0.102 C  
HETATM   23  C   UNL     1      -7.765  10.224  65.149  1.00  0.00    -0.136 C  
ENDBRANCH  18  19
ENDBRANCH  17  18
ENDBRANCH  16  17
ENDBRANCH  13  16
ENDBRANCH   8  10
ENDBRANCH   5   8
BRANCH   6  24
HETATM   24  N   UNL     1     -11.416  12.473  69.868  1.00  0.00    -0.515 NA 
HETATM   25  H   UNL     1     -11.125  13.207  70.514  1.00  0.00     0.000 HD 
BRANCH  24  26
HETATM   26  C   UNL     1     -11.280  12.836  68.504  1.00  0.00    -0.279 A  
HETATM   27  C   UNL     1     -11.245  11.931  67.439  1.00  0.00    -0.366 A  
HETATM   28  C   UNL     1     -11.002  14.182  68.203  1.00  0.00    -0.264 A  
HETATM   29  C   UNL     1     -10.938  12.339  66.129  1.00  0.00    -0.328 A  
HETATM   30  C   UNL     1     -10.603  13.665  65.861  1.00  0.00    -0.289 A  
HETATM   31  C   UNL     1     -10.612  14.581  66.911  1.00  0.00    -0.279 A  
BRANCH  31  32
HETATM   32  S   UNL     1     -10.170  16.272  66.601  1.00  0.00    -0.290 S  
HETATM   33  O   UNL     1     -10.458  16.537  65.207  1.00  0.00    -0.590 OA 
HETATM   34  O   UNL     1     -10.749  17.090  67.644  1.00  0.00    -0.342 OA 
BRANCH  32  35
HETATM   35  N   UNL     1      -8.494  16.322  66.723  1.00  0.00    -0.219 N  
HETATM   36  C   UNL     1      -6.217  16.652  67.540  1.00  0.00    -0.187 C  
HETATM   37  C   UNL     1      -7.944  18.346  68.072  1.00  0.00    -0.289 C  
HETATM   38  C   UNL     1      -8.016  16.062  69.149  1.00  0.00    -0.238 C  
HETATM   39  C   UNL     1      -7.713  16.844  67.872  1.00  0.00    -0.173 C  
HETATM   40  H   UNL     1      -7.963  15.957  65.932  1.00  0.00     0.000 HD 
ENDBRANCH  32  35
ENDBRANCH  31  32
ENDBRANCH  24  26
ENDBRANCH   6  24
TORSDOF 10
ENDMDL
MODEL       89
REMARK 921   NORMALIZED FREE ENERGY PREDICTED BY IDOCK:   -6.21 KCAL/MOL
REMARK 922        TOTAL FREE ENERGY PREDICTED BY IDOCK:  -11.19 KCAL/MOL
REMARK 923 INTER-LIGAND FREE ENERGY PREDICTED BY IDOCK:  -10.36 KCAL/MOL
REMARK 924 INTRA-LIGAND FREE ENERGY PREDICTED BY IDOCK:   -0.83 KCAL/MOL
REMARK 927      BINDING AFFINITY PREDICTED BY RF-SCORE:    0.00 PKD
ROOT
HETATM    1  C   UNL     1     -12.483  11.877  63.343  1.00  0.00    -0.582 C  
HETATM    2  C   UNL     1     -11.950  12.735  64.445  1.00  0.00    -0.464 A  
HETATM    3  C   UNL     1     -12.844  13.436  65.235  1.00  0.00    -0.334 A  
HETATM    4  N   UNL     1     -12.491  14.234  66.252  1.00  0.00    -0.399 NA 
HETATM    5  C   UNL     1     -11.182  14.365  66.470  1.00  0.00    -0.340 A  
HETATM    6  C   UNL     1     -10.603  12.869  64.779  1.00  0.00    -0.342 A  
HETATM    7  N   UNL     1     -10.240  13.699  65.772  1.00  0.00    -0.301 NA 
ENDROOT
BRANCH   5   8
HETATM    8  N   UNL     1     -10.845  15.260  67.488  1.00  0.00    -0.297 NA 
HETATM    9  H   UNL     1     -10.862  14.871  68.431  1.00  0.00     0.000 HD 
BRANCH   8  10
HETATM   10  C   UNL     1     -10.485  16.612  67.406  1.00  0.00    -0.314 A  
HETATM   11  C   UNL     1     -10.524  17.301  66.200  1.00  0.00    -0.279 A  
HETATM   12  C   UNL     1      -9.478  18.587  68.433  1.00  0.00    -0.368 A  
HETATM   13  C   UNL     1      -9.471  19.241  67.203  1.00  0.00    -0.323 A  
HETATM   14  C   UNL     1     -10.030  18.596  66.094  1.00  0.00    -0.355 A  
HETATM   15  C   UNL     1      -9.981  17.279  68.533  1.00  0.00    -0.320 A  
BRANCH  13  16
HETATM   16  O   UNL     1      -8.884  20.487  67.146  1.00  0.00    -0.344 OA 
BRANCH  16  17
HETATM   17  C   UNL     1      -7.463  20.417  67.279  1.00  0.00    -0.321 C  
BRANCH  17  18
HETATM   18  C   UNL     1      -6.812  19.248  66.539  1.00  0.00    -0.199 C  
BRANCH  18  19
HETATM   19  N   UNL     1      -6.698  19.588  65.112  1.00  0.00    -0.395 NA 
HETATM   20  C   UNL     1      -5.783  18.719  64.360  1.00  0.00    -0.185 C  
HETATM   21  C   UNL     1      -6.252  20.955  64.877  1.00  0.00    -0.252 C  
HETATM   22  C   UNL     1      -5.326  19.551  63.171  1.00  0.00    -0.344 C  
HETATM   23  C   UNL     1      -5.950  20.921  63.388  1.00  0.00    -0.328 C  
ENDBRANCH  18  19
ENDBRANCH  17  18
ENDBRANCH  16  17
ENDBRANCH  13  16
ENDBRANCH   8  10
ENDBRANCH   5   8
BRANCH   6  24
HETATM   24  N   UNL     1      -9.624  12.205  63.993  1.00  0.00    -0.536 NA 
HETATM   25  H   UNL     1      -9.304  12.755  63.195  1.00  0.00     0.000 HD 
BRANCH  24  26
HETATM   26  C   UNL     1      -9.001  10.936  64.089  1.00  0.00    -0.101 A  
HETATM   27  C   UNL     1      -8.320  10.303  63.045  1.00  0.00    -0.170 A  
HETATM   28  C   UNL     1      -9.208  10.184  65.260  1.00  0.00    -0.257 A  
HETATM   29  C   UNL     1      -7.871   8.974  63.150  1.00  0.00    -0.133 A  
HETATM   30  C   UNL     1      -8.142   8.225  64.293  1.00  0.00    -0.147 A  
HETATM   31  C   UNL     1      -8.836   8.829  65.340  1.00  0.00    -0.178 A  
BRANCH  31  32
HETATM   32  S   UNL     1      -9.211   7.891  66.799  1.00  0.00    -0.176 S  
HETATM   33  O   UNL     1     -10.610   8.115  67.100  1.00  0.00    -0.322 OA 
HETATM   34  O   UNL     1      -8.699   6.551  66.619  1.00  0.00    -0.120 OA 
BRANCH  32  35
HETATM   35  N   UNL     1      -8.366   8.646  68.040  1.00  0.00    -0.122 N  
HETATM   36  C   UNL     1      -7.793   9.849  70.087  1.00  0.00    -0.186 C  
HETATM   37  C   UNL     1      -9.764  10.577  68.774  1.00  0.00    -0.187 C  
HETATM   38  C   UNL     1      -9.809   8.397  70.050  1.00  0.00    -0.182 C  
HETATM   39  C   UNL     1      -8.959   9.347  69.207  1.00  0.00    -0.154 C  
HETATM   40  H   UNL     1      -7.348   8.621  67.987  1.00  0.00     0.000 HD 
ENDBRANCH  32  35
ENDBRANCH  31  32
ENDBRANCH  24  26
ENDBRANCH   6  24
TORSDOF 10
ENDMDL
MODEL       90
REMARK 921   NORMALIZED FREE ENERGY PREDICTED BY IDOCK:   -6.21 KCAL/MOL
REMARK 922        TOTAL FREE ENERGY PREDICTED BY IDOCK:  -11.18 KCAL/MOL
REMARK 923 INTER-LIGAND FREE ENERGY PREDICTED BY IDOCK:   -9.98 KCAL/MOL
REMARK 924 INTRA-LIGAND FREE ENERGY PREDICTED BY IDOCK:   -1.21 KCAL/MOL
REMARK 927      BINDING AFFINITY PREDICTED BY RF-SCORE:    0.00 PKD
ROOT
HETATM    1  C   UNL     1      -9.127  10.918  66.879  1.00  0.00    -0.164 C  
HETATM    2  C   UNL     1      -9.933  10.380  68.018  1.00  0.00    -0.178 A  
HETATM    3  C   UNL     1      -9.812   9.041  68.346  1.00  0.00    -0.166 A  
HETATM    4  N   UNL     1     -10.477   8.443  69.343  1.00  0.00    -0.220 NA 
HETATM    5  C   UNL     1     -11.329   9.209  70.025  1.00  0.00    -0.090 A  
HETATM    6  C   UNL     1     -10.791  11.131  68.820  1.00  0.00    -0.213 A  
HETATM    7  N   UNL     1     -11.491  10.528  69.797  1.00  0.00    -0.272 NA 
ENDROOT
BRANCH   5   8
HETATM    8  N   UNL     1     -12.060   8.540  71.009  1.00  0.00    -0.418 NA 
HETATM    9  H   UNL     1     -13.056   8.757  71.033  1.00  0.00     0.000 HD 
BRANCH   8  10
HETATM   10  C   UNL     1     -11.626   7.615  71.969  1.00  0.00    -0.291 A  
HETATM   11  C   UNL     1     -10.680   7.953  72.928  1.00  0.00    -0.440 A  
HETATM   12  C   UNL     1     -11.534   5.311  72.779  1.00  0.00    -0.317 A  
HETATM   13  C   UNL     1     -10.544   5.657  73.695  1.00  0.00    -0.280 A  
HETATM   14  C   UNL     1     -10.146   6.996  73.783  1.00  0.00    -0.390 A  
HETATM   15  C   UNL     1     -12.071   6.285  71.919  1.00  0.00    -0.311 A  
BRANCH  13  16
HETATM   16  O   UNL     1      -9.991   4.646  74.449  1.00  0.00    -0.155 OA 
BRANCH  16  17
HETATM   17  C   UNL     1      -8.601   4.466  74.169  1.00  0.00    -0.100 C  
BRANCH  17  18
HETATM   18  C   UNL     1      -8.289   3.311  73.216  1.00  0.00    -0.074 C  
BRANCH  18  19
HETATM   19  N   UNL     1      -7.697   3.854  71.983  1.00  0.00    -0.065 NA 
HETATM   20  C   UNL     1      -7.138   5.204  72.130  1.00  0.00    -0.083 C  
HETATM   21  C   UNL     1      -8.634   3.915  70.869  1.00  0.00    -0.072 C  
HETATM   22  C   UNL     1      -7.167   5.804  70.731  1.00  0.00    -0.079 C  
HETATM   23  C   UNL     1      -7.859   4.759  69.871  1.00  0.00    -0.062 C  
ENDBRANCH  18  19
ENDBRANCH  17  18
ENDBRANCH  16  17
ENDBRANCH  13  16
ENDBRANCH   8  10
ENDBRANCH   5   8
BRANCH   6  24
HETATM   24  N   UNL     1     -10.992  12.505  68.524  1.00  0.00    -0.238 NA 
HETATM   25  H   UNL     1     -10.782  13.124  69.307  1.00  0.00     0.000 HD 
BRANCH  24  26
HETATM   26  C   UNL     1     -11.424  13.194  67.363  1.00  0.00    -0.332 A  
HETATM   27  C   UNL     1     -12.206  12.632  66.349  1.00  0.00    -0.174 A  
HETATM   28  C   UNL     1     -10.909  14.482  67.127  1.00  0.00    -0.296 A  
HETATM   29  C   UNL     1     -12.459  13.312  65.145  1.00  0.00    -0.525 A  
HETATM   30  C   UNL     1     -11.887  14.559  64.903  1.00  0.00    -0.417 A  
HETATM   31  C   UNL     1     -11.089  15.131  65.892  1.00  0.00    -0.319 A  
BRANCH  31  32
HETATM   32  S   UNL     1     -10.333  16.711  65.602  1.00  0.00    -0.221 S  
HETATM   33  O   UNL     1      -8.912  16.479  65.446  1.00  0.00    -0.219 OA 
HETATM   34  O   UNL     1     -11.088  17.392  64.574  1.00  0.00    -1.008 OA 
BRANCH  32  35
HETATM   35  N   UNL     1     -10.487  17.548  67.052  1.00  0.00    -0.319 N  
HETATM   36  C   UNL     1     -10.353  19.254  68.794  1.00  0.00    -0.253 C  
HETATM   37  C   UNL     1      -8.393  18.873  67.328  1.00  0.00    -0.288 C  
HETATM   38  C   UNL     1     -10.486  19.951  66.413  1.00  0.00    -0.589 C  
HETATM   39  C   UNL     1      -9.924  18.887  67.355  1.00  0.00    -0.338 C  
HETATM   40  H   UNL     1     -11.018  17.092  67.793  1.00  0.00     0.000 HD 
ENDBRANCH  32  35
ENDBRANCH  31  32
ENDBRANCH  24  26
ENDBRANCH   6  24
TORSDOF 10
ENDMDL
MODEL       91
REMARK 921   NORMALIZED FREE ENERGY PREDICTED BY IDOCK:   -6.14 KCAL/MOL
REMARK 922        TOTAL FREE ENERGY PREDICTED BY IDOCK:  -11.08 KCAL/MOL
REMARK 923 INTER-LIGAND FREE ENERGY PREDICTED BY IDOCK:  -10.14 KCAL/MOL
REMARK 924 INTRA-LIGAND FREE ENERGY PREDICTED BY IDOCK:   -0.94 KCAL/MOL
REMARK 927      BINDING AFFINITY PREDICTED BY RF-SCORE:    0.00 PKD
ROOT
HETATM    1  C   UNL     1     -13.910  13.271  71.977  1.00  0.00    -0.452 C  
HETATM    2  C   UNL     1     -13.087  12.087  71.580  1.00  0.00    -0.422 A  
HETATM    3  C   UNL     1     -13.379  10.855  72.138  1.00  0.00    -0.189 A  
HETATM    4  N   UNL     1     -12.718   9.724  71.863  1.00  0.00    -0.404 NA 
HETATM    5  C   UNL     1     -11.695   9.831  71.014  1.00  0.00    -0.370 A  
HETATM    6  C   UNL     1     -12.049  12.107  70.650  1.00  0.00    -0.250 A  
HETATM    7  N   UNL     1     -11.356  10.982  70.399  1.00  0.00    -0.229 NA 
ENDROOT
BRANCH   5   8
HETATM    8  N   UNL     1     -10.981   8.649  70.804  1.00  0.00    -0.237 NA 
HETATM    9  H   UNL     1     -10.535   8.258  71.633  1.00  0.00     0.000 HD 
BRANCH   8  10
HETATM   10  C   UNL     1     -10.788   7.922  69.622  1.00  0.00    -0.176 A  
HETATM   11  C   UNL     1     -10.648   8.556  68.393  1.00  0.00    -0.161 A  
HETATM   12  C   UNL     1     -10.787   5.779  68.447  1.00  0.00    -0.251 A  
HETATM   13  C   UNL     1     -10.706   6.434  67.221  1.00  0.00    -0.353 A  
HETATM   14  C   UNL     1     -10.604   7.830  67.208  1.00  0.00    -0.376 A  
HETATM   15  C   UNL     1     -10.830   6.519  69.641  1.00  0.00    -0.359 A  
BRANCH  13  16
HETATM   16  O   UNL     1     -10.759   5.663  66.080  1.00  0.00    -0.142 OA 
BRANCH  16  17
HETATM   17  C   UNL     1      -9.471   5.164  65.711  1.00  0.00    -0.141 C  
BRANCH  17  18
HETATM   18  C   UNL     1      -9.379   3.639  65.635  1.00  0.00    -0.162 C  
BRANCH  18  19
HETATM   19  N   UNL     1      -8.547   3.153  66.747  1.00  0.00    -0.111 NA 
HETATM   20  C   UNL     1      -9.314   2.653  67.895  1.00  0.00    -0.194 C  
HETATM   21  C   UNL     1      -7.634   4.161  67.270  1.00  0.00    -0.077 C  
HETATM   22  C   UNL     1      -8.385   2.799  69.092  1.00  0.00    -0.086 C  
HETATM   23  C   UNL     1      -7.148   3.493  68.545  1.00  0.00    -0.050 C  
ENDBRANCH  18  19
ENDBRANCH  17  18
ENDBRANCH  16  17
ENDBRANCH  13  16
ENDBRANCH   8  10
ENDBRANCH   5   8
BRANCH   6  24
HETATM   24  N   UNL     1     -11.670  13.341  70.059  1.00  0.00    -0.490 NA 
HETATM   25  H   UNL     1     -11.664  14.121  70.717  1.00  0.00     0.000 HD 
BRANCH  24  26
HETATM   26  C   UNL     1     -11.298  13.712  68.743  1.00  0.00    -0.289 A  
HETATM   27  C   UNL     1     -11.557  12.952  67.598  1.00  0.00    -0.406 A  
HETATM   28  C   UNL     1     -10.473  14.841  68.582  1.00  0.00    -0.250 A  
HETATM   29  C   UNL     1     -11.015  13.289  66.345  1.00  0.00    -0.301 A  
HETATM   30  C   UNL     1     -10.149  14.374  66.218  1.00  0.00    -0.308 A  
HETATM   31  C   UNL     1      -9.861  15.135  67.349  1.00  0.00    -0.224 A  
BRANCH  31  32
HETATM   32  S   UNL     1      -8.746  16.510  67.219  1.00  0.00    -0.193 S  
HETATM   33  O   UNL     1      -8.499  16.985  68.565  1.00  0.00    -0.239 OA 
HETATM   34  O   UNL     1      -7.650  16.123  66.359  1.00  0.00    -0.205 OA 
BRANCH  32  35
HETATM   35  N   UNL     1      -9.632  17.729  66.475  1.00  0.00    -0.300 N  
HETATM   36  C   UNL     1     -10.536  19.904  65.831  1.00  0.00    -0.523 C  
HETATM   37  C   UNL     1     -10.052  19.461  68.220  1.00  0.00    -0.531 C  
HETATM   38  C   UNL     1      -8.167  19.736  66.561  1.00  0.00    -0.363 C  
HETATM   39  C   UNL     1      -9.570  19.178  66.793  1.00  0.00    -0.331 C  
HETATM   40  H   UNL     1     -10.274  17.447  65.734  1.00  0.00     0.000 HD 
ENDBRANCH  32  35
ENDBRANCH  31  32
ENDBRANCH  24  26
ENDBRANCH   6  24
TORSDOF 10
ENDMDL
MODEL       92
REMARK 921   NORMALIZED FREE ENERGY PREDICTED BY IDOCK:   -6.12 KCAL/MOL
REMARK 922        TOTAL FREE ENERGY PREDICTED BY IDOCK:  -11.04 KCAL/MOL
REMARK 923 INTER-LIGAND FREE ENERGY PREDICTED BY IDOCK:  -10.17 KCAL/MOL
REMARK 924 INTRA-LIGAND FREE ENERGY PREDICTED BY IDOCK:   -0.87 KCAL/MOL
REMARK 927      BINDING AFFINITY PREDICTED BY RF-SCORE:    0.00 PKD
ROOT
HETATM    1  C   UNL     1     -13.031   9.599  71.936  1.00  0.00    -0.527 C  
HETATM    2  C   UNL     1     -12.811  10.948  71.329  1.00  0.00    -0.536 A  
HETATM    3  C   UNL     1     -13.280  12.065  71.998  1.00  0.00    -0.375 A  
HETATM    4  N   UNL     1     -13.143  13.322  71.559  1.00  0.00    -0.355 NA 
HETATM    5  C   UNL     1     -12.539  13.472  70.380  1.00  0.00    -0.197 A  
HETATM    6  C   UNL     1     -12.129  11.189  70.137  1.00  0.00    -0.362 A  
HETATM    7  N   UNL     1     -12.024  12.447  69.672  1.00  0.00    -0.298 NA 
ENDROOT
BRANCH   5   8
HETATM    8  N   UNL     1     -12.477  14.788  69.916  1.00  0.00    -0.523 NA 
HETATM    9  H   UNL     1     -13.144  15.431  70.342  1.00  0.00     0.000 HD 
BRANCH   8  10
HETATM   10  C   UNL     1     -11.633  15.355  68.951  1.00  0.00    -0.354 A  
HETATM   11  C   UNL     1     -10.884  16.494  69.220  1.00  0.00    -0.326 A  
HETATM   12  C   UNL     1     -10.874  15.479  66.632  1.00  0.00    -0.285 A  
HETATM   13  C   UNL     1     -10.178  16.653  66.907  1.00  0.00    -0.291 A  
HETATM   14  C   UNL     1     -10.163  17.136  68.221  1.00  0.00    -0.334 A  
HETATM   15  C   UNL     1     -11.599  14.835  67.648  1.00  0.00    -0.374 A  
BRANCH  13  16
HETATM   16  O   UNL     1      -9.559  17.291  65.853  1.00  0.00    -0.500 OA 
BRANCH  16  17
HETATM   17  C   UNL     1      -8.899  18.490  66.264  1.00  0.00    -0.207 C  
BRANCH  17  18
HETATM   18  C   UNL     1      -7.384  18.484  66.056  1.00  0.00    -0.240 C  
BRANCH  18  19
HETATM   19  N   UNL     1      -6.727  18.896  67.307  1.00  0.00    -0.204 NA 
HETATM   20  C   UNL     1      -6.169  17.783  68.085  1.00  0.00    -0.173 C  
HETATM   21  C   UNL     1      -7.605  19.629  68.209  1.00  0.00    -0.316 C  
HETATM   22  C   UNL     1      -6.123  18.282  69.522  1.00  0.00    -0.255 C  
HETATM   23  C   UNL     1      -6.776  19.654  69.482  1.00  0.00    -0.379 C  
ENDBRANCH  18  19
ENDBRANCH  17  18
ENDBRANCH  16  17
ENDBRANCH  13  16
ENDBRANCH   8  10
ENDBRANCH   5   8
BRANCH   6  24
HETATM   24  N   UNL     1     -11.648  10.091  69.378  1.00  0.00    -0.459 NA 
HETATM   25  H   UNL     1     -12.311   9.761  68.676  1.00  0.00     0.000 HD 
BRANCH  24  26
HETATM   26  C   UNL     1     -10.435   9.358  69.395  1.00  0.00    -0.220 A  
HETATM   27  C   UNL     1      -9.162   9.922  69.267  1.00  0.00    -0.207 A  
HETATM   28  C   UNL     1     -10.510   7.953  69.381  1.00  0.00    -0.222 A  
HETATM   29  C   UNL     1      -8.010   9.129  69.120  1.00  0.00    -0.097 A  
HETATM   30  C   UNL     1      -8.112   7.742  69.044  1.00  0.00    -0.125 A  
HETATM   31  C   UNL     1      -9.373   7.157  69.151  1.00  0.00    -0.141 A  
BRANCH  31  32
HETATM   32  S   UNL     1      -9.532   5.393  69.038  1.00  0.00    -0.142 S  
HETATM   33  O   UNL     1      -8.197   4.855  68.878  1.00  0.00    -0.083 OA 
HETATM   34  O   UNL     1     -10.385   4.946  70.117  1.00  0.00    -0.265 OA 
BRANCH  32  35
HETATM   35  N   UNL     1     -10.301   5.111  67.570  1.00  0.00    -0.161 N  
HETATM   36  C   UNL     1     -10.767   4.490  65.254  1.00  0.00    -0.145 C  
HETATM   37  C   UNL     1      -8.634   5.629  65.789  1.00  0.00    -0.148 C  
HETATM   38  C   UNL     1      -9.032   3.246  66.524  1.00  0.00    -0.161 C  
HETATM   39  C   UNL     1      -9.659   4.624  66.323  1.00  0.00    -0.184 C  
HETATM   40  H   UNL     1     -11.304   5.291  67.532  1.00  0.00     0.000 HD 
ENDBRANCH  32  35
ENDBRANCH  31  32
ENDBRANCH  24  26
ENDBRANCH   6  24
TORSDOF 10
ENDMDL
MODEL       93
REMARK 921   NORMALIZED FREE ENERGY PREDICTED BY IDOCK:   -6.11 KCAL/MOL
REMARK 922        TOTAL FREE ENERGY PREDICTED BY IDOCK:  -11.04 KCAL/MOL
REMARK 923 INTER-LIGAND FREE ENERGY PREDICTED BY IDOCK:   -9.40 KCAL/MOL
REMARK 924 INTRA-LIGAND FREE ENERGY PREDICTED BY IDOCK:   -1.64 KCAL/MOL
REMARK 927      BINDING AFFINITY PREDICTED BY RF-SCORE:    0.00 PKD
ROOT
HETATM    1  C   UNL     1      -9.355   4.725  67.276  1.00  0.00    -0.150 C  
HETATM    2  C   UNL     1      -9.538   6.152  66.871  1.00  0.00    -0.164 A  
HETATM    3  C   UNL     1      -8.740   6.668  65.865  1.00  0.00    -0.137 A  
HETATM    4  N   UNL     1      -8.811   7.926  65.413  1.00  0.00    -0.050 NA 
HETATM    5  C   UNL     1      -9.696   8.720  66.016  1.00  0.00    -0.206 A  
HETATM    6  C   UNL     1     -10.488   7.023  67.405  1.00  0.00    -0.273 A  
HETATM    7  N   UNL     1     -10.536   8.299  66.984  1.00  0.00    -0.325 NA 
ENDROOT
BRANCH   5   8
HETATM    8  N   UNL     1      -9.694  10.044  65.573  1.00  0.00    -0.269 NA 
HETATM    9  H   UNL     1      -9.424  10.175  64.598  1.00  0.00     0.000 HD 
BRANCH   8  10
HETATM   10  C   UNL     1     -10.008  11.219  66.269  1.00  0.00    -0.221 A  
HETATM   11  C   UNL     1      -9.120  11.786  67.175  1.00  0.00    -0.175 A  
HETATM   12  C   UNL     1     -11.662  12.890  66.938  1.00  0.00    -0.445 A  
HETATM   13  C   UNL     1     -10.779  13.407  67.882  1.00  0.00    -0.247 A  
HETATM   14  C   UNL     1      -9.491  12.865  67.969  1.00  0.00    -0.213 A  
HETATM   15  C   UNL     1     -11.279  11.800  66.138  1.00  0.00    -0.363 A  
BRANCH  13  16
HETATM   16  O   UNL     1     -11.238  14.416  68.701  1.00  0.00    -0.236 OA 
BRANCH  16  17
HETATM   17  C   UNL     1     -11.303  15.672  68.020  1.00  0.00    -0.324 C  
BRANCH  17  18
HETATM   18  C   UNL     1     -10.171  16.640  68.367  1.00  0.00    -0.284 C  
BRANCH  18  19
HETATM   19  N   UNL     1     -10.523  17.983  67.879  1.00  0.00    -0.395 NA 
HETATM   20  C   UNL     1     -10.339  18.163  66.433  1.00  0.00    -0.394 C  
HETATM   21  C   UNL     1      -9.770  19.050  68.525  1.00  0.00    -0.400 C  
HETATM   22  C   UNL     1     -10.136  19.658  66.237  1.00  0.00    -0.578 C  
HETATM   23  C   UNL     1     -10.114  20.238  67.643  1.00  0.00    -0.515 C  
ENDBRANCH  18  19
ENDBRANCH  17  18
ENDBRANCH  16  17
ENDBRANCH  13  16
ENDBRANCH   8  10
ENDBRANCH   5   8
BRANCH   6  24
HETATM   24  N   UNL     1     -11.321   6.576  68.464  1.00  0.00    -0.578 NA 
HETATM   25  H   UNL     1     -12.137   6.053  68.145  1.00  0.00     0.000 HD 
BRANCH  24  26
HETATM   26  C   UNL     1     -11.251   6.706  69.874  1.00  0.00    -0.364 A  
HETATM   27  C   UNL     1     -12.358   6.718  70.727  1.00  0.00    -0.289 A  
HETATM   28  C   UNL     1     -10.002   7.002  70.450  1.00  0.00    -0.187 A  
HETATM   29  C   UNL     1     -12.237   7.021  72.095  1.00  0.00    -0.255 A  
HETATM   30  C   UNL     1     -11.002   7.374  72.634  1.00  0.00    -0.363 A  
HETATM   31  C   UNL     1      -9.887   7.387  71.798  1.00  0.00    -0.167 A  
BRANCH  31  32
HETATM   32  S   UNL     1      -8.305   7.851  72.456  1.00  0.00    -0.157 S  
HETATM   33  O   UNL     1      -8.554   8.711  73.595  1.00  0.00    -0.319 OA 
HETATM   34  O   UNL     1      -7.504   6.655  72.594  1.00  0.00    -0.091 OA 
BRANCH  32  35
HETATM   35  N   UNL     1      -7.617   8.849  71.291  1.00  0.00    -0.117 N  
HETATM   36  C   UNL     1      -6.126   9.789  69.601  1.00  0.00    -0.044 C  
HETATM   37  C   UNL     1      -5.146   8.683  71.589  1.00  0.00    -0.034 C  
HETATM   38  C   UNL     1      -6.322   7.322  69.816  1.00  0.00    -0.035 C  
HETATM   39  C   UNL     1      -6.319   8.631  70.605  1.00  0.00    -0.039 C  
HETATM   40  H   UNL     1      -8.141   9.684  71.031  1.00  0.00     0.000 HD 
ENDBRANCH  32  35
ENDBRANCH  31  32
ENDBRANCH  24  26
ENDBRANCH   6  24
TORSDOF 10
ENDMDL
MODEL       94
REMARK 921   NORMALIZED FREE ENERGY PREDICTED BY IDOCK:   -6.11 KCAL/MOL
REMARK 922        TOTAL FREE ENERGY PREDICTED BY IDOCK:  -11.03 KCAL/MOL
REMARK 923 INTER-LIGAND FREE ENERGY PREDICTED BY IDOCK:  -10.65 KCAL/MOL
REMARK 924 INTRA-LIGAND FREE ENERGY PREDICTED BY IDOCK:   -0.38 KCAL/MOL
REMARK 927      BINDING AFFINITY PREDICTED BY RF-SCORE:    0.00 PKD
ROOT
HETATM    1  C   UNL     1     -13.592  15.448  72.279  1.00  0.00    -0.606 C  
HETATM    2  C   UNL     1     -13.177  14.126  71.715  1.00  0.00    -0.450 A  
HETATM    3  C   UNL     1     -13.446  12.979  72.440  1.00  0.00    -0.515 A  
HETATM    4  N   UNL     1     -13.127  11.740  72.042  1.00  0.00    -0.432 NA 
HETATM    5  C   UNL     1     -12.479  11.644  70.880  1.00  0.00    -0.341 A  
HETATM    6  C   UNL     1     -12.561  13.939  70.479  1.00  0.00    -0.312 A  
HETATM    7  N   UNL     1     -12.202  12.702  70.092  1.00  0.00    -0.280 NA 
ENDROOT
BRANCH   5   8
HETATM    8  N   UNL     1     -12.097  10.348  70.528  1.00  0.00    -0.307 NA 
HETATM    9  H   UNL     1     -12.857   9.737  70.228  1.00  0.00     0.000 HD 
BRANCH   8  10
HETATM   10  C   UNL     1     -10.824   9.763  70.527  1.00  0.00    -0.323 A  
HETATM   11  C   UNL     1     -10.353   9.044  71.619  1.00  0.00    -0.420 A  
HETATM   12  C   UNL     1      -8.621   9.520  69.496  1.00  0.00    -0.171 A  
HETATM   13  C   UNL     1      -8.150   8.854  70.624  1.00  0.00    -0.144 A  
HETATM   14  C   UNL     1      -9.040   8.591  71.672  1.00  0.00    -0.296 A  
HETATM   15  C   UNL     1      -9.950   9.974  69.449  1.00  0.00    -0.239 A  
BRANCH  13  16
HETATM   16  O   UNL     1      -6.815   8.511  70.653  1.00  0.00    -0.037 OA 
BRANCH  16  17
HETATM   17  C   UNL     1      -6.625   7.112  70.875  1.00  0.00    -0.048 C  
BRANCH  17  18
HETATM   18  C   UNL     1      -6.637   6.260  69.605  1.00  0.00    -0.047 C  
BRANCH  18  19
HETATM   19  N   UNL     1      -7.861   5.444  69.588  1.00  0.00    -0.077 NA 
HETATM   20  C   UNL     1      -8.961   6.027  68.809  1.00  0.00    -0.118 C  
HETATM   21  C   UNL     1      -8.396   5.173  70.916  1.00  0.00    -0.114 C  
HETATM   22  C   UNL     1     -10.231   5.429  69.398  1.00  0.00    -0.334 C  
HETATM   23  C   UNL     1      -9.761   4.596  70.580  1.00  0.00    -0.284 C  
ENDBRANCH  18  19
ENDBRANCH  17  18
ENDBRANCH  16  17
ENDBRANCH  13  16
ENDBRANCH   8  10
ENDBRANCH   5   8
BRANCH   6  24
HETATM   24  N   UNL     1     -12.224  15.072  69.693  1.00  0.00    -0.482 NA 
HETATM   25  H   UNL     1     -12.598  15.948  70.061  1.00  0.00     0.000 HD 
BRANCH  24  26
HETATM   26  C   UNL     1     -11.476  15.238  68.500  1.00  0.00    -0.342 A  
HETATM   27  C   UNL     1     -11.735  14.571  67.299  1.00  0.00    -0.429 A  
HETATM   28  C   UNL     1     -10.296  16.002  68.560  1.00  0.00    -0.241 A  
HETATM   29  C   UNL     1     -10.856  14.648  66.204  1.00  0.00    -0.321 A  
HETATM   30  C   UNL     1      -9.662  15.358  66.304  1.00  0.00    -0.325 A  
HETATM   31  C   UNL     1      -9.373  16.016  67.498  1.00  0.00    -0.217 A  
BRANCH  31  32
HETATM   32  S   UNL     1      -7.849  16.911  67.659  1.00  0.00    -0.176 S  
HETATM   33  O   UNL     1      -7.526  16.949  69.070  1.00  0.00    -0.235 OA 
HETATM   34  O   UNL     1      -6.908  16.378  66.700  1.00  0.00    -0.199 OA 
BRANCH  32  35
HETATM   35  N   UNL     1      -8.222  18.498  67.248  1.00  0.00    -0.246 N  
HETATM   36  C   UNL     1      -9.393  20.615  66.915  1.00  0.00    -0.373 C  
HETATM   37  C   UNL     1     -10.602  18.493  66.503  1.00  0.00    -0.375 C  
HETATM   38  C   UNL     1      -9.992  19.182  68.855  1.00  0.00    -0.481 C  
HETATM   39  C   UNL     1      -9.546  19.154  67.394  1.00  0.00    -0.311 C  
HETATM   40  H   UNL     1      -7.467  19.064  66.861  1.00  0.00     0.000 HD 
ENDBRANCH  32  35
ENDBRANCH  31  32
ENDBRANCH  24  26
ENDBRANCH   6  24
TORSDOF 10
ENDMDL
MODEL       95
REMARK 921   NORMALIZED FREE ENERGY PREDICTED BY IDOCK:   -6.10 KCAL/MOL
REMARK 922        TOTAL FREE ENERGY PREDICTED BY IDOCK:  -11.02 KCAL/MOL
REMARK 923 INTER-LIGAND FREE ENERGY PREDICTED BY IDOCK:   -9.28 KCAL/MOL
REMARK 924 INTRA-LIGAND FREE ENERGY PREDICTED BY IDOCK:   -1.74 KCAL/MOL
REMARK 927      BINDING AFFINITY PREDICTED BY RF-SCORE:    0.00 PKD
ROOT
HETATM    1  C   UNL     1     -10.533  17.983  65.953  1.00  0.00    -0.268 C  
HETATM    2  C   UNL     1      -9.425  17.065  66.360  1.00  0.00    -0.294 A  
HETATM    3  C   UNL     1      -8.213  17.612  66.742  1.00  0.00    -0.243 A  
HETATM    4  N   UNL     1      -7.148  16.896  67.128  1.00  0.00    -0.163 NA 
HETATM    5  C   UNL     1      -7.288  15.571  67.099  1.00  0.00    -0.191 A  
HETATM    6  C   UNL     1      -9.516  15.675  66.422  1.00  0.00    -0.292 A  
HETATM    7  N   UNL     1      -8.438  14.950  66.770  1.00  0.00    -0.223 NA 
ENDROOT
BRANCH   5   8
HETATM    8  N   UNL     1      -6.138  14.853  67.436  1.00  0.00    -0.327 NA 
HETATM    9  H   UNL     1      -5.264  15.244  67.086  1.00  0.00     0.000 HD 
BRANCH   8  10
HETATM   10  C   UNL     1      -6.009  13.676  68.186  1.00  0.00    -0.118 A  
HETATM   11  C   UNL     1      -6.156  12.424  67.603  1.00  0.00    -0.129 A  
HETATM   12  C   UNL     1      -5.838  12.575  70.361  1.00  0.00    -0.150 A  
HETATM   13  C   UNL     1      -6.046  11.334  69.766  1.00  0.00    -0.112 A  
HETATM   14  C   UNL     1      -6.172  11.267  68.373  1.00  0.00    -0.045 A  
HETATM   15  C   UNL     1      -5.822  13.740  69.575  1.00  0.00    -0.101 A  
BRANCH  13  16
HETATM   16  O   UNL     1      -6.143  10.236  70.594  1.00  0.00    -0.099 OA 
BRANCH  16  17
HETATM   17  C   UNL     1      -7.392   9.559  70.443  1.00  0.00    -0.141 C  
BRANCH  17  18
HETATM   18  C   UNL     1      -7.737   8.602  71.584  1.00  0.00    -0.108 C  
BRANCH  18  19
HETATM   19  N   UNL     1      -9.099   8.894  72.060  1.00  0.00    -0.381 NA 
HETATM   20  C   UNL     1      -9.625   7.909  73.014  1.00  0.00    -0.276 C  
HETATM   21  C   UNL     1     -10.079   8.991  70.986  1.00  0.00    -0.282 C  
HETATM   22  C   UNL     1     -11.139   8.005  72.894  1.00  0.00    -0.399 C  
HETATM   23  C   UNL     1     -11.382   8.997  71.768  1.00  0.00    -0.447 C  
ENDBRANCH  18  19
ENDBRANCH  17  18
ENDBRANCH  16  17
ENDBRANCH  13  16
ENDBRANCH   8  10
ENDBRANCH   5   8
BRANCH   6  24
HETATM   24  N   UNL     1     -10.718  15.040  66.013  1.00  0.00    -0.316 NA 
HETATM   25  H   UNL     1     -11.544  15.376  66.509  1.00  0.00     0.000 HD 
BRANCH  24  26
HETATM   26  C   UNL     1     -11.007  14.034  65.058  1.00  0.00    -0.375 A  
HETATM   27  C   UNL     1     -12.190  13.954  64.317  1.00  0.00    -0.447 A  
HETATM   28  C   UNL     1     -10.118  12.948  64.952  1.00  0.00    -0.229 A  
HETATM   29  C   UNL     1     -12.488  12.841  63.512  1.00  0.00    -0.474 A  
HETATM   30  C   UNL     1     -11.626  11.748  63.470  1.00  0.00    -0.487 A  
HETATM   31  C   UNL     1     -10.449  11.796  64.214  1.00  0.00    -0.325 A  
BRANCH  31  32
HETATM   32  S   UNL     1      -9.342  10.408  64.194  1.00  0.00    -0.299 S  
HETATM   33  O   UNL     1      -9.427   9.817  62.874  1.00  0.00    -0.227 OA 
HETATM   34  O   UNL     1      -8.069  10.836  64.731  1.00  0.00    -0.061 OA 
BRANCH  32  35
HETATM   35  N   UNL     1     -10.030   9.277  65.230  1.00  0.00    -0.345 N  
HETATM   36  C   UNL     1     -10.565   7.918  67.187  1.00  0.00    -0.383 C  
HETATM   37  C   UNL     1      -8.198   8.479  66.721  1.00  0.00    -0.105 C  
HETATM   38  C   UNL     1      -9.807  10.263  67.501  1.00  0.00    -0.204 C  
HETATM   39  C   UNL     1      -9.629   9.017  66.635  1.00  0.00    -0.213 C  
HETATM   40  H   UNL     1     -10.796   8.717  64.857  1.00  0.00     0.000 HD 
ENDBRANCH  32  35
ENDBRANCH  31  32
ENDBRANCH  24  26
ENDBRANCH   6  24
TORSDOF 10
ENDMDL
MODEL       96
REMARK 921   NORMALIZED FREE ENERGY PREDICTED BY IDOCK:   -6.10 KCAL/MOL
REMARK 922        TOTAL FREE ENERGY PREDICTED BY IDOCK:  -11.01 KCAL/MOL
REMARK 923 INTER-LIGAND FREE ENERGY PREDICTED BY IDOCK:   -9.73 KCAL/MOL
REMARK 924 INTRA-LIGAND FREE ENERGY PREDICTED BY IDOCK:   -1.28 KCAL/MOL
REMARK 927      BINDING AFFINITY PREDICTED BY RF-SCORE:    0.00 PKD
ROOT
HETATM    1  C   UNL     1      -7.776   5.939  62.524  1.00  0.00    -0.079 C  
HETATM    2  C   UNL     1      -8.321   5.435  63.822  1.00  0.00    -0.102 A  
HETATM    3  C   UNL     1      -8.502   4.073  63.985  1.00  0.00    -0.096 A  
HETATM    4  N   UNL     1      -8.979   3.501  65.098  1.00  0.00    -0.129 NA 
HETATM    5  C   UNL     1      -9.325   4.329  66.084  1.00  0.00    -0.164 A  
HETATM    6  C   UNL     1      -8.639   6.230  64.922  1.00  0.00     0.064 A  
HETATM    7  N   UNL     1      -9.157   5.665  66.027  1.00  0.00    -0.156 NA 
ENDROOT
BRANCH   5   8
HETATM    8  N   UNL     1      -9.887   3.707  67.201  1.00  0.00    -0.306 NA 
HETATM    9  H   UNL     1     -10.499   2.917  66.997  1.00  0.00     0.000 HD 
BRANCH   8  10
HETATM   10  C   UNL     1      -9.733   4.008  68.561  1.00  0.00    -0.064 A  
HETATM   11  C   UNL     1      -9.047   3.158  69.420  1.00  0.00    -0.198 A  
HETATM   12  C   UNL     1     -10.339   5.374  70.495  1.00  0.00    -0.344 A  
HETATM   13  C   UNL     1      -9.696   4.479  71.347  1.00  0.00    -0.179 A  
HETATM   14  C   UNL     1      -9.022   3.386  70.792  1.00  0.00    -0.163 A  
HETATM   15  C   UNL     1     -10.359   5.138  69.110  1.00  0.00    -0.226 A  
BRANCH  13  16
HETATM   16  O   UNL     1      -9.785   4.712  72.702  1.00  0.00    -0.137 OA 
BRANCH  16  17
HETATM   17  C   UNL     1     -10.819   5.647  73.019  1.00  0.00    -0.271 C  
BRANCH  17  18
HETATM   18  C   UNL     1     -10.341   6.893  73.765  1.00  0.00    -0.376 C  
BRANCH  18  19
HETATM   19  N   UNL     1     -10.605   8.080  72.936  1.00  0.00    -0.356 NA 
HETATM   20  C   UNL     1     -11.829   7.988  72.131  1.00  0.00    -0.349 C  
HETATM   21  C   UNL     1      -9.524   8.389  72.008  1.00  0.00    -0.268 C  
HETATM   22  C   UNL     1     -11.607   8.928  70.954  1.00  0.00    -0.331 C  
HETATM   23  C   UNL     1     -10.182   9.431  71.118  1.00  0.00    -0.361 C  
ENDBRANCH  18  19
ENDBRANCH  17  18
ENDBRANCH  16  17
ENDBRANCH  13  16
ENDBRANCH   8  10
ENDBRANCH   5   8
BRANCH   6  24
HETATM   24  N   UNL     1      -8.511   7.640  64.819  1.00  0.00    -0.368 NA 
HETATM   25  H   UNL     1      -7.828   7.936  64.121  1.00  0.00     0.000 HD 
BRANCH  24  26
HETATM   26  C   UNL     1      -9.137   8.722  65.487  1.00  0.00    -0.163 A  
HETATM   27  C   UNL     1      -9.654   8.665  66.785  1.00  0.00    -0.269 A  
HETATM   28  C   UNL     1      -9.403   9.891  64.749  1.00  0.00    -0.339 A  
HETATM   29  C   UNL     1     -10.413   9.716  67.328  1.00  0.00    -0.323 A  
HETATM   30  C   UNL     1     -10.720  10.838  66.560  1.00  0.00    -0.245 A  
HETATM   31  C   UNL     1     -10.231  10.909  65.257  1.00  0.00    -0.288 A  
BRANCH  31  32
HETATM   32  S   UNL     1     -10.622  12.318  64.250  1.00  0.00    -0.387 S  
HETATM   33  O   UNL     1      -9.929  12.145  62.990  1.00  0.00    -0.352 OA 
HETATM   34  O   UNL     1     -12.055  12.514  64.284  1.00  0.00    -0.377 OA 
BRANCH  32  35
HETATM   35  N   UNL     1      -9.865  13.620  64.996  1.00  0.00    -0.600 N  
HETATM   36  C   UNL     1      -9.436  15.692  66.214  1.00  0.00    -0.351 C  
HETATM   37  C   UNL     1     -11.341  15.597  64.634  1.00  0.00    -0.355 C  
HETATM   38  C   UNL     1     -11.417  14.316  66.810  1.00  0.00    -0.380 C  
HETATM   39  C   UNL     1     -10.539  14.772  65.645  1.00  0.00    -0.340 C  
HETATM   40  H   UNL     1      -8.846  13.618  65.004  1.00  0.00     0.000 HD 
ENDBRANCH  32  35
ENDBRANCH  31  32
ENDBRANCH  24  26
ENDBRANCH   6  24
TORSDOF 10
ENDMDL
MODEL       97
REMARK 921   NORMALIZED FREE ENERGY PREDICTED BY IDOCK:   -6.08 KCAL/MOL
REMARK 922        TOTAL FREE ENERGY PREDICTED BY IDOCK:  -10.98 KCAL/MOL
REMARK 923 INTER-LIGAND FREE ENERGY PREDICTED BY IDOCK:   -9.44 KCAL/MOL
REMARK 924 INTRA-LIGAND FREE ENERGY PREDICTED BY IDOCK:   -1.54 KCAL/MOL
REMARK 927      BINDING AFFINITY PREDICTED BY RF-SCORE:    0.00 PKD
ROOT
HETATM    1  C   UNL     1      -9.167   2.099  67.492  1.00  0.00    -0.173 C  
HETATM    2  C   UNL     1      -9.086   3.550  67.141  1.00  0.00    -0.191 A  
HETATM    3  C   UNL     1      -9.557   3.965  65.908  1.00  0.00    -0.181 A  
HETATM    4  N   UNL     1      -9.542   5.234  65.480  1.00  0.00    -0.060 NA 
HETATM    5  C   UNL     1      -9.000   6.128  66.307  1.00  0.00    -0.154 A  
HETATM    6  C   UNL     1      -8.599   4.553  67.978  1.00  0.00    -0.102 A  
HETATM    7  N   UNL     1      -8.544   5.822  67.538  1.00  0.00    -0.106 NA 
ENDROOT
BRANCH   5   8
HETATM    8  N   UNL     1      -8.933   7.429  65.802  1.00  0.00    -0.354 NA 
HETATM    9  H   UNL     1      -8.320   7.550  64.996  1.00  0.00     0.000 HD 
BRANCH   8  10
HETATM   10  C   UNL     1      -9.583   8.590  66.239  1.00  0.00    -0.236 A  
HETATM   11  C   UNL     1     -10.272   8.627  67.446  1.00  0.00    -0.329 A  
HETATM   12  C   UNL     1     -10.406  10.843  65.772  1.00  0.00    -0.303 A  
HETATM   13  C   UNL     1     -11.137  10.839  66.957  1.00  0.00    -0.174 A  
HETATM   14  C   UNL     1     -11.036   9.731  67.807  1.00  0.00    -0.242 A  
HETATM   15  C   UNL     1      -9.635   9.724  65.414  1.00  0.00    -0.359 A  
BRANCH  13  16
HETATM   16  O   UNL     1     -11.946  11.925  67.213  1.00  0.00    -0.605 OA 
BRANCH  16  17
HETATM   17  C   UNL     1     -11.386  13.140  66.710  1.00  0.00    -0.316 C  
BRANCH  17  18
HETATM   18  C   UNL     1     -11.999  14.412  67.299  1.00  0.00    -0.377 C  
BRANCH  18  19
HETATM   19  N   UNL     1     -11.074  14.972  68.297  1.00  0.00    -0.274 NA 
HETATM   20  C   UNL     1     -10.793  16.403  68.118  1.00  0.00    -0.346 C  
HETATM   21  C   UNL     1      -9.782  14.300  68.330  1.00  0.00    -0.225 C  
HETATM   22  C   UNL     1      -9.437  16.630  68.770  1.00  0.00    -0.258 C  
HETATM   23  C   UNL     1      -8.973  15.247  69.200  1.00  0.00    -0.233 C  
ENDBRANCH  18  19
ENDBRANCH  17  18
ENDBRANCH  16  17
ENDBRANCH  13  16
ENDBRANCH   8  10
ENDBRANCH   5   8
BRANCH   6  24
HETATM   24  N   UNL     1      -8.068   4.200  69.247  1.00  0.00    -0.059 NA 
HETATM   25  H   UNL     1      -7.071   3.985  69.224  1.00  0.00     0.000 HD 
BRANCH  24  26
HETATM   26  C   UNL     1      -8.639   4.085  70.539  1.00  0.00    -0.070 A  
HETATM   27  C   UNL     1      -9.004   2.879  71.144  1.00  0.00    -0.162 A  
HETATM   28  C   UNL     1      -9.014   5.267  71.204  1.00  0.00    -0.159 A  
HETATM   29  C   UNL     1      -9.721   2.842  72.353  1.00  0.00    -0.217 A  
HETATM   30  C   UNL     1     -10.138   4.023  72.964  1.00  0.00    -0.212 A  
HETATM   31  C   UNL     1      -9.802   5.238  72.369  1.00  0.00    -0.162 A  
BRANCH  31  32
HETATM   32  S   UNL     1     -10.338   6.756  73.116  1.00  0.00    -0.274 S  
HETATM   33  O   UNL     1     -10.298   6.561  74.551  1.00  0.00    -0.341 OA 
HETATM   34  O   UNL     1      -9.613   7.845  72.499  1.00  0.00    -0.175 OA 
BRANCH  32  35
HETATM   35  N   UNL     1     -11.969   6.887  72.733  1.00  0.00    -0.488 N  
HETATM   36  C   UNL     1     -14.073   7.372  71.592  1.00  0.00    -0.552 C  
HETATM   37  C   UNL     1     -12.230   9.023  71.474  1.00  0.00    -0.403 C  
HETATM   38  C   UNL     1     -12.056   6.821  70.249  1.00  0.00    -0.211 C  
HETATM   39  C   UNL     1     -12.537   7.523  71.518  1.00  0.00    -0.355 C  
HETATM   40  H   UNL     1     -12.632   6.490  73.399  1.00  0.00     0.000 HD 
ENDBRANCH  32  35
ENDBRANCH  31  32
ENDBRANCH  24  26
ENDBRANCH   6  24
TORSDOF 10
ENDMDL
MODEL       98
REMARK 921   NORMALIZED FREE ENERGY PREDICTED BY IDOCK:   -6.07 KCAL/MOL
REMARK 922        TOTAL FREE ENERGY PREDICTED BY IDOCK:  -10.97 KCAL/MOL
REMARK 923 INTER-LIGAND FREE ENERGY PREDICTED BY IDOCK:   -9.75 KCAL/MOL
REMARK 924 INTRA-LIGAND FREE ENERGY PREDICTED BY IDOCK:   -1.22 KCAL/MOL
REMARK 927      BINDING AFFINITY PREDICTED BY RF-SCORE:    0.00 PKD
ROOT
HETATM    1  C   UNL     1      -8.407   4.990  63.733  1.00  0.00    -0.132 C  
HETATM    2  C   UNL     1      -8.493   5.079  65.223  1.00  0.00    -0.141 A  
HETATM    3  C   UNL     1      -8.368   3.919  65.968  1.00  0.00    -0.109 A  
HETATM    4  N   UNL     1      -8.425   3.870  67.305  1.00  0.00    -0.099 NA 
HETATM    5  C   UNL     1      -8.650   5.027  67.928  1.00  0.00    -0.103 A  
HETATM    6  C   UNL     1      -8.657   6.258  65.948  1.00  0.00    -0.148 A  
HETATM    7  N   UNL     1      -8.755   6.209  67.289  1.00  0.00    -0.109 NA 
ENDROOT
BRANCH   5   8
HETATM    8  N   UNL     1      -8.777   4.930  69.316  1.00  0.00    -0.086 NA 
HETATM    9  H   UNL     1      -8.296   4.137  69.741  1.00  0.00     0.000 HD 
BRANCH   8  10
HETATM   10  C   UNL     1      -9.466   5.761  70.209  1.00  0.00    -0.161 A  
HETATM   11  C   UNL     1     -10.736   5.437  70.670  1.00  0.00    -0.257 A  
HETATM   12  C   UNL     1      -9.663   7.908  71.360  1.00  0.00    -0.199 A  
HETATM   13  C   UNL     1     -10.957   7.589  71.763  1.00  0.00    -0.234 A  
HETATM   14  C   UNL     1     -11.474   6.329  71.438  1.00  0.00    -0.352 A  
HETATM   15  C   UNL     1      -8.923   6.999  70.585  1.00  0.00    -0.154 A  
BRANCH  13  16
HETATM   16  O   UNL     1     -11.670   8.553  72.443  1.00  0.00    -0.375 OA 
BRANCH  16  17
HETATM   17  C   UNL     1     -12.021   9.654  71.602  1.00  0.00    -0.394 C  
BRANCH  17  18
HETATM   18  C   UNL     1     -13.255  10.434  72.059  1.00  0.00    -0.392 C  
BRANCH  18  19
HETATM   19  N   UNL     1     -13.270  11.743  71.388  1.00  0.00    -0.213 NA 
HETATM   20  C   UNL     1     -12.074  12.017  70.580  1.00  0.00    -0.274 C  
HETATM   21  C   UNL     1     -13.411  12.864  72.308  1.00  0.00    -0.531 C  
HETATM   22  C   UNL     1     -11.978  13.534  70.509  1.00  0.00    -0.344 C  
HETATM   23  C   UNL     1     -13.103  14.041  71.397  1.00  0.00    -0.423 C  
ENDBRANCH  18  19
ENDBRANCH  17  18
ENDBRANCH  16  17
ENDBRANCH  13  16
ENDBRANCH   8  10
ENDBRANCH   5   8
BRANCH   6  24
HETATM   24  N   UNL     1      -8.825   7.483  65.252  1.00  0.00    -0.371 NA 
HETATM   25  H   UNL     1      -9.004   7.362  64.255  1.00  0.00     0.000 HD 
BRANCH  24  26
HETATM   26  C   UNL     1      -8.795   8.841  65.658  1.00  0.00    -0.199 A  
HETATM   27  C   UNL     1      -8.181   9.311  66.822  1.00  0.00    -0.115 A  
HETATM   28  C   UNL     1      -9.566   9.766  64.930  1.00  0.00    -0.316 A  
HETATM   29  C   UNL     1      -8.331  10.639  67.256  1.00  0.00    -0.120 A  
HETATM   30  C   UNL     1      -9.150  11.524  66.557  1.00  0.00    -0.199 A  
HETATM   31  C   UNL     1      -9.788  11.073  65.403  1.00  0.00    -0.251 A  
BRANCH  31  32
HETATM   32  S   UNL     1     -10.852  12.173  64.503  1.00  0.00    -0.334 S  
HETATM   33  O   UNL     1     -10.557  11.993  63.097  1.00  0.00    -0.383 OA 
HETATM   34  O   UNL     1     -12.199  12.008  65.003  1.00  0.00    -0.366 OA 
BRANCH  32  35
HETATM   35  N   UNL     1     -10.307  13.719  64.876  1.00  0.00    -0.480 N  
HETATM   36  C   UNL     1     -10.184  16.036  65.636  1.00  0.00    -0.412 C  
HETATM   37  C   UNL     1     -12.222  15.261  64.462  1.00  0.00    -0.203 C  
HETATM   38  C   UNL     1     -11.704  14.450  66.798  1.00  0.00    -0.415 C  
HETATM   39  C   UNL     1     -11.122  14.825  65.435  1.00  0.00    -0.357 C  
HETATM   40  H   UNL     1      -9.322  13.915  64.700  1.00  0.00     0.000 HD 
ENDBRANCH  32  35
ENDBRANCH  31  32
ENDBRANCH  24  26
ENDBRANCH   6  24
TORSDOF 10
ENDMDL
MODEL       99
REMARK 921   NORMALIZED FREE ENERGY PREDICTED BY IDOCK:   -6.06 KCAL/MOL
REMARK 922        TOTAL FREE ENERGY PREDICTED BY IDOCK:  -10.96 KCAL/MOL
REMARK 923 INTER-LIGAND FREE ENERGY PREDICTED BY IDOCK:   -9.72 KCAL/MOL
REMARK 924 INTRA-LIGAND FREE ENERGY PREDICTED BY IDOCK:   -1.24 KCAL/MOL
REMARK 927      BINDING AFFINITY PREDICTED BY RF-SCORE:    0.00 PKD
ROOT
HETATM    1  C   UNL     1     -10.562  19.623  66.188  1.00  0.00    -0.584 C  
HETATM    2  C   UNL     1      -9.475  18.745  66.722  1.00  0.00    -0.335 A  
HETATM    3  C   UNL     1      -8.529  19.296  67.569  1.00  0.00    -0.291 A  
HETATM    4  N   UNL     1      -7.512  18.615  68.112  1.00  0.00    -0.261 NA 
HETATM    5  C   UNL     1      -7.414  17.330  67.768  1.00  0.00    -0.176 A  
HETATM    6  C   UNL     1      -9.346  17.381  66.465  1.00  0.00    -0.270 A  
HETATM    7  N   UNL     1      -8.304  16.701  66.976  1.00  0.00    -0.173 NA 
ENDROOT
BRANCH   5   8
HETATM    8  N   UNL     1      -6.302  16.667  68.293  1.00  0.00    -0.132 NA 
HETATM    9  H   UNL     1      -5.400  17.084  68.064  1.00  0.00     0.000 HD 
BRANCH   8  10
HETATM   10  C   UNL     1      -6.244  15.514  69.087  1.00  0.00    -0.116 A  
HETATM   11  C   UNL     1      -5.530  15.488  70.279  1.00  0.00    -0.140 A  
HETATM   12  C   UNL     1      -6.656  13.119  69.353  1.00  0.00    -0.065 A  
HETATM   13  C   UNL     1      -5.888  13.101  70.514  1.00  0.00    -0.150 A  
HETATM   14  C   UNL     1      -5.354  14.305  70.988  1.00  0.00    -0.153 A  
HETATM   15  C   UNL     1      -6.831  14.319  68.642  1.00  0.00    -0.098 A  
BRANCH  13  16
HETATM   16  O   UNL     1      -5.675  11.882  71.120  1.00  0.00    -0.372 OA 
BRANCH  16  17
HETATM   17  C   UNL     1      -6.114  10.794  70.304  1.00  0.00    -0.133 C  
BRANCH  17  18
HETATM   18  C   UNL     1      -6.374   9.493  71.066  1.00  0.00    -0.077 C  
BRANCH  18  19
HETATM   19  N   UNL     1      -7.794   9.437  71.448  1.00  0.00    -0.283 NA 
HETATM   20  C   UNL     1      -8.171   8.220  72.178  1.00  0.00    -0.157 C  
HETATM   21  C   UNL     1      -8.703   9.535  70.314  1.00  0.00    -0.235 C  
HETATM   22  C   UNL     1      -9.663   8.049  71.929  1.00  0.00    -0.250 C  
HETATM   23  C   UNL     1     -10.028   9.159  70.957  1.00  0.00    -0.367 C  
ENDBRANCH  18  19
ENDBRANCH  17  18
ENDBRANCH  16  17
ENDBRANCH  13  16
ENDBRANCH   8  10
ENDBRANCH   5   8
BRANCH   6  24
HETATM   24  N   UNL     1     -10.261  16.752  65.580  1.00  0.00    -0.607 NA 
HETATM   25  H   UNL     1     -10.571  17.357  64.819  1.00  0.00     0.000 HD 
BRANCH  24  26
HETATM   26  C   UNL     1     -10.832  15.456  65.536  1.00  0.00    -0.374 A  
HETATM   27  C   UNL     1     -11.720  15.010  64.553  1.00  0.00    -0.372 A  
HETATM   28  C   UNL     1     -10.621  14.602  66.634  1.00  0.00    -0.289 A  
HETATM   29  C   UNL     1     -12.383  13.774  64.656  1.00  0.00    -0.410 A  
HETATM   30  C   UNL     1     -12.211  12.972  65.783  1.00  0.00    -0.511 A  
HETATM   31  C   UNL     1     -11.344  13.404  66.785  1.00  0.00    -0.325 A  
BRANCH  31  32
HETATM   32  S   UNL     1     -11.121  12.410  68.238  1.00  0.00    -0.264 S  
HETATM   33  O   UNL     1     -12.398  11.791  68.529  1.00  0.00    -0.348 OA 
HETATM   34  O   UNL     1      -9.933  11.605  68.058  1.00  0.00    -0.177 OA 
BRANCH  32  35
HETATM   35  N   UNL     1     -10.866  13.505  69.488  1.00  0.00    -0.447 N  
HETATM   36  C   UNL     1     -11.201  15.065  71.337  1.00  0.00    -0.260 C  
HETATM   37  C   UNL     1     -12.777  15.105  69.427  1.00  0.00     0.178 C  
HETATM   38  C   UNL     1     -12.774  13.165  71.045  1.00  0.00    -0.361 C  
HETATM   39  C   UNL     1     -11.915  14.179  70.292  1.00  0.00    -0.334 C  
HETATM   40  H   UNL     1      -9.897  13.727  69.716  1.00  0.00     0.000 HD 
ENDBRANCH  32  35
ENDBRANCH  31  32
ENDBRANCH  24  26
ENDBRANCH   6  24
TORSDOF 10
ENDMDL
MODEL      100
REMARK 921   NORMALIZED FREE ENERGY PREDICTED BY IDOCK:   -6.06 KCAL/MOL
REMARK 922        TOTAL FREE ENERGY PREDICTED BY IDOCK:  -10.96 KCAL/MOL
REMARK 923 INTER-LIGAND FREE ENERGY PREDICTED BY IDOCK:   -9.81 KCAL/MOL
REMARK 924 INTRA-LIGAND FREE ENERGY PREDICTED BY IDOCK:   -1.15 KCAL/MOL
REMARK 927      BINDING AFFINITY PREDICTED BY RF-SCORE:    0.00 PKD
ROOT
HETATM    1  C   UNL     1      -7.609   8.086  63.322  1.00  0.00    -0.130 C  
HETATM    2  C   UNL     1      -8.607   9.071  63.842  1.00  0.00    -0.151 A  
HETATM    3  C   UNL     1      -9.100  10.036  62.982  1.00  0.00    -0.279 A  
HETATM    4  N   UNL     1      -9.996  10.970  63.326  1.00  0.00    -0.350 NA 
HETATM    5  C   UNL     1     -10.395  10.962  64.599  1.00  0.00    -0.338 A  
HETATM    6  C   UNL     1      -9.123   9.083  65.136  1.00  0.00    -0.143 A  
HETATM    7  N   UNL     1      -9.993  10.043  65.499  1.00  0.00    -0.303 NA 
ENDROOT
BRANCH   5   8
HETATM    8  N   UNL     1     -11.273  11.992  64.944  1.00  0.00    -0.320 NA 
HETATM    9  H   UNL     1     -12.181  11.689  65.297  1.00  0.00     0.000 HD 
BRANCH   8  10
HETATM   10  C   UNL     1     -11.091  13.379  64.877  1.00  0.00    -0.335 A  
HETATM   11  C   UNL     1     -10.082  14.015  65.591  1.00  0.00    -0.342 A  
HETATM   12  C   UNL     1     -11.913  15.579  64.200  1.00  0.00    -0.083 A  
HETATM   13  C   UNL     1     -10.931  16.199  64.968  1.00  0.00    -0.344 A  
HETATM   14  C   UNL     1      -9.994  15.401  65.637  1.00  0.00    -0.396 A  
HETATM   15  C   UNL     1     -11.993  14.177  64.157  1.00  0.00    -0.421 A  
BRANCH  13  16
HETATM   16  O   UNL     1     -10.954  17.575  65.046  1.00  0.00    -0.754 OA 
BRANCH  16  17
HETATM   17  C   UNL     1      -9.975  18.077  65.958  1.00  0.00    -0.216 C  
BRANCH  17  18
HETATM   18  C   UNL     1     -10.542  18.937  67.088  1.00  0.00    -0.458 C  
BRANCH  18  19
HETATM   19  N   UNL     1      -9.434  19.623  67.772  1.00  0.00    -0.335 NA 
HETATM   20  C   UNL     1      -8.606  20.453  66.888  1.00  0.00    -0.243 C  
HETATM   21  C   UNL     1      -8.523  18.713  68.454  1.00  0.00    -0.338 C  
HETATM   22  C   UNL     1      -7.251  20.542  67.574  1.00  0.00    -0.368 C  
HETATM   23  C   UNL     1      -7.369  19.641  68.793  1.00  0.00    -0.371 C  
ENDBRANCH  18  19
ENDBRANCH  17  18
ENDBRANCH  16  17
ENDBRANCH  13  16
ENDBRANCH   8  10
ENDBRANCH   5   8
BRANCH   6  24
HETATM   24  N   UNL     1      -8.641   8.143  66.085  1.00  0.00    -0.131 NA 
HETATM   25  H   UNL     1      -9.015   7.204  65.951  1.00  0.00     0.000 HD 
BRANCH  24  26
HETATM   26  C   UNL     1      -7.746   8.243  67.179  1.00  0.00    -0.097 A  
HETATM   27  C   UNL     1      -6.352   8.266  67.069  1.00  0.00    -0.056 A  
HETATM   28  C   UNL     1      -8.278   8.155  68.479  1.00  0.00    -0.125 A  
HETATM   29  C   UNL     1      -5.518   8.194  68.198  1.00  0.00    -0.034 A  
HETATM   30  C   UNL     1      -6.062   8.043  69.472  1.00  0.00    -0.033 A  
HETATM   31  C   UNL     1      -7.448   7.999  69.605  1.00  0.00    -0.091 A  
BRANCH  31  32
HETATM   32  S   UNL     1      -8.167   7.788  71.214  1.00  0.00    -0.106 S  
HETATM   33  O   UNL     1      -7.448   6.712  71.863  1.00  0.00    -0.089 OA 
HETATM   34  O   UNL     1      -8.271   9.089  71.837  1.00  0.00    -0.362 OA 
BRANCH  32  35
HETATM   35  N   UNL     1      -9.710   7.182  70.934  1.00  0.00    -0.171 N  
HETATM   36  C   UNL     1     -12.128   6.840  70.951  1.00  0.00    -0.421 C  
HETATM   37  C   UNL     1     -10.991   7.507  73.048  1.00  0.00    -0.443 C  
HETATM   38  C   UNL     1     -11.222   9.145  71.140  1.00  0.00    -0.395 C  
HETATM   39  C   UNL     1     -10.973   7.689  71.527  1.00  0.00    -0.233 C  
HETATM   40  H   UNL     1      -9.786   6.392  70.294  1.00  0.00     0.000 HD 
ENDBRANCH  32  35
ENDBRANCH  31  32
ENDBRANCH  24  26
ENDBRANCH   6  24
TORSDOF 10
ENDMDL
MODEL      101
REMARK 921   NORMALIZED FREE ENERGY PREDICTED BY IDOCK:   -6.06 KCAL/MOL
REMARK 922        TOTAL FREE ENERGY PREDICTED BY IDOCK:  -10.95 KCAL/MOL
REMARK 923 INTER-LIGAND FREE ENERGY PREDICTED BY IDOCK:   -9.74 KCAL/MOL
REMARK 924 INTRA-LIGAND FREE ENERGY PREDICTED BY IDOCK:   -1.21 KCAL/MOL
REMARK 927      BINDING AFFINITY PREDICTED BY RF-SCORE:    0.00 PKD
ROOT
HETATM    1  C   UNL     1     -12.420  13.043  70.998  1.00  0.00    -0.385 C  
HETATM    2  C   UNL     1     -12.040  12.013  69.984  1.00  0.00    -0.355 A  
HETATM    3  C   UNL     1     -11.642  10.762  70.421  1.00  0.00    -0.339 A  
HETATM    4  N   UNL     1     -11.281   9.757  69.612  1.00  0.00    -0.214 NA 
HETATM    5  C   UNL     1     -11.285  10.023  68.305  1.00  0.00    -0.132 A  
HETATM    6  C   UNL     1     -12.085  12.193  68.602  1.00  0.00    -0.092 A  
HETATM    7  N   UNL     1     -11.685  11.201  67.786  1.00  0.00    -0.602 NA 
ENDROOT
BRANCH   5   8
HETATM    8  N   UNL     1     -10.834   8.979  67.494  1.00  0.00    -0.466 NA 
HETATM    9  H   UNL     1     -11.028   9.088  66.498  1.00  0.00     0.000 HD 
BRANCH   8  10
HETATM   10  C   UNL     1     -10.154   7.806  67.845  1.00  0.00    -0.185 A  
HETATM   11  C   UNL     1      -8.766   7.752  67.879  1.00  0.00    -0.124 A  
HETATM   12  C   UNL     1     -10.196   5.402  68.287  1.00  0.00    -0.224 A  
HETATM   13  C   UNL     1      -8.805   5.357  68.259  1.00  0.00    -0.104 A  
HETATM   14  C   UNL     1      -8.096   6.552  68.086  1.00  0.00    -0.113 A  
HETATM   15  C   UNL     1     -10.867   6.619  68.080  1.00  0.00    -0.345 A  
BRANCH  13  16
HETATM   16  O   UNL     1      -8.203   4.123  68.378  1.00  0.00    -0.083 OA 
BRANCH  16  17
HETATM   17  C   UNL     1      -7.316   4.065  69.498  1.00  0.00    -0.053 C  
BRANCH  17  18
HETATM   18  C   UNL     1      -7.880   3.335  70.717  1.00  0.00    -0.046 C  
BRANCH  18  19
HETATM   19  N   UNL     1      -8.670   4.282  71.520  1.00  0.00    -0.110 NA 
HETATM   20  C   UNL     1      -8.045   4.655  72.795  1.00  0.00    -0.100 C  
HETATM   21  C   UNL     1     -10.005   3.795  71.843  1.00  0.00    -0.160 C  
HETATM   22  C   UNL     1      -9.195   5.076  73.698  1.00  0.00    -0.122 C  
HETATM   23  C   UNL     1     -10.451   4.807  72.884  1.00  0.00    -0.257 C  
ENDBRANCH  18  19
ENDBRANCH  17  18
ENDBRANCH  16  17
ENDBRANCH  13  16
ENDBRANCH   8  10
ENDBRANCH   5   8
BRANCH   6  24
HETATM   24  N   UNL     1     -12.452  13.460  68.079  1.00  0.00    -0.052 NA 
HETATM   25  H   UNL     1     -13.267  13.868  68.538  1.00  0.00     0.000 HD 
BRANCH  24  26
HETATM   26  C   UNL     1     -11.919  14.276  67.049  1.00  0.00    -0.433 A  
HETATM   27  C   UNL     1     -12.260  14.177  65.697  1.00  0.00    -0.449 A  
HETATM   28  C   UNL     1     -10.858  15.142  67.374  1.00  0.00    -0.302 A  
HETATM   29  C   UNL     1     -11.574  14.896  64.704  1.00  0.00    -0.395 A  
HETATM   30  C   UNL     1     -10.484  15.699  65.037  1.00  0.00    -0.364 A  
HETATM   31  C   UNL     1     -10.114  15.799  66.377  1.00  0.00    -0.291 A  
BRANCH  31  32
HETATM   32  S   UNL     1      -8.718  16.800  66.827  1.00  0.00    -0.252 S  
HETATM   33  O   UNL     1      -7.814  15.954  67.578  1.00  0.00    -0.133 OA 
HETATM   34  O   UNL     1      -8.265  17.501  65.646  1.00  0.00    -0.505 OA 
BRANCH  32  35
HETATM   35  N   UNL     1      -9.311  17.911  67.940  1.00  0.00    -0.265 N  
HETATM   36  C   UNL     1     -10.125  19.957  68.997  1.00  0.00    -0.395 C  
HETATM   37  C   UNL     1      -8.246  20.098  67.389  1.00  0.00    -0.385 C  
HETATM   38  C   UNL     1     -10.581  19.566  66.586  1.00  0.00    -0.583 C  
HETATM   39  C   UNL     1      -9.551  19.355  67.695  1.00  0.00    -0.324 C  
HETATM   40  H   UNL     1      -9.527  17.560  68.873  1.00  0.00     0.000 HD 
ENDBRANCH  32  35
ENDBRANCH  31  32
ENDBRANCH  24  26
ENDBRANCH   6  24
TORSDOF 10
ENDMDL
MODEL      102
REMARK 921   NORMALIZED FREE ENERGY PREDICTED BY IDOCK:   -6.05 KCAL/MOL
REMARK 922        TOTAL FREE ENERGY PREDICTED BY IDOCK:  -10.93 KCAL/MOL
REMARK 923 INTER-LIGAND FREE ENERGY PREDICTED BY IDOCK:   -9.05 KCAL/MOL
REMARK 924 INTRA-LIGAND FREE ENERGY PREDICTED BY IDOCK:   -1.89 KCAL/MOL
REMARK 927      BINDING AFFINITY PREDICTED BY RF-SCORE:    0.00 PKD
ROOT
HETATM    1  C   UNL     1      -5.478  10.369  71.019  1.00  0.00    -0.087 C  
HETATM    2  C   UNL     1      -5.840  11.713  70.471  1.00  0.00    -0.128 A  
HETATM    3  C   UNL     1      -5.478  12.843  71.184  1.00  0.00    -0.153 A  
HETATM    4  N   UNL     1      -5.743  14.097  70.798  1.00  0.00    -0.174 NA 
HETATM    5  C   UNL     1      -6.430  14.232  69.663  1.00  0.00    -0.140 A  
HETATM    6  C   UNL     1      -6.494  11.936  69.261  1.00  0.00    -0.111 A  
HETATM    7  N   UNL     1      -6.797  13.192  68.887  1.00  0.00    -0.102 NA 
ENDROOT
BRANCH   5   8
HETATM    8  N   UNL     1      -6.753  15.548  69.326  1.00  0.00    -0.142 NA 
HETATM    9  H   UNL     1      -6.165  16.263  69.755  1.00  0.00     0.000 HD 
BRANCH   8  10
HETATM   10  C   UNL     1      -7.764  16.032  68.485  1.00  0.00    -0.158 A  
HETATM   11  C   UNL     1      -9.027  16.343  68.973  1.00  0.00    -0.239 A  
HETATM   12  C   UNL     1      -8.597  16.460  66.228  1.00  0.00    -0.375 A  
HETATM   13  C   UNL     1      -9.872  16.712  66.730  1.00  0.00    -0.273 A  
HETATM   14  C   UNL     1     -10.068  16.682  68.116  1.00  0.00    -0.267 A  
HETATM   15  C   UNL     1      -7.550  16.120  67.101  1.00  0.00    -0.237 A  
BRANCH  13  16
HETATM   16  O   UNL     1     -10.880  16.952  65.822  1.00  0.00    -0.212 OA 
BRANCH  16  17
HETATM   17  C   UNL     1     -10.899  15.981  64.773  1.00  0.00    -0.294 C  
BRANCH  17  18
HETATM   18  C   UNL     1     -12.196  15.176  64.677  1.00  0.00    -0.211 C  
BRANCH  18  19
HETATM   19  N   UNL     1     -11.867  13.742  64.639  1.00  0.00    -0.383 NA 
HETATM   20  C   UNL     1     -10.429  13.454  64.716  1.00  0.00    -0.403 C  
HETATM   21  C   UNL     1     -12.360  13.067  63.445  1.00  0.00    -0.394 C  
HETATM   22  C   UNL     1     -10.258  12.093  64.056  1.00  0.00    -0.396 C  
HETATM   23  C   UNL     1     -11.640  11.731  63.537  1.00  0.00    -0.487 C  
ENDBRANCH  18  19
ENDBRANCH  17  18
ENDBRANCH  16  17
ENDBRANCH  13  16
ENDBRANCH   8  10
ENDBRANCH   5   8
BRANCH   6  24
HETATM   24  N   UNL     1      -6.925  10.825  68.489  1.00  0.00    -0.065 NA 
HETATM   25  H   UNL     1      -6.156  10.278  68.101  1.00  0.00     0.000 HD 
BRANCH  24  26
HETATM   26  C   UNL     1      -8.204  10.319  68.149  1.00  0.00    -0.114 A  
HETATM   27  C   UNL     1      -9.227  11.070  67.562  1.00  0.00    -0.149 A  
HETATM   28  C   UNL     1      -8.533   9.016  68.566  1.00  0.00    -0.128 A  
HETATM   29  C   UNL     1     -10.527  10.558  67.405  1.00  0.00    -0.291 A  
HETATM   30  C   UNL     1     -10.850   9.289  67.883  1.00  0.00    -0.181 A  
HETATM   31  C   UNL     1      -9.851   8.529  68.488  1.00  0.00    -0.173 A  
BRANCH  31  32
HETATM   32  S   UNL     1     -10.240   6.917  69.122  1.00  0.00    -0.195 S  
HETATM   33  O   UNL     1     -10.404   6.040  67.982  1.00  0.00    -0.160 OA 
HETATM   34  O   UNL     1      -9.291   6.602  70.167  1.00  0.00    -0.158 OA 
BRANCH  32  35
HETATM   35  N   UNL     1     -11.775   7.064  69.791  1.00  0.00    -0.580 N  
HETATM   36  C   UNL     1     -13.626   7.407  71.347  1.00  0.00    -0.410 C  
HETATM   37  C   UNL     1     -11.619   6.178  72.117  1.00  0.00    -0.369 C  
HETATM   38  C   UNL     1     -11.507   8.663  71.677  1.00  0.00    -0.375 C  
HETATM   39  C   UNL     1     -12.088   7.326  71.218  1.00  0.00    -0.338 C  
HETATM   40  H   UNL     1     -12.566   6.963  69.156  1.00  0.00     0.000 HD 
ENDBRANCH  32  35
ENDBRANCH  31  32
ENDBRANCH  24  26
ENDBRANCH   6  24
TORSDOF 10
ENDMDL
MODEL      103
REMARK 921   NORMALIZED FREE ENERGY PREDICTED BY IDOCK:   -6.04 KCAL/MOL
REMARK 922        TOTAL FREE ENERGY PREDICTED BY IDOCK:  -10.92 KCAL/MOL
REMARK 923 INTER-LIGAND FREE ENERGY PREDICTED BY IDOCK:   -9.54 KCAL/MOL
REMARK 924 INTRA-LIGAND FREE ENERGY PREDICTED BY IDOCK:   -1.38 KCAL/MOL
REMARK 927      BINDING AFFINITY PREDICTED BY RF-SCORE:    0.00 PKD
ROOT
HETATM    1  C   UNL     1     -11.973  15.584  68.893  1.00  0.00    -0.306 C  
HETATM    2  C   UNL     1     -11.339  14.349  68.336  1.00  0.00    -0.312 A  
HETATM    3  C   UNL     1     -12.078  13.546  67.485  1.00  0.00    -0.300 A  
HETATM    4  N   UNL     1     -11.623  12.420  66.923  1.00  0.00    -0.381 NA 
HETATM    5  C   UNL     1     -10.382  12.058  67.249  1.00  0.00    -0.212 A  
HETATM    6  C   UNL     1     -10.027  13.943  68.575  1.00  0.00    -0.221 A  
HETATM    7  N   UNL     1      -9.578  12.792  68.045  1.00  0.00    -0.211 NA 
ENDROOT
BRANCH   5   8
HETATM    8  N   UNL     1      -9.963  10.842  66.704  1.00  0.00    -0.201 NA 
HETATM    9  H   UNL     1      -9.707  10.874  65.718  1.00  0.00     0.000 HD 
BRANCH   8  10
HETATM   10  C   UNL     1      -9.844   9.586  67.313  1.00  0.00    -0.177 A  
HETATM   11  C   UNL     1     -10.760   8.570  67.069  1.00  0.00    -0.190 A  
HETATM   12  C   UNL     1      -8.797   8.153  68.994  1.00  0.00    -0.144 A  
HETATM   13  C   UNL     1      -9.759   7.171  68.778  1.00  0.00    -0.145 A  
HETATM   14  C   UNL     1     -10.722   7.378  67.783  1.00  0.00    -0.249 A  
HETATM   15  C   UNL     1      -8.840   9.355  68.267  1.00  0.00    -0.128 A  
BRANCH  13  16
HETATM   16  O   UNL     1      -9.721   6.052  69.581  1.00  0.00    -0.147 OA 
BRANCH  16  17
HETATM   17  C   UNL     1     -11.019   5.688  70.056  1.00  0.00    -0.241 C  
BRANCH  17  18
HETATM   18  C   UNL     1     -11.386   6.280  71.418  1.00  0.00    -0.296 C  
BRANCH  18  19
HETATM   19  N   UNL     1     -12.231   7.467  71.213  1.00  0.00    -0.323 NA 
HETATM   20  C   UNL     1     -11.749   8.673  71.900  1.00  0.00    -0.352 C  
HETATM   21  C   UNL     1     -13.611   7.275  71.638  1.00  0.00    -0.349 C  
HETATM   22  C   UNL     1     -12.983   9.541  72.099  1.00  0.00    -0.497 C  
HETATM   23  C   UNL     1     -14.142   8.698  71.589  1.00  0.00    -0.468 C  
ENDBRANCH  18  19
ENDBRANCH  17  18
ENDBRANCH  16  17
ENDBRANCH  13  16
ENDBRANCH   8  10
ENDBRANCH   5   8
BRANCH   6  24
HETATM   24  N   UNL     1      -9.218  14.699  69.463  1.00  0.00    -0.405 NA 
HETATM   25  H   UNL     1      -9.700  14.971  70.320  1.00  0.00     0.000 HD 
BRANCH  24  26
HETATM   26  C   UNL     1      -7.876  15.152  69.404  1.00  0.00    -0.208 A  
HETATM   27  C   UNL     1      -6.756  14.365  69.690  1.00  0.00    -0.137 A  
HETATM   28  C   UNL     1      -7.650  16.526  69.198  1.00  0.00    -0.210 A  
HETATM   29  C   UNL     1      -5.466  14.916  69.779  1.00  0.00    -0.098 A  
HETATM   30  C   UNL     1      -5.271  16.288  69.636  1.00  0.00    -0.124 A  
HETATM   31  C   UNL     1      -6.375  17.095  69.368  1.00  0.00    -0.238 A  
BRANCH  31  32
HETATM   32  S   UNL     1      -6.158  18.849  69.200  1.00  0.00    -0.254 S  
HETATM   33  O   UNL     1      -5.885  19.372  70.523  1.00  0.00    -0.240 OA 
HETATM   34  O   UNL     1      -5.241  19.088  68.107  1.00  0.00    -0.175 OA 
BRANCH  32  35
HETATM   35  N   UNL     1      -7.675  19.446  68.793  1.00  0.00    -0.358 N  
HETATM   36  C   UNL     1      -9.572  20.377  67.568  1.00  0.00    -0.560 C  
HETATM   37  C   UNL     1      -7.297  21.243  67.105  1.00  0.00    -0.067 C  
HETATM   38  C   UNL     1      -7.953  18.914  66.380  1.00  0.00    -0.300 C  
HETATM   39  C   UNL     1      -8.082  19.978  67.468  1.00  0.00    -0.316 C  
HETATM   40  H   UNL     1      -8.384  19.443  69.526  1.00  0.00     0.000 HD 
ENDBRANCH  32  35
ENDBRANCH  31  32
ENDBRANCH  24  26
ENDBRANCH   6  24
TORSDOF 10
ENDMDL
MODEL      104
REMARK 921   NORMALIZED FREE ENERGY PREDICTED BY IDOCK:   -6.02 KCAL/MOL
REMARK 922        TOTAL FREE ENERGY PREDICTED BY IDOCK:  -10.88 KCAL/MOL
REMARK 923 INTER-LIGAND FREE ENERGY PREDICTED BY IDOCK:   -9.74 KCAL/MOL
REMARK 924 INTRA-LIGAND FREE ENERGY PREDICTED BY IDOCK:   -1.15 KCAL/MOL
REMARK 927      BINDING AFFINITY PREDICTED BY RF-SCORE:    0.00 PKD
ROOT
HETATM    1  C   UNL     1      -8.502   9.246  62.611  1.00  0.00    -0.209 C  
HETATM    2  C   UNL     1      -9.332  10.139  63.477  1.00  0.00    -0.333 A  
HETATM    3  C   UNL     1      -9.785  11.339  62.957  1.00  0.00    -0.366 A  
HETATM    4  N   UNL     1     -10.536  12.220  63.631  1.00  0.00    -0.441 NA 
HETATM    5  C   UNL     1     -10.821  11.905  64.895  1.00  0.00    -0.305 A  
HETATM    6  C   UNL     1      -9.729   9.848  64.781  1.00  0.00    -0.235 A  
HETATM    7  N   UNL     1     -10.449  10.747  65.476  1.00  0.00    -0.230 NA 
ENDROOT
BRANCH   5   8
HETATM    8  N   UNL     1     -11.542  12.877  65.593  1.00  0.00    -0.343 NA 
HETATM    9  H   UNL     1     -12.552  12.735  65.615  1.00  0.00     0.000 HD 
BRANCH   8  10
HETATM   10  C   UNL     1     -11.083  14.017  66.265  1.00  0.00    -0.307 A  
HETATM   11  C   UNL     1      -9.852  14.589  65.969  1.00  0.00    -0.342 A  
HETATM   12  C   UNL     1     -11.308  15.604  68.111  1.00  0.00    -0.340 A  
HETATM   13  C   UNL     1     -10.046  16.125  67.836  1.00  0.00    -0.244 A  
HETATM   14  C   UNL     1      -9.337  15.629  66.735  1.00  0.00    -0.268 A  
HETATM   15  C   UNL     1     -11.822  14.554  67.331  1.00  0.00    -0.416 A  
BRANCH  13  16
HETATM   16  O   UNL     1      -9.554  17.090  68.687  1.00  0.00    -0.257 OA 
BRANCH  16  17
HETATM   17  C   UNL     1      -8.126  17.136  68.678  1.00  0.00    -0.264 C  
BRANCH  17  18
HETATM   18  C   UNL     1      -7.537  18.534  68.479  1.00  0.00    -0.306 C  
BRANCH  18  19
HETATM   19  N   UNL     1      -7.515  18.845  67.041  1.00  0.00    -0.214 NA 
HETATM   20  C   UNL     1      -6.556  18.045  66.269  1.00  0.00    -0.241 C  
HETATM   21  C   UNL     1      -7.211  20.241  66.756  1.00  0.00    -0.267 C  
HETATM   22  C   UNL     1      -6.229  18.884  65.042  1.00  0.00    -0.294 C  
HETATM   23  C   UNL     1      -6.969  20.195  65.256  1.00  0.00    -0.300 C  
ENDBRANCH  18  19
ENDBRANCH  17  18
ENDBRANCH  16  17
ENDBRANCH  13  16
ENDBRANCH   8  10
ENDBRANCH   5   8
BRANCH   6  24
HETATM   24  N   UNL     1      -9.276   8.650  65.394  1.00  0.00    -0.426 NA 
HETATM   25  H   UNL     1      -9.534   7.808  64.878  1.00  0.00     0.000 HD 
BRANCH  24  26
HETATM   26  C   UNL     1      -8.539   8.383  66.574  1.00  0.00    -0.120 A  
HETATM   27  C   UNL     1      -7.350   7.648  66.622  1.00  0.00    -0.088 A  
HETATM   28  C   UNL     1      -9.112   8.743  67.808  1.00  0.00    -0.143 A  
HETATM   29  C   UNL     1      -6.758   7.274  67.840  1.00  0.00    -0.061 A  
HETATM   30  C   UNL     1      -7.374   7.584  69.051  1.00  0.00    -0.087 A  
HETATM   31  C   UNL     1      -8.569   8.300  69.028  1.00  0.00    -0.135 A  
BRANCH  31  32
HETATM   32  S   UNL     1      -9.385   8.692  70.556  1.00  0.00    -0.188 S  
HETATM   33  O   UNL     1      -8.400   9.317  71.414  1.00  0.00    -0.323 OA 
HETATM   34  O   UNL     1     -10.628   9.363  70.245  1.00  0.00    -0.214 OA 
BRANCH  32  35
HETATM   35  N   UNL     1      -9.718   7.209  71.272  1.00  0.00    -0.170 N  
HETATM   36  C   UNL     1     -10.794   5.117  71.930  1.00  0.00    -0.171 C  
HETATM   37  C   UNL     1     -12.180   7.154  71.669  1.00  0.00    -0.385 C  
HETATM   38  C   UNL     1     -11.177   6.020  69.647  1.00  0.00    -0.428 C  
HETATM   39  C   UNL     1     -10.961   6.414  71.107  1.00  0.00    -0.275 C  
HETATM   40  H   UNL     1      -8.998   6.817  71.878  1.00  0.00     0.000 HD 
ENDBRANCH  32  35
ENDBRANCH  31  32
ENDBRANCH  24  26
ENDBRANCH   6  24
TORSDOF 10
ENDMDL
MODEL      105
REMARK 921   NORMALIZED FREE ENERGY PREDICTED BY IDOCK:   -6.02 KCAL/MOL
REMARK 922        TOTAL FREE ENERGY PREDICTED BY IDOCK:  -10.88 KCAL/MOL
REMARK 923 INTER-LIGAND FREE ENERGY PREDICTED BY IDOCK:   -9.27 KCAL/MOL
REMARK 924 INTRA-LIGAND FREE ENERGY PREDICTED BY IDOCK:   -1.61 KCAL/MOL
REMARK 927      BINDING AFFINITY PREDICTED BY RF-SCORE:    0.00 PKD
ROOT
HETATM    1  C   UNL     1      -7.768   4.772  66.314  1.00  0.00    -0.091 C  
HETATM    2  C   UNL     1      -7.859   6.264  66.329  1.00  0.00    -0.104 A  
HETATM    3  C   UNL     1      -8.271   6.919  65.181  1.00  0.00    -0.115 A  
HETATM    4  N   UNL     1      -8.394   8.248  65.071  1.00  0.00    -0.160 NA 
HETATM    5  C   UNL     1      -8.059   8.961  66.147  1.00  0.00    -0.114 A  
HETATM    6  C   UNL     1      -7.594   7.073  67.433  1.00  0.00    -0.109 A  
HETATM    7  N   UNL     1      -7.677   8.410  67.317  1.00  0.00    -0.097 NA 
ENDROOT
BRANCH   5   8
HETATM    8  N   UNL     1      -8.129  10.346  65.977  1.00  0.00    -0.137 NA 
HETATM    9  H   UNL     1      -7.367  10.756  65.437  1.00  0.00     0.000 HD 
BRANCH   8  10
HETATM   10  C   UNL     1      -9.091  11.254  66.437  1.00  0.00    -0.192 A  
HETATM   11  C   UNL     1     -10.418  10.880  66.615  1.00  0.00    -0.307 A  
HETATM   12  C   UNL     1      -9.735  13.553  66.958  1.00  0.00    -0.251 A  
HETATM   13  C   UNL     1     -11.069  13.169  67.073  1.00  0.00    -0.279 A  
HETATM   14  C   UNL     1     -11.396  11.816  66.931  1.00  0.00    -0.386 A  
HETATM   15  C   UNL     1      -8.753  12.601  66.640  1.00  0.00    -0.084 A  
BRANCH  13  16
HETATM   16  O   UNL     1     -12.001  14.159  67.297  1.00  0.00    -0.397 OA 
BRANCH  16  17
HETATM   17  C   UNL     1     -11.761  14.854  68.523  1.00  0.00    -0.310 C  
BRANCH  17  18
HETATM   18  C   UNL     1     -12.231  14.114  69.776  1.00  0.00    -0.344 C  
BRANCH  18  19
HETATM   19  N   UNL     1     -12.678  15.097  70.775  1.00  0.00    -0.377 NA 
HETATM   20  C   UNL     1     -11.586  15.842  71.413  1.00  0.00    -0.464 C  
HETATM   21  C   UNL     1     -13.461  14.510  71.854  1.00  0.00    -0.378 C  
HETATM   22  C   UNL     1     -12.139  16.291  72.758  1.00  0.00    -0.637 C  
HETATM   23  C   UNL     1     -13.520  15.662  72.844  1.00  0.00    -0.657 C  
ENDBRANCH  18  19
ENDBRANCH  17  18
ENDBRANCH  16  17
ENDBRANCH  13  16
ENDBRANCH   8  10
ENDBRANCH   5   8
BRANCH   6  24
HETATM   24  N   UNL     1      -7.135   6.476  68.636  1.00  0.00    -0.080 NA 
HETATM   25  H   UNL     1      -6.125   6.335  68.660  1.00  0.00     0.000 HD 
BRANCH  24  26
HETATM   26  C   UNL     1      -7.792   6.035  69.812  1.00  0.00    -0.101 A  
HETATM   27  C   UNL     1      -8.196   4.718  70.052  1.00  0.00    -0.068 A  
HETATM   28  C   UNL     1      -8.213   7.006  70.739  1.00  0.00    -0.121 A  
HETATM   29  C   UNL     1      -8.993   4.376  71.159  1.00  0.00    -0.167 A  
HETATM   30  C   UNL     1      -9.453   5.361  72.030  1.00  0.00    -0.172 A  
HETATM   31  C   UNL     1      -9.079   6.684  71.800  1.00  0.00    -0.144 A  
BRANCH  31  32
HETATM   32  S   UNL     1      -9.668   7.961  72.884  1.00  0.00    -0.287 S  
HETATM   33  O   UNL     1     -10.775   7.405  73.632  1.00  0.00    -0.371 OA 
HETATM   34  O   UNL     1      -8.529   8.535  73.566  1.00  0.00    -0.365 OA 
BRANCH  32  35
HETATM   35  N   UNL     1     -10.352   9.118  71.874  1.00  0.00    -0.283 N  
HETATM   36  C   UNL     1     -11.907  10.370  70.468  1.00  0.00    -0.430 C  
HETATM   37  C   UNL     1     -11.903   7.896  70.351  1.00  0.00     0.059 C  
HETATM   38  C   UNL     1     -12.781   9.080  72.402  1.00  0.00    -0.433 C  
HETATM   39  C   UNL     1     -11.721   9.083  71.302  1.00  0.00    -0.313 C  
HETATM   40  H   UNL     1      -9.771   9.920  71.632  1.00  0.00     0.000 HD 
ENDBRANCH  32  35
ENDBRANCH  31  32
ENDBRANCH  24  26
ENDBRANCH   6  24
TORSDOF 10
ENDMDL
MODEL      106
REMARK 921   NORMALIZED FREE ENERGY PREDICTED BY IDOCK:   -6.01 KCAL/MOL
REMARK 922        TOTAL FREE ENERGY PREDICTED BY IDOCK:  -10.87 KCAL/MOL
REMARK 923 INTER-LIGAND FREE ENERGY PREDICTED BY IDOCK:  -10.21 KCAL/MOL
REMARK 924 INTRA-LIGAND FREE ENERGY PREDICTED BY IDOCK:   -0.66 KCAL/MOL
REMARK 927      BINDING AFFINITY PREDICTED BY RF-SCORE:    0.00 PKD
ROOT
HETATM    1  C   UNL     1     -11.829  11.690  64.422  1.00  0.00    -0.178 C  
HETATM    2  C   UNL     1     -11.557  12.878  65.288  1.00  0.00    -0.376 A  
HETATM    3  C   UNL     1     -11.710  14.144  64.751  1.00  0.00    -0.410 A  
HETATM    4  N   UNL     1     -11.499  15.282  65.424  1.00  0.00    -0.245 NA 
HETATM    5  C   UNL     1     -11.083  15.153  66.684  1.00  0.00    -0.308 A  
HETATM    6  C   UNL     1     -11.187  12.824  66.632  1.00  0.00    -0.301 A  
HETATM    7  N   UNL     1     -10.935  13.964  67.301  1.00  0.00    -0.286 NA 
ENDROOT
BRANCH   5   8
HETATM    8  N   UNL     1     -10.802  16.357  67.335  1.00  0.00    -0.269 NA 
HETATM    9  H   UNL     1     -11.410  16.575  68.124  1.00  0.00     0.000 HD 
BRANCH   8  10
HETATM   10  C   UNL     1      -9.809  17.307  67.063  1.00  0.00    -0.281 A  
HETATM   11  C   UNL     1     -10.052  18.669  67.192  1.00  0.00    -0.391 A  
HETATM   12  C   UNL     1      -7.611  17.849  66.141  1.00  0.00    -0.295 A  
HETATM   13  C   UNL     1      -7.896  19.209  66.222  1.00  0.00    -0.293 A  
HETATM   14  C   UNL     1      -9.114  19.611  66.783  1.00  0.00    -0.424 A  
HETATM   15  C   UNL     1      -8.564  16.903  66.558  1.00  0.00    -0.305 A  
BRANCH  13  16
HETATM   16  O   UNL     1      -6.963  20.088  65.717  1.00  0.00    -0.264 OA 
BRANCH  16  17
HETATM   17  C   UNL     1      -6.546  21.047  66.691  1.00  0.00    -0.288 C  
BRANCH  17  18
HETATM   18  C   UNL     1      -5.310  20.640  67.494  1.00  0.00    -0.193 C  
BRANCH  18  19
HETATM   19  N   UNL     1      -5.738  20.112  68.799  1.00  0.00    -0.244 NA 
HETATM   20  C   UNL     1      -5.339  20.942  69.942  1.00  0.00    -0.355 C  
HETATM   21  C   UNL     1      -5.241  18.770  69.071  1.00  0.00    -0.192 C  
HETATM   22  C   UNL     1      -5.293  19.992  71.131  1.00  0.00    -0.317 C  
HETATM   23  C   UNL     1      -5.577  18.618  70.545  1.00  0.00    -0.201 C  
ENDBRANCH  18  19
ENDBRANCH  17  18
ENDBRANCH  16  17
ENDBRANCH  13  16
ENDBRANCH   8  10
ENDBRANCH   5   8
BRANCH   6  24
HETATM   24  N   UNL     1     -10.980  11.561  67.244  1.00  0.00    -0.255 NA 
HETATM   25  H   UNL     1     -10.454  10.909  66.661  1.00  0.00     0.000 HD 
BRANCH  24  26
HETATM   26  C   UNL     1     -11.352  11.019  68.499  1.00  0.00    -0.287 A  
HETATM   27  C   UNL     1     -11.813  11.769  69.586  1.00  0.00    -0.407 A  
HETATM   28  C   UNL     1     -11.098   9.655  68.733  1.00  0.00    -0.093 A  
HETATM   29  C   UNL     1     -12.004  11.196  70.855  1.00  0.00    -0.362 A  
HETATM   30  C   UNL     1     -11.686   9.859  71.083  1.00  0.00    -0.478 A  
HETATM   31  C   UNL     1     -11.208   9.095  70.019  1.00  0.00    -0.150 A  
BRANCH  31  32
HETATM   32  S   UNL     1     -10.777   7.394  70.287  1.00  0.00    -0.240 S  
HETATM   33  O   UNL     1     -10.239   7.298  71.628  1.00  0.00    -0.193 OA 
HETATM   34  O   UNL     1     -11.897   6.575  69.879  1.00  0.00    -0.381 OA 
BRANCH  32  35
HETATM   35  N   UNL     1      -9.474   7.102  69.265  1.00  0.00    -0.153 N  
HETATM   36  C   UNL     1      -8.093   6.405  67.376  1.00  0.00    -0.116 C  
HETATM   37  C   UNL     1      -9.951   4.942  68.113  1.00  0.00    -0.171 C  
HETATM   38  C   UNL     1     -10.430   7.144  66.971  1.00  0.00    -0.392 C  
HETATM   39  C   UNL     1      -9.525   6.406  67.956  1.00  0.00    -0.116 C  
HETATM   40  H   UNL     1      -8.561   7.435  69.575  1.00  0.00     0.000 HD 
ENDBRANCH  32  35
ENDBRANCH  31  32
ENDBRANCH  24  26
ENDBRANCH   6  24
TORSDOF 10
ENDMDL
MODEL      107
REMARK 921   NORMALIZED FREE ENERGY PREDICTED BY IDOCK:   -6.01 KCAL/MOL
REMARK 922        TOTAL FREE ENERGY PREDICTED BY IDOCK:  -10.87 KCAL/MOL
REMARK 923 INTER-LIGAND FREE ENERGY PREDICTED BY IDOCK:   -9.54 KCAL/MOL
REMARK 924 INTRA-LIGAND FREE ENERGY PREDICTED BY IDOCK:   -1.33 KCAL/MOL
REMARK 927      BINDING AFFINITY PREDICTED BY RF-SCORE:    0.00 PKD
ROOT
HETATM    1  C   UNL     1     -10.417   8.565  66.650  1.00  0.00    -0.235 C  
HETATM    2  C   UNL     1     -10.484  10.028  66.951  1.00  0.00    -0.284 A  
HETATM    3  C   UNL     1      -9.980  10.923  66.024  1.00  0.00    -0.240 A  
HETATM    4  N   UNL     1      -9.984  12.253  66.176  1.00  0.00    -0.238 NA 
HETATM    5  C   UNL     1     -10.485  12.713  67.323  1.00  0.00    -0.228 A  
HETATM    6  C   UNL     1     -11.055  10.587  68.093  1.00  0.00    -0.287 A  
HETATM    7  N   UNL     1     -11.026  11.921  68.270  1.00  0.00    -0.215 NA 
ENDROOT
BRANCH   5   8
HETATM    8  N   UNL     1     -10.408  14.099  67.483  1.00  0.00    -0.247 NA 
HETATM    9  H   UNL     1     -11.303  14.587  67.473  1.00  0.00     0.000 HD 
BRANCH   8  10
HETATM   10  C   UNL     1      -9.283  14.916  67.655  1.00  0.00    -0.187 A  
HETATM   11  C   UNL     1      -8.775  15.196  68.917  1.00  0.00    -0.205 A  
HETATM   12  C   UNL     1      -7.663  16.490  66.721  1.00  0.00    -0.294 A  
HETATM   13  C   UNL     1      -7.208  16.802  68.000  1.00  0.00    -0.157 A  
HETATM   14  C   UNL     1      -7.752  16.120  69.094  1.00  0.00    -0.230 A  
HETATM   15  C   UNL     1      -8.697  15.553  66.550  1.00  0.00    -0.340 A  
BRANCH  13  16
HETATM   16  O   UNL     1      -6.256  17.793  68.114  1.00  0.00    -0.168 OA 
BRANCH  16  17
HETATM   17  C   UNL     1      -6.584  18.944  67.334  1.00  0.00    -0.194 C  
BRANCH  17  18
HETATM   18  C   UNL     1      -7.319  20.043  68.102  1.00  0.00    -0.280 C  
BRANCH  18  19
HETATM   19  N   UNL     1      -8.691  20.156  67.583  1.00  0.00    -0.323 NA 
HETATM   20  C   UNL     1      -9.685  19.388  68.343  1.00  0.00    -0.408 C  
HETATM   21  C   UNL     1      -8.821  19.736  66.194  1.00  0.00    -0.336 C  
HETATM   22  C   UNL     1     -10.818  19.117  67.363  1.00  0.00    -0.533 C  
HETATM   23  C   UNL     1     -10.331  19.678  66.037  1.00  0.00    -0.620 C  
ENDBRANCH  18  19
ENDBRANCH  17  18
ENDBRANCH  16  17
ENDBRANCH  13  16
ENDBRANCH   8  10
ENDBRANCH   5   8
BRANCH   6  24
HETATM   24  N   UNL     1     -11.565   9.732  69.105  1.00  0.00    -0.457 NA 
HETATM   25  H   UNL     1     -12.584   9.694  69.129  1.00  0.00     0.000 HD 
BRANCH  24  26
HETATM   26  C   UNL     1     -10.948   8.918  70.088  1.00  0.00    -0.227 A  
HETATM   27  C   UNL     1     -10.456   9.382  71.311  1.00  0.00    -0.385 A  
HETATM   28  C   UNL     1     -10.665   7.580  69.756  1.00  0.00    -0.249 A  
HETATM   29  C   UNL     1      -9.704   8.559  72.169  1.00  0.00    -0.387 A  
HETATM   30  C   UNL     1      -9.379   7.257  71.794  1.00  0.00    -0.161 A  
HETATM   31  C   UNL     1      -9.843   6.778  70.570  1.00  0.00    -0.176 A  
BRANCH  31  32
HETATM   32  S   UNL     1      -9.428   5.129  70.061  1.00  0.00    -0.175 S  
HETATM   33  O   UNL     1      -7.988   5.081  69.913  1.00  0.00    -0.072 OA 
HETATM   34  O   UNL     1     -10.113   4.200  70.932  1.00  0.00    -0.172 OA 
BRANCH  32  35
HETATM   35  N   UNL     1     -10.038   4.981  68.501  1.00  0.00    -0.144 N  
HETATM   36  C   UNL     1     -10.287   4.479  66.125  1.00  0.00    -0.258 C  
HETATM   37  C   UNL     1      -8.113   5.327  66.954  1.00  0.00    -0.104 C  
HETATM   38  C   UNL     1      -8.887   2.996  67.544  1.00  0.00    -0.163 C  
HETATM   39  C   UNL     1      -9.312   4.447  67.322  1.00  0.00    -0.155 C  
HETATM   40  H   UNL     1     -10.999   5.287  68.351  1.00  0.00     0.000 HD 
ENDBRANCH  32  35
ENDBRANCH  31  32
ENDBRANCH  24  26
ENDBRANCH   6  24
TORSDOF 10
ENDMDL
MODEL      108
REMARK 921   NORMALIZED FREE ENERGY PREDICTED BY IDOCK:   -6.00 KCAL/MOL
REMARK 922        TOTAL FREE ENERGY PREDICTED BY IDOCK:  -10.85 KCAL/MOL
REMARK 923 INTER-LIGAND FREE ENERGY PREDICTED BY IDOCK:   -9.74 KCAL/MOL
REMARK 924 INTRA-LIGAND FREE ENERGY PREDICTED BY IDOCK:   -1.12 KCAL/MOL
REMARK 927      BINDING AFFINITY PREDICTED BY RF-SCORE:    0.00 PKD
ROOT
HETATM    1  C   UNL     1      -8.584   6.101  67.125  1.00  0.00    -0.103 C  
HETATM    2  C   UNL     1      -9.167   7.407  66.687  1.00  0.00    -0.196 A  
HETATM    3  C   UNL     1      -8.583   8.076  65.626  1.00  0.00    -0.145 A  
HETATM    4  N   UNL     1      -9.013   9.248  65.142  1.00  0.00    -0.208 NA 
HETATM    5  C   UNL     1     -10.056   9.796  65.767  1.00  0.00    -0.238 A  
HETATM    6  C   UNL     1     -10.295   8.008  67.244  1.00  0.00    -0.301 A  
HETATM    7  N   UNL     1     -10.708   9.204  66.788  1.00  0.00    -0.122 NA 
ENDROOT
BRANCH   5   8
HETATM    8  N   UNL     1     -10.435  11.051  65.285  1.00  0.00    -0.269 NA 
HETATM    9  H   UNL     1     -10.594  11.100  64.279  1.00  0.00     0.000 HD 
BRANCH   8  10
HETATM   10  C   UNL     1     -10.628  12.252  65.980  1.00  0.00    -0.254 A  
HETATM   11  C   UNL     1     -11.889  12.823  66.107  1.00  0.00    -0.484 A  
HETATM   12  C   UNL     1      -9.689  14.237  67.052  1.00  0.00    -0.253 A  
HETATM   13  C   UNL     1     -10.953  14.818  67.117  1.00  0.00    -0.320 A  
HETATM   14  C   UNL     1     -12.057  14.083  66.669  1.00  0.00    -0.487 A  
HETATM   15  C   UNL     1      -9.528  12.962  66.485  1.00  0.00    -0.251 A  
BRANCH  13  16
HETATM   16  O   UNL     1     -11.040  16.106  67.601  1.00  0.00    -0.301 OA 
BRANCH  16  17
HETATM   17  C   UNL     1     -10.456  17.055  66.707  1.00  0.00    -0.257 C  
BRANCH  17  18
HETATM   18  C   UNL     1     -10.521  18.505  67.188  1.00  0.00    -0.409 C  
BRANCH  18  19
HETATM   19  N   UNL     1      -9.152  19.017  67.358  1.00  0.00    -0.291 NA 
HETATM   20  C   UNL     1      -8.109  18.120  66.843  1.00  0.00    -0.237 C  
HETATM   21  C   UNL     1      -8.806  19.297  68.745  1.00  0.00    -0.346 C  
HETATM   22  C   UNL     1      -6.853  18.473  67.628  1.00  0.00    -0.206 C  
HETATM   23  C   UNL     1      -7.305  19.511  68.644  1.00  0.00    -0.381 C  
ENDBRANCH  18  19
ENDBRANCH  17  18
ENDBRANCH  16  17
ENDBRANCH  13  16
ENDBRANCH   8  10
ENDBRANCH   5   8
BRANCH   6  24
HETATM   24  N   UNL     1     -10.929   7.397  68.357  1.00  0.00    -0.438 NA 
HETATM   25  H   UNL     1     -11.413   6.529  68.123  1.00  0.00     0.000 HD 
BRANCH  24  26
HETATM   26  C   UNL     1     -11.029   7.744  69.727  1.00  0.00    -0.158 A  
HETATM   27  C   UNL     1     -11.067   9.053  70.216  1.00  0.00    -0.263 A  
HETATM   28  C   UNL     1     -10.925   6.714  70.680  1.00  0.00    -0.329 A  
HETATM   29  C   UNL     1     -10.995   9.334  71.592  1.00  0.00    -0.433 A  
HETATM   30  C   UNL     1     -10.828   8.304  72.516  1.00  0.00    -0.421 A  
HETATM   31  C   UNL     1     -10.768   6.992  72.051  1.00  0.00    -0.215 A  
BRANCH  31  32
HETATM   32  S   UNL     1     -10.536   5.663  73.205  1.00  0.00    -0.266 S  
HETATM   33  O   UNL     1     -10.267   6.264  74.495  1.00  0.00    -0.330 OA 
HETATM   34  O   UNL     1     -11.624   4.725  73.039  1.00  0.00    -0.257 OA 
BRANCH  32  35
HETATM   35  N   UNL     1      -9.095   4.928  72.750  1.00  0.00    -0.126 N  
HETATM   36  C   UNL     1      -7.385   3.276  72.194  1.00  0.00    -0.051 C  
HETATM   37  C   UNL     1      -8.918   2.831  74.088  1.00  0.00    -0.081 C  
HETATM   38  C   UNL     1      -9.770   2.773  71.711  1.00  0.00    -0.225 C  
HETATM   39  C   UNL     1      -8.833   3.468  72.697  1.00  0.00    -0.085 C  
HETATM   40  H   UNL     1      -8.327   5.544  72.484  1.00  0.00     0.000 HD 
ENDBRANCH  32  35
ENDBRANCH  31  32
ENDBRANCH  24  26
ENDBRANCH   6  24
TORSDOF 10
ENDMDL
MODEL      109
REMARK 921   NORMALIZED FREE ENERGY PREDICTED BY IDOCK:   -5.99 KCAL/MOL
REMARK 922        TOTAL FREE ENERGY PREDICTED BY IDOCK:  -10.85 KCAL/MOL
REMARK 923 INTER-LIGAND FREE ENERGY PREDICTED BY IDOCK:   -9.69 KCAL/MOL
REMARK 924 INTRA-LIGAND FREE ENERGY PREDICTED BY IDOCK:   -1.16 KCAL/MOL
REMARK 927      BINDING AFFINITY PREDICTED BY RF-SCORE:    0.00 PKD
ROOT
HETATM    1  C   UNL     1      -8.774   5.685  67.144  1.00  0.00    -0.108 C  
HETATM    2  C   UNL     1      -9.308   7.046  66.832  1.00  0.00    -0.185 A  
HETATM    3  C   UNL     1      -8.703   7.787  65.832  1.00  0.00    -0.149 A  
HETATM    4  N   UNL     1      -9.089   9.014  65.459  1.00  0.00    -0.218 NA 
HETATM    5  C   UNL     1     -10.107   9.542  66.139  1.00  0.00    -0.256 A  
HETATM    6  C   UNL     1     -10.409   7.637  67.449  1.00  0.00    -0.277 A  
HETATM    7  N   UNL     1     -10.777   8.885  67.107  1.00  0.00    -0.216 NA 
ENDROOT
BRANCH   5   8
HETATM    8  N   UNL     1     -10.438  10.849  65.776  1.00  0.00    -0.236 NA 
HETATM    9  H   UNL     1     -10.448  11.032  64.773  1.00  0.00     0.000 HD 
BRANCH   8  10
HETATM   10  C   UNL     1     -10.760  11.946  66.587  1.00  0.00    -0.256 A  
HETATM   11  C   UNL     1     -11.795  12.813  66.260  1.00  0.00    -0.485 A  
HETATM   12  C   UNL     1     -10.189  13.428  68.445  1.00  0.00    -0.251 A  
HETATM   13  C   UNL     1     -11.194  14.314  68.066  1.00  0.00    -0.280 A  
HETATM   14  C   UNL     1     -12.017  13.978  66.985  1.00  0.00    -0.472 A  
HETATM   15  C   UNL     1      -9.972  12.251  67.708  1.00  0.00    -0.200 A  
BRANCH  13  16
HETATM   16  O   UNL     1     -11.303  15.494  68.769  1.00  0.00    -0.292 OA 
BRANCH  16  17
HETATM   17  C   UNL     1     -10.316  16.449  68.371  1.00  0.00    -0.282 C  
BRANCH  17  18
HETATM   18  C   UNL     1     -10.259  17.704  69.243  1.00  0.00    -0.147 C  
BRANCH  18  19
HETATM   19  N   UNL     1     -10.407  18.891  68.386  1.00  0.00    -0.346 NA 
HETATM   20  C   UNL     1     -10.604  18.582  66.964  1.00  0.00    -0.380 C  
HETATM   21  C   UNL     1      -9.273  19.802  68.457  1.00  0.00    -0.265 C  
HETATM   22  C   UNL     1     -10.118  19.815  66.215  1.00  0.00    -0.601 C  
HETATM   23  C   UNL     1      -9.562  20.734  67.292  1.00  0.00    -0.494 C  
ENDBRANCH  18  19
ENDBRANCH  17  18
ENDBRANCH  16  17
ENDBRANCH  13  16
ENDBRANCH   8  10
ENDBRANCH   5   8
BRANCH   6  24
HETATM   24  N   UNL     1     -11.062   6.952  68.507  1.00  0.00    -0.493 NA 
HETATM   25  H   UNL     1     -11.629   6.164  68.192  1.00  0.00     0.000 HD 
BRANCH  24  26
HETATM   26  C   UNL     1     -11.088   7.137  69.912  1.00  0.00    -0.235 A  
HETATM   27  C   UNL     1     -11.176   8.378  70.550  1.00  0.00    -0.252 A  
HETATM   28  C   UNL     1     -10.853   6.018  70.732  1.00  0.00    -0.358 A  
HETATM   29  C   UNL     1     -11.026   8.509  71.942  1.00  0.00    -0.394 A  
HETATM   30  C   UNL     1     -10.730   7.398  72.729  1.00  0.00    -0.362 A  
HETATM   31  C   UNL     1     -10.619   6.153  72.113  1.00  0.00    -0.209 A  
BRANCH  31  32
HETATM   32  S   UNL     1     -10.223   4.724  73.089  1.00  0.00    -0.181 S  
HETATM   33  O   UNL     1     -11.179   4.675  74.176  1.00  0.00    -0.257 OA 
HETATM   34  O   UNL     1     -10.060   3.598  72.197  1.00  0.00    -0.168 OA 
BRANCH  32  35
HETATM   35  N   UNL     1      -8.748   5.077  73.813  1.00  0.00    -0.109 N  
HETATM   36  C   UNL     1      -6.361   5.249  74.296  1.00  0.00    -0.068 C  
HETATM   37  C   UNL     1      -7.246   3.145  73.336  1.00  0.00    -0.046 C  
HETATM   38  C   UNL     1      -7.129   5.243  71.934  1.00  0.00    -0.079 C  
HETATM   39  C   UNL     1      -7.409   4.668  73.321  1.00  0.00    -0.082 C  
HETATM   40  H   UNL     1      -8.776   5.626  74.673  1.00  0.00     0.000 HD 
ENDBRANCH  32  35
ENDBRANCH  31  32
ENDBRANCH  24  26
ENDBRANCH   6  24
TORSDOF 10
ENDMDL
MODEL      110
REMARK 921   NORMALIZED FREE ENERGY PREDICTED BY IDOCK:   -5.99 KCAL/MOL
REMARK 922        TOTAL FREE ENERGY PREDICTED BY IDOCK:  -10.84 KCAL/MOL
REMARK 923 INTER-LIGAND FREE ENERGY PREDICTED BY IDOCK:   -9.79 KCAL/MOL
REMARK 924 INTRA-LIGAND FREE ENERGY PREDICTED BY IDOCK:   -1.05 KCAL/MOL
REMARK 927      BINDING AFFINITY PREDICTED BY RF-SCORE:    0.00 PKD
ROOT
HETATM    1  C   UNL     1      -8.388   6.791  73.340  1.00  0.00    -0.129 C  
HETATM    2  C   UNL     1      -9.474   7.505  72.601  1.00  0.00    -0.212 A  
HETATM    3  C   UNL     1      -9.172   8.690  71.952  1.00  0.00    -0.275 A  
HETATM    4  N   UNL     1     -10.055   9.418  71.257  1.00  0.00    -0.286 NA 
HETATM    5  C   UNL     1     -11.307   8.962  71.235  1.00  0.00    -0.300 A  
HETATM    6  C   UNL     1     -10.788   7.057  72.474  1.00  0.00    -0.252 A  
HETATM    7  N   UNL     1     -11.688   7.805  71.812  1.00  0.00    -0.273 NA 
ENDROOT
BRANCH   5   8
HETATM    8  N   UNL     1     -12.218   9.782  70.564  1.00  0.00    -0.454 NA 
HETATM    9  H   UNL     1     -13.150   9.386  70.441  1.00  0.00     0.000 HD 
BRANCH   8  10
HETATM   10  C   UNL     1     -12.040  11.068  70.037  1.00  0.00    -0.364 A  
HETATM   11  C   UNL     1     -12.274  12.205  70.799  1.00  0.00    -0.367 A  
HETATM   12  C   UNL     1     -11.675  12.516  68.102  1.00  0.00    -0.400 A  
HETATM   13  C   UNL     1     -11.970  13.640  68.869  1.00  0.00    -0.356 A  
HETATM   14  C   UNL     1     -12.238  13.474  70.233  1.00  0.00    -0.417 A  
HETATM   15  C   UNL     1     -11.712  11.236  68.682  1.00  0.00    -0.391 A  
BRANCH  13  16
HETATM   16  O   UNL     1     -12.007  14.859  68.227  1.00  0.00    -0.299 OA 
BRANCH  16  17
HETATM   17  C   UNL     1     -11.293  14.835  66.989  1.00  0.00    -0.353 C  
BRANCH  17  18
HETATM   18  C   UNL     1     -10.062  15.741  66.949  1.00  0.00    -0.266 C  
BRANCH  18  19
HETATM   19  N   UNL     1     -10.442  17.087  67.405  1.00  0.00    -0.329 NA 
HETATM   20  C   UNL     1     -10.417  18.108  66.349  1.00  0.00    -0.350 C  
HETATM   21  C   UNL     1      -9.603  17.591  68.484  1.00  0.00    -0.305 C  
HETATM   22  C   UNL     1     -10.210  19.430  67.074  1.00  0.00    -0.514 C  
HETATM   23  C   UNL     1     -10.022  19.051  68.534  1.00  0.00    -0.486 C  
ENDBRANCH  18  19
ENDBRANCH  17  18
ENDBRANCH  16  17
ENDBRANCH  13  16
ENDBRANCH   8  10
ENDBRANCH   5   8
BRANCH   6  24
HETATM   24  N   UNL     1     -11.182   5.866  73.139  1.00  0.00    -0.450 NA 
HETATM   25  H   UNL     1     -11.764   6.033  73.960  1.00  0.00     0.000 HD 
BRANCH  24  26
HETATM   26  C   UNL     1     -10.932   4.492  72.897  1.00  0.00    -0.180 A  
HETATM   27  C   UNL     1     -11.158   3.467  73.821  1.00  0.00    -0.286 A  
HETATM   28  C   UNL     1     -10.266   4.140  71.709  1.00  0.00    -0.155 A  
HETATM   29  C   UNL     1     -10.732   2.148  73.584  1.00  0.00    -0.250 A  
HETATM   30  C   UNL     1     -10.017   1.832  72.430  1.00  0.00    -0.204 A  
HETATM   31  C   UNL     1      -9.764   2.842  71.504  1.00  0.00    -0.155 A  
BRANCH  31  32
HETATM   32  S   UNL     1      -8.839   2.471  70.035  1.00  0.00    -0.090 S  
HETATM   33  O   UNL     1      -7.589   1.874  70.460  1.00  0.00    -0.036 OA 
HETATM   34  O   UNL     1      -9.712   1.778  69.113  1.00  0.00    -0.064 OA 
BRANCH  32  35
HETATM   35  N   UNL     1      -8.419   3.963  69.387  1.00  0.00    -0.063 N  
HETATM   36  C   UNL     1      -7.908   5.782  67.839  1.00  0.00    -0.097 C  
HETATM   37  C   UNL     1      -7.130   3.492  67.305  1.00  0.00    -0.059 C  
HETATM   38  C   UNL     1      -9.587   4.068  67.194  1.00  0.00    -0.231 C  
HETATM   39  C   UNL     1      -8.274   4.285  67.945  1.00  0.00    -0.094 C  
HETATM   40  H   UNL     1      -8.247   4.721  70.048  1.00  0.00     0.000 HD 
ENDBRANCH  32  35
ENDBRANCH  31  32
ENDBRANCH  24  26
ENDBRANCH   6  24
TORSDOF 10
ENDMDL
MODEL      111
REMARK 921   NORMALIZED FREE ENERGY PREDICTED BY IDOCK:   -5.99 KCAL/MOL
REMARK 922        TOTAL FREE ENERGY PREDICTED BY IDOCK:  -10.83 KCAL/MOL
REMARK 923 INTER-LIGAND FREE ENERGY PREDICTED BY IDOCK:   -9.49 KCAL/MOL
REMARK 924 INTRA-LIGAND FREE ENERGY PREDICTED BY IDOCK:   -1.34 KCAL/MOL
REMARK 927      BINDING AFFINITY PREDICTED BY RF-SCORE:    0.00 PKD
ROOT
HETATM    1  C   UNL     1      -9.488   4.717  67.426  1.00  0.00    -0.177 C  
HETATM    2  C   UNL     1      -9.549   6.120  66.911  1.00  0.00    -0.164 A  
HETATM    3  C   UNL     1      -8.697   6.491  65.886  1.00  0.00    -0.141 A  
HETATM    4  N   UNL     1      -8.657   7.713  65.341  1.00  0.00    -0.100 NA 
HETATM    5  C   UNL     1      -9.484   8.619  65.864  1.00  0.00    -0.173 A  
HETATM    6  C   UNL     1     -10.432   7.101  67.359  1.00  0.00    -0.284 A  
HETATM    7  N   UNL     1     -10.369   8.341  66.843  1.00  0.00    -0.321 NA 
ENDROOT
BRANCH   5   8
HETATM    8  N   UNL     1      -9.367   9.901  65.323  1.00  0.00    -0.230 NA 
HETATM    9  H   UNL     1      -8.707   9.988  64.550  1.00  0.00     0.000 HD 
BRANCH   8  10
HETATM   10  C   UNL     1     -10.022  11.086  65.686  1.00  0.00    -0.248 A  
HETATM   11  C   UNL     1     -11.096  11.575  64.953  1.00  0.00    -0.282 A  
HETATM   12  C   UNL     1     -10.094  13.122  67.035  1.00  0.00    -0.241 A  
HETATM   13  C   UNL     1     -11.131  13.622  66.251  1.00  0.00    -0.301 A  
HETATM   14  C   UNL     1     -11.649  12.821  65.227  1.00  0.00    -0.379 A  
HETATM   15  C   UNL     1      -9.541  11.862  66.752  1.00  0.00    -0.214 A  
BRANCH  13  16
HETATM   16  O   UNL     1     -11.573  14.900  66.517  1.00  0.00    -0.339 OA 
BRANCH  16  17
HETATM   17  C   UNL     1     -10.494  15.790  66.813  1.00  0.00    -0.305 C  
BRANCH  17  18
HETATM   18  C   UNL     1     -10.454  17.050  65.947  1.00  0.00    -0.274 C  
BRANCH  18  19
HETATM   19  N   UNL     1      -9.914  18.163  66.743  1.00  0.00    -0.332 NA 
HETATM   20  C   UNL     1      -9.662  17.827  68.150  1.00  0.00    -0.313 C  
HETATM   21  C   UNL     1     -10.771  19.341  66.748  1.00  0.00    -0.431 C  
HETATM   22  C   UNL     1      -9.730  19.151  68.897  1.00  0.00    -0.474 C  
HETATM   23  C   UNL     1     -10.131  20.174  67.846  1.00  0.00    -0.533 C  
ENDBRANCH  18  19
ENDBRANCH  17  18
ENDBRANCH  16  17
ENDBRANCH  13  16
ENDBRANCH   8  10
ENDBRANCH   5   8
BRANCH   6  24
HETATM   24  N   UNL     1     -11.314   6.804  68.431  1.00  0.00    -0.553 NA 
HETATM   25  H   UNL     1     -12.183   6.362  68.130  1.00  0.00     0.000 HD 
BRANCH  24  26
HETATM   26  C   UNL     1     -11.236   6.996  69.833  1.00  0.00    -0.246 A  
HETATM   27  C   UNL     1     -12.337   7.040  70.693  1.00  0.00    -0.239 A  
HETATM   28  C   UNL     1      -9.984   7.322  70.387  1.00  0.00    -0.192 A  
HETATM   29  C   UNL     1     -12.208   7.401  72.046  1.00  0.00    -0.315 A  
HETATM   30  C   UNL     1     -10.970   7.783  72.561  1.00  0.00    -0.395 A  
HETATM   31  C   UNL     1      -9.861   7.765  71.717  1.00  0.00    -0.167 A  
BRANCH  31  32
HETATM   32  S   UNL     1      -8.277   8.265  72.342  1.00  0.00    -0.140 S  
HETATM   33  O   UNL     1      -7.820   9.361  71.514  1.00  0.00    -0.308 OA 
HETATM   34  O   UNL     1      -8.384   8.417  73.776  1.00  0.00    -0.319 OA 
BRANCH  32  35
HETATM   35  N   UNL     1      -7.241   6.987  71.995  1.00  0.00    -0.080 N  
HETATM   36  C   UNL     1      -6.016   4.877  72.088  1.00  0.00    -0.020 C  
HETATM   37  C   UNL     1      -6.420   6.128  74.188  1.00  0.00    -0.071 C  
HETATM   38  C   UNL     1      -8.328   4.985  72.991  1.00  0.00    -0.111 C  
HETATM   39  C   UNL     1      -7.032   5.776  72.828  1.00  0.00    -0.080 C  
HETATM   40  H   UNL     1      -6.705   7.050  71.130  1.00  0.00     0.000 HD 
ENDBRANCH  32  35
ENDBRANCH  31  32
ENDBRANCH  24  26
ENDBRANCH   6  24
TORSDOF 10
ENDMDL
MODEL      112
REMARK 921   NORMALIZED FREE ENERGY PREDICTED BY IDOCK:   -5.98 KCAL/MOL
REMARK 922        TOTAL FREE ENERGY PREDICTED BY IDOCK:  -10.83 KCAL/MOL
REMARK 923 INTER-LIGAND FREE ENERGY PREDICTED BY IDOCK:   -9.75 KCAL/MOL
REMARK 924 INTRA-LIGAND FREE ENERGY PREDICTED BY IDOCK:   -1.08 KCAL/MOL
REMARK 927      BINDING AFFINITY PREDICTED BY RF-SCORE:    0.00 PKD
ROOT
HETATM    1  C   UNL     1      -9.457   4.339  67.888  1.00  0.00    -0.216 C  
HETATM    2  C   UNL     1      -9.626   5.702  67.296  1.00  0.00    -0.125 A  
HETATM    3  C   UNL     1      -8.789   6.089  66.265  1.00  0.00    -0.141 A  
HETATM    4  N   UNL     1      -8.843   7.279  65.653  1.00  0.00    -0.075 NA 
HETATM    5  C   UNL     1      -9.753   8.137  66.114  1.00  0.00    -0.084 A  
HETATM    6  C   UNL     1     -10.598   6.627  67.676  1.00  0.00    -0.263 A  
HETATM    7  N   UNL     1     -10.631   7.838  67.093  1.00  0.00    -0.343 NA 
ENDROOT
BRANCH   5   8
HETATM    8  N   UNL     1      -9.735   9.394  65.505  1.00  0.00    -0.407 NA 
HETATM    9  H   UNL     1      -9.350   9.413  64.560  1.00  0.00     0.000 HD 
BRANCH   8  10
HETATM   10  C   UNL     1     -10.169  10.632  65.999  1.00  0.00    -0.247 A  
HETATM   11  C   UNL     1      -9.985  10.987  67.329  1.00  0.00    -0.210 A  
HETATM   12  C   UNL     1     -11.460  12.684  65.693  1.00  0.00    -0.387 A  
HETATM   13  C   UNL     1     -11.315  12.994  67.043  1.00  0.00    -0.301 A  
HETATM   14  C   UNL     1     -10.543  12.149  67.849  1.00  0.00    -0.230 A  
HETATM   15  C   UNL     1     -10.892  11.508  65.175  1.00  0.00    -0.326 A  
BRANCH  13  16
HETATM   16  O   UNL     1     -11.969  14.111  67.516  1.00  0.00    -0.383 OA 
BRANCH  16  17
HETATM   17  C   UNL     1     -12.097  14.096  68.939  1.00  0.00    -0.304 C  
BRANCH  17  18
HETATM   18  C   UNL     1     -11.997  15.471  69.600  1.00  0.00    -0.359 C  
BRANCH  18  19
HETATM   19  N   UNL     1     -12.763  15.456  70.856  1.00  0.00    -0.430 NA 
HETATM   20  C   UNL     1     -12.071  16.084  71.989  1.00  0.00    -0.525 C  
HETATM   21  C   UNL     1     -13.134  14.116  71.292  1.00  0.00    -0.350 C  
HETATM   22  C   UNL     1     -12.673  15.445  73.232  1.00  0.00    -0.626 C  
HETATM   23  C   UNL     1     -13.627  14.385  72.704  1.00  0.00    -0.589 C  
ENDBRANCH  18  19
ENDBRANCH  17  18
ENDBRANCH  16  17
ENDBRANCH  13  16
ENDBRANCH   8  10
ENDBRANCH   5   8
BRANCH   6  24
HETATM   24  N   UNL     1     -11.472   6.313  68.749  1.00  0.00    -0.461 NA 
HETATM   25  H   UNL     1     -12.276   5.751  68.467  1.00  0.00     0.000 HD 
BRANCH  24  26
HETATM   26  C   UNL     1     -11.459   6.620  70.133  1.00  0.00    -0.385 A  
HETATM   27  C   UNL     1     -12.271   7.580  70.743  1.00  0.00    -0.152 A  
HETATM   28  C   UNL     1     -10.455   6.039  70.930  1.00  0.00    -0.293 A  
HETATM   29  C   UNL     1     -12.092   7.959  72.085  1.00  0.00    -0.371 A  
HETATM   30  C   UNL     1     -11.052   7.419  72.840  1.00  0.00    -0.397 A  
HETATM   31  C   UNL     1     -10.218   6.473  72.247  1.00  0.00    -0.184 A  
BRANCH  31  32
HETATM   32  S   UNL     1      -8.874   5.784  73.180  1.00  0.00    -0.120 S  
HETATM   33  O   UNL     1      -9.033   6.232  74.547  1.00  0.00    -0.135 OA 
HETATM   34  O   UNL     1      -8.784   4.374  72.869  1.00  0.00    -0.107 OA 
BRANCH  32  35
HETATM   35  N   UNL     1      -7.497   6.565  72.616  1.00  0.00    -0.093 N  
HETATM   36  C   UNL     1      -5.200   7.081  71.967  1.00  0.00    -0.036 C  
HETATM   37  C   UNL     1      -5.602   5.761  74.023  1.00  0.00    -0.036 C  
HETATM   38  C   UNL     1      -6.034   4.751  71.749  1.00  0.00    -0.016 C  
HETATM   39  C   UNL     1      -6.118   6.015  72.604  1.00  0.00    -0.038 C  
HETATM   40  H   UNL     1      -7.620   7.508  72.246  1.00  0.00     0.000 HD 
ENDBRANCH  32  35
ENDBRANCH  31  32
ENDBRANCH  24  26
ENDBRANCH   6  24
TORSDOF 10
ENDMDL
MODEL      113
REMARK 921   NORMALIZED FREE ENERGY PREDICTED BY IDOCK:   -5.98 KCAL/MOL
REMARK 922        TOTAL FREE ENERGY PREDICTED BY IDOCK:  -10.82 KCAL/MOL
REMARK 923 INTER-LIGAND FREE ENERGY PREDICTED BY IDOCK:   -9.79 KCAL/MOL
REMARK 924 INTRA-LIGAND FREE ENERGY PREDICTED BY IDOCK:   -1.03 KCAL/MOL
REMARK 927      BINDING AFFINITY PREDICTED BY RF-SCORE:    0.00 PKD
ROOT
HETATM    1  C   UNL     1     -12.502  13.774  65.250  1.00  0.00    -0.512 C  
HETATM    2  C   UNL     1     -11.679  12.553  65.511  1.00  0.00    -0.457 A  
HETATM    3  C   UNL     1     -11.261  11.789  64.435  1.00  0.00    -0.316 A  
HETATM    4  N   UNL     1     -10.521  10.677  64.539  1.00  0.00    -0.294 NA 
HETATM    5  C   UNL     1     -10.210  10.290  65.777  1.00  0.00    -0.219 A  
HETATM    6  C   UNL     1     -11.257  12.123  66.768  1.00  0.00    -0.322 A  
HETATM    7  N   UNL     1     -10.547  10.986  66.881  1.00  0.00    -0.247 NA 
ENDROOT
BRANCH   5   8
HETATM    8  N   UNL     1      -9.501   9.090  65.854  1.00  0.00    -0.273 NA 
HETATM    9  H   UNL     1      -8.810   8.945  65.118  1.00  0.00     0.000 HD 
BRANCH   8  10
HETATM   10  C   UNL     1      -9.599   8.055  66.794  1.00  0.00    -0.216 A  
HETATM   11  C   UNL     1      -8.929   8.112  68.010  1.00  0.00    -0.134 A  
HETATM   12  C   UNL     1     -10.290   5.778  67.352  1.00  0.00    -0.279 A  
HETATM   13  C   UNL     1      -9.565   5.832  68.539  1.00  0.00    -0.126 A  
HETATM   14  C   UNL     1      -8.911   7.024  68.875  1.00  0.00    -0.130 A  
HETATM   15  C   UNL     1     -10.306   6.883  66.483  1.00  0.00    -0.115 A  
BRANCH  13  16
HETATM   16  O   UNL     1      -9.511   4.690  69.307  1.00  0.00    -0.132 OA 
BRANCH  16  17
HETATM   17  C   UNL     1     -10.384   4.762  70.437  1.00  0.00    -0.113 C  
BRANCH  17  18
HETATM   18  C   UNL     1      -9.738   4.366  71.765  1.00  0.00    -0.170 C  
BRANCH  18  19
HETATM   19  N   UNL     1      -9.840   5.494  72.704  1.00  0.00    -0.161 NA 
HETATM   20  C   UNL     1     -10.860   6.486  72.341  1.00  0.00    -0.233 C  
HETATM   21  C   UNL     1      -8.591   6.228  72.864  1.00  0.00    -0.122 C  
HETATM   22  C   UNL     1     -10.408   7.784  72.994  1.00  0.00    -0.410 C  
HETATM   23  C   UNL     1      -9.061   7.459  73.621  1.00  0.00    -0.273 C  
ENDBRANCH  18  19
ENDBRANCH  17  18
ENDBRANCH  16  17
ENDBRANCH  13  16
ENDBRANCH   8  10
ENDBRANCH   5   8
BRANCH   6  24
HETATM   24  N   UNL     1     -11.673  12.838  67.922  1.00  0.00    -0.348 NA 
HETATM   25  H   UNL     1     -12.490  12.431  68.377  1.00  0.00     0.000 HD 
BRANCH  24  26
HETATM   26  C   UNL     1     -11.186  14.000  68.571  1.00  0.00    -0.265 A  
HETATM   27  C   UNL     1     -11.703  14.523  69.759  1.00  0.00    -0.356 A  
HETATM   28  C   UNL     1     -10.221  14.776  67.902  1.00  0.00    -0.229 A  
HETATM   29  C   UNL     1     -11.291  15.770  70.262  1.00  0.00    -0.371 A  
HETATM   30  C   UNL     1     -10.382  16.553  69.553  1.00  0.00    -0.266 A  
HETATM   31  C   UNL     1      -9.867  16.060  68.356  1.00  0.00    -0.213 A  
BRANCH  31  32
HETATM   32  S   UNL     1      -8.722  17.045  67.423  1.00  0.00    -0.204 S  
HETATM   33  O   UNL     1      -7.986  17.853  68.373  1.00  0.00    -0.279 OA 
HETATM   34  O   UNL     1      -8.030  16.178  66.496  1.00  0.00    -0.261 OA 
BRANCH  32  35
HETATM   35  N   UNL     1      -9.673  18.132  66.562  1.00  0.00    -0.331 N  
HETATM   36  C   UNL     1     -10.768  20.166  65.771  1.00  0.00    -0.273 C  
HETATM   37  C   UNL     1     -10.473  19.827  68.207  1.00  0.00    -0.449 C  
HETATM   38  C   UNL     1      -8.480  20.307  66.730  1.00  0.00    -0.326 C  
HETATM   39  C   UNL     1      -9.820  19.582  66.843  1.00  0.00    -0.369 C  
HETATM   40  H   UNL     1     -10.198  17.759  65.771  1.00  0.00     0.000 HD 
ENDBRANCH  32  35
ENDBRANCH  31  32
ENDBRANCH  24  26
ENDBRANCH   6  24
TORSDOF 10
ENDMDL
MODEL      114
REMARK 921   NORMALIZED FREE ENERGY PREDICTED BY IDOCK:   -5.96 KCAL/MOL
REMARK 922        TOTAL FREE ENERGY PREDICTED BY IDOCK:  -10.80 KCAL/MOL
REMARK 923 INTER-LIGAND FREE ENERGY PREDICTED BY IDOCK:   -9.03 KCAL/MOL
REMARK 924 INTRA-LIGAND FREE ENERGY PREDICTED BY IDOCK:   -1.77 KCAL/MOL
REMARK 927      BINDING AFFINITY PREDICTED BY RF-SCORE:    0.00 PKD
ROOT
HETATM    1  C   UNL     1     -12.860  14.997  72.335  1.00  0.00    -0.434 C  
HETATM    2  C   UNL     1     -12.630  13.955  71.287  1.00  0.00    -0.450 A  
HETATM    3  C   UNL     1     -12.874  12.630  71.600  1.00  0.00    -0.264 A  
HETATM    4  N   UNL     1     -12.709  11.609  70.750  1.00  0.00    -0.250 NA 
HETATM    5  C   UNL     1     -12.245  11.920  69.539  1.00  0.00    -0.136 A  
HETATM    6  C   UNL     1     -12.214  14.209  69.981  1.00  0.00    -0.357 A  
HETATM    7  N   UNL     1     -12.008  13.184  69.135  1.00  0.00    -0.302 NA 
ENDROOT
BRANCH   5   8
HETATM    8  N   UNL     1     -12.014  10.827  68.701  1.00  0.00    -0.756 NA 
HETATM    9  H   UNL     1     -12.440   9.950  69.003  1.00  0.00     0.000 HD 
BRANCH   8  10
HETATM   10  C   UNL     1     -11.286  10.757  67.506  1.00  0.00    -0.274 A  
HETATM   11  C   UNL     1     -11.372  11.754  66.543  1.00  0.00    -0.370 A  
HETATM   12  C   UNL     1      -9.902   9.467  65.958  1.00  0.00    -0.353 A  
HETATM   13  C   UNL     1     -10.050  10.451  64.983  1.00  0.00    -0.309 A  
HETATM   14  C   UNL     1     -10.764  11.612  65.301  1.00  0.00    -0.346 A  
HETATM   15  C   UNL     1     -10.519   9.619  67.212  1.00  0.00    -0.323 A  
BRANCH  13  16
HETATM   16  O   UNL     1      -9.499  10.209  63.743  1.00  0.00    -0.281 OA 
BRANCH  16  17
HETATM   17  C   UNL     1      -8.072  10.146  63.793  1.00  0.00    -0.160 C  
BRANCH  17  18
HETATM   18  C   UNL     1      -7.448   9.134  62.832  1.00  0.00    -0.102 C  
BRANCH  18  19
HETATM   19  N   UNL     1      -6.936   7.991  63.605  1.00  0.00    -0.074 NA 
HETATM   20  C   UNL     1      -7.818   6.817  63.594  1.00  0.00    -0.106 C  
HETATM   21  C   UNL     1      -6.687   8.305  65.006  1.00  0.00    -0.063 C  
HETATM   22  C   UNL     1      -7.479   6.049  64.863  1.00  0.00    -0.082 C  
HETATM   23  C   UNL     1      -6.467   6.920  65.590  1.00  0.00    -0.050 C  
ENDBRANCH  18  19
ENDBRANCH  17  18
ENDBRANCH  16  17
ENDBRANCH  13  16
ENDBRANCH   8  10
ENDBRANCH   5   8
BRANCH   6  24
HETATM   24  N   UNL     1     -11.912  15.542  69.595  1.00  0.00    -0.374 NA 
HETATM   25  H   UNL     1     -12.686  16.191  69.740  1.00  0.00     0.000 HD 
BRANCH  24  26
HETATM   26  C   UNL     1     -10.757  16.155  69.051  1.00  0.00    -0.287 A  
HETATM   27  C   UNL     1     -10.770  17.265  68.201  1.00  0.00    -0.363 A  
HETATM   28  C   UNL     1      -9.516  15.520  69.245  1.00  0.00    -0.263 A  
HETATM   29  C   UNL     1      -9.606  17.722  67.559  1.00  0.00    -0.268 A  
HETATM   30  C   UNL     1      -8.400  17.041  67.713  1.00  0.00    -0.199 A  
HETATM   31  C   UNL     1      -8.366  15.921  68.541  1.00  0.00    -0.182 A  
BRANCH  31  32
HETATM   32  S   UNL     1      -6.847  15.024  68.739  1.00  0.00    -0.111 S  
HETATM   33  O   UNL     1      -6.266  14.877  67.421  1.00  0.00    -0.329 OA 
HETATM   34  O   UNL     1      -6.097  15.636  69.814  1.00  0.00    -0.144 OA 
BRANCH  32  35
HETATM   35  N   UNL     1      -7.305  13.472  69.196  1.00  0.00    -0.299 N  
HETATM   36  C   UNL     1      -7.566  11.047  69.305  1.00  0.00    -0.090 C  
HETATM   37  C   UNL     1      -7.534  12.155  67.090  1.00  0.00    -0.129 C  
HETATM   38  C   UNL     1      -5.429  12.007  68.479  1.00  0.00    -0.052 C  
HETATM   39  C   UNL     1      -6.943  12.211  68.503  1.00  0.00    -0.091 C  
HETATM   40  H   UNL     1      -7.888  13.390  70.029  1.00  0.00     0.000 HD 
ENDBRANCH  32  35
ENDBRANCH  31  32
ENDBRANCH  24  26
ENDBRANCH   6  24
TORSDOF 10
ENDMDL
MODEL      115
REMARK 921   NORMALIZED FREE ENERGY PREDICTED BY IDOCK:   -5.96 KCAL/MOL
REMARK 922        TOTAL FREE ENERGY PREDICTED BY IDOCK:  -10.79 KCAL/MOL
REMARK 923 INTER-LIGAND FREE ENERGY PREDICTED BY IDOCK:   -9.08 KCAL/MOL
REMARK 924 INTRA-LIGAND FREE ENERGY PREDICTED BY IDOCK:   -1.71 KCAL/MOL
REMARK 927      BINDING AFFINITY PREDICTED BY RF-SCORE:    0.00 PKD
ROOT
HETATM    1  C   UNL     1      -9.557   2.470  67.502  1.00  0.00     0.033 C  
HETATM    2  C   UNL     1      -9.403   3.918  67.162  1.00  0.00    -0.216 A  
HETATM    3  C   UNL     1      -9.878   4.370  65.943  1.00  0.00    -0.228 A  
HETATM    4  N   UNL     1      -9.801   5.640  65.526  1.00  0.00     0.220 NA 
HETATM    5  C   UNL     1      -9.193   6.495  66.349  1.00  0.00    -0.153 A  
HETATM    6  C   UNL     1      -8.843   4.883  67.997  1.00  0.00    -0.104 A  
HETATM    7  N   UNL     1      -8.727   6.152  67.567  1.00  0.00    -0.106 NA 
ENDROOT
BRANCH   5   8
HETATM    8  N   UNL     1      -9.064   7.794  65.854  1.00  0.00    -0.351 NA 
HETATM    9  H   UNL     1      -8.551   7.876  64.976  1.00  0.00     0.000 HD 
BRANCH   8  10
HETATM   10  C   UNL     1      -9.536   9.002  66.385  1.00  0.00    -0.244 A  
HETATM   11  C   UNL     1     -10.479   9.028  67.405  1.00  0.00    -0.338 A  
HETATM   12  C   UNL     1      -9.710  11.436  66.246  1.00  0.00    -0.239 A  
HETATM   13  C   UNL     1     -10.696  11.436  67.229  1.00  0.00    -0.241 A  
HETATM   14  C   UNL     1     -11.051  10.222  67.828  1.00  0.00    -0.335 A  
HETATM   15  C   UNL     1      -9.135  10.225  65.825  1.00  0.00    -0.202 A  
BRANCH  13  16
HETATM   16  O   UNL     1     -11.289  12.642  67.539  1.00  0.00    -0.271 OA 
BRANCH  16  17
HETATM   17  C   UNL     1     -10.983  13.063  68.870  1.00  0.00    -0.230 C  
BRANCH  17  18
HETATM   18  C   UNL     1     -11.222  14.550  69.135  1.00  0.00    -0.269 C  
BRANCH  18  19
HETATM   19  N   UNL     1     -12.170  14.691  70.252  1.00  0.00    -0.311 NA 
HETATM   20  C   UNL     1     -11.717  15.602  71.311  1.00  0.00    -0.422 C  
HETATM   21  C   UNL     1     -12.488  13.428  70.905  1.00  0.00    -0.359 C  
HETATM   22  C   UNL     1     -12.448  15.152  72.568  1.00  0.00    -0.442 C  
HETATM   23  C   UNL     1     -13.215  13.907  72.150  1.00  0.00    -0.536 C  
ENDBRANCH  18  19
ENDBRANCH  17  18
ENDBRANCH  16  17
ENDBRANCH  13  16
ENDBRANCH   8  10
ENDBRANCH   5   8
BRANCH   6  24
HETATM   24  N   UNL     1      -8.305   4.489  69.250  1.00  0.00    -0.078 NA 
HETATM   25  H   UNL     1      -7.348   4.141  69.190  1.00  0.00     0.000 HD 
BRANCH  24  26
HETATM   26  C   UNL     1      -8.825   4.479  70.569  1.00  0.00    -0.099 A  
HETATM   27  C   UNL     1      -9.265   3.336  71.243  1.00  0.00    -0.192 A  
HETATM   28  C   UNL     1      -9.066   5.717  71.194  1.00  0.00    -0.159 A  
HETATM   29  C   UNL     1      -9.927   3.414  72.481  1.00  0.00    -0.228 A  
HETATM   30  C   UNL     1     -10.213   4.651  73.053  1.00  0.00    -0.219 A  
HETATM   31  C   UNL     1      -9.801   5.806  72.391  1.00  0.00    -0.163 A  
BRANCH  31  32
HETATM   32  S   UNL     1     -10.170   7.396  73.089  1.00  0.00    -0.347 S  
HETATM   33  O   UNL     1      -9.919   7.303  74.512  1.00  0.00    -0.006 OA 
HETATM   34  O   UNL     1      -9.515   8.405  72.287  1.00  0.00    -0.243 OA 
BRANCH  32  35
HETATM   35  N   UNL     1     -11.836   7.567  72.944  1.00  0.00    -0.594 N  
HETATM   36  C   UNL     1     -14.080   7.952  72.062  1.00  0.00    -0.403 C  
HETATM   37  C   UNL     1     -12.217   9.384  71.279  1.00  0.00    -0.425 C  
HETATM   38  C   UNL     1     -12.345   6.958  70.587  1.00  0.00    -0.248 C  
HETATM   39  C   UNL     1     -12.574   7.960  71.718  1.00  0.00    -0.328 C  
HETATM   40  H   UNL     1     -12.393   7.382  73.778  1.00  0.00     0.000 HD 
ENDBRANCH  32  35
ENDBRANCH  31  32
ENDBRANCH  24  26
ENDBRANCH   6  24
TORSDOF 10
ENDMDL
MODEL      116
REMARK 921   NORMALIZED FREE ENERGY PREDICTED BY IDOCK:   -5.94 KCAL/MOL
REMARK 922        TOTAL FREE ENERGY PREDICTED BY IDOCK:  -10.76 KCAL/MOL
REMARK 923 INTER-LIGAND FREE ENERGY PREDICTED BY IDOCK:   -9.70 KCAL/MOL
REMARK 924 INTRA-LIGAND FREE ENERGY PREDICTED BY IDOCK:   -1.07 KCAL/MOL
REMARK 927      BINDING AFFINITY PREDICTED BY RF-SCORE:    0.00 PKD
ROOT
HETATM    1  C   UNL     1     -13.302   9.862  71.806  1.00  0.00    -0.501 C  
HETATM    2  C   UNL     1     -12.942  11.201  71.244  1.00  0.00    -0.457 A  
HETATM    3  C   UNL     1     -13.251  12.335  71.974  1.00  0.00    -0.403 A  
HETATM    4  N   UNL     1     -12.979  13.586  71.580  1.00  0.00    -0.362 NA 
HETATM    5  C   UNL     1     -12.401  13.714  70.385  1.00  0.00    -0.345 A  
HETATM    6  C   UNL     1     -12.276  11.412  70.038  1.00  0.00    -0.301 A  
HETATM    7  N   UNL     1     -12.036  12.667  69.618  1.00  0.00    -0.309 NA 
ENDROOT
BRANCH   5   8
HETATM    8  N   UNL     1     -12.197  15.032  69.972  1.00  0.00    -0.365 NA 
HETATM    9  H   UNL     1     -12.875  15.708  70.324  1.00  0.00     0.000 HD 
BRANCH   8  10
HETATM   10  C   UNL     1     -11.198  15.564  69.145  1.00  0.00    -0.299 A  
HETATM   11  C   UNL     1     -10.292  16.507  69.614  1.00  0.00    -0.221 A  
HETATM   12  C   UNL     1     -10.252  15.857  66.911  1.00  0.00    -0.277 A  
HETATM   13  C   UNL     1      -9.392  16.843  67.388  1.00  0.00    -0.235 A  
HETATM   14  C   UNL     1      -9.399  17.138  68.756  1.00  0.00    -0.252 A  
HETATM   15  C   UNL     1     -11.151  15.222  67.785  1.00  0.00    -0.318 A  
BRANCH  13  16
HETATM   16  O   UNL     1      -8.596  17.494  66.471  1.00  0.00    -0.246 OA 
BRANCH  16  17
HETATM   17  C   UNL     1      -7.870  18.574  67.062  1.00  0.00    -0.227 C  
BRANCH  17  18
HETATM   18  C   UNL     1      -6.349  18.453  66.951  1.00  0.00    -0.174 C  
BRANCH  18  19
HETATM   19  N   UNL     1      -5.739  18.907  68.210  1.00  0.00    -0.196 NA 
HETATM   20  C   UNL     1      -5.467  17.828  69.169  1.00  0.00    -0.190 C  
HETATM   21  C   UNL     1      -6.541  19.895  68.920  1.00  0.00    -0.323 C  
HETATM   22  C   UNL     1      -5.455  18.498  70.535  1.00  0.00    -0.229 C  
HETATM   23  C   UNL     1      -5.836  19.945  70.265  1.00  0.00    -0.346 C  
ENDBRANCH  18  19
ENDBRANCH  17  18
ENDBRANCH  16  17
ENDBRANCH  13  16
ENDBRANCH   8  10
ENDBRANCH   5   8
BRANCH   6  24
HETATM   24  N   UNL     1     -11.955  10.298  69.218  1.00  0.00    -0.515 NA 
HETATM   25  H   UNL     1     -12.743   9.961  68.664  1.00  0.00     0.000 HD 
BRANCH  24  26
HETATM   26  C   UNL     1     -10.764   9.559  69.010  1.00  0.00    -0.202 A  
HETATM   27  C   UNL     1     -10.418   8.927  67.812  1.00  0.00    -0.300 A  
HETATM   28  C   UNL     1      -9.941   9.303  70.123  1.00  0.00    -0.251 A  
HETATM   29  C   UNL     1      -9.308   8.068  67.719  1.00  0.00    -0.151 A  
HETATM   30  C   UNL     1      -8.543   7.777  68.847  1.00  0.00    -0.132 A  
HETATM   31  C   UNL     1      -8.881   8.381  70.057  1.00  0.00    -0.137 A  
BRANCH  31  32
HETATM   32  S   UNL     1      -7.934   8.012  71.513  1.00  0.00    -0.114 S  
HETATM   33  O   UNL     1      -7.114   6.859  71.205  1.00  0.00    -0.072 OA 
HETATM   34  O   UNL     1      -7.334   9.240  71.985  1.00  0.00    -0.313 OA 
BRANCH  32  35
HETATM   35  N   UNL     1      -9.054   7.470  72.643  1.00  0.00    -0.141 N  
HETATM   36  C   UNL     1     -10.468   6.053  74.042  1.00  0.00    -0.272 C  
HETATM   37  C   UNL     1     -10.103   5.426  71.674  1.00  0.00    -0.259 C  
HETATM   38  C   UNL     1      -8.225   5.236  73.353  1.00  0.00    -0.111 C  
HETATM   39  C   UNL     1      -9.431   6.057  72.897  1.00  0.00    -0.150 C  
HETATM   40  H   UNL     1      -9.519   8.180  73.209  1.00  0.00     0.000 HD 
ENDBRANCH  32  35
ENDBRANCH  31  32
ENDBRANCH  24  26
ENDBRANCH   6  24
TORSDOF 10
ENDMDL
MODEL      117
REMARK 921   NORMALIZED FREE ENERGY PREDICTED BY IDOCK:   -5.93 KCAL/MOL
REMARK 922        TOTAL FREE ENERGY PREDICTED BY IDOCK:  -10.75 KCAL/MOL
REMARK 923 INTER-LIGAND FREE ENERGY PREDICTED BY IDOCK:   -8.77 KCAL/MOL
REMARK 924 INTRA-LIGAND FREE ENERGY PREDICTED BY IDOCK:   -1.98 KCAL/MOL
REMARK 927      BINDING AFFINITY PREDICTED BY RF-SCORE:    0.00 PKD
ROOT
HETATM    1  C   UNL     1      -5.169  13.293  70.366  1.00  0.00    -0.115 C  
HETATM    2  C   UNL     1      -6.298  13.974  69.660  1.00  0.00    -0.130 A  
HETATM    3  C   UNL     1      -6.477  15.334  69.846  1.00  0.00    -0.162 A  
HETATM    4  N   UNL     1      -7.446  16.056  69.269  1.00  0.00    -0.225 NA 
HETATM    5  C   UNL     1      -8.300  15.384  68.496  1.00  0.00    -0.151 A  
HETATM    6  C   UNL     1      -7.187  13.355  68.784  1.00  0.00    -0.092 A  
HETATM    7  N   UNL     1      -8.188  14.066  68.233  1.00  0.00    -0.146 NA 
ENDROOT
BRANCH   5   8
HETATM    8  N   UNL     1      -9.342  16.150  67.969  1.00  0.00    -0.202 NA 
HETATM    9  H   UNL     1      -9.431  17.088  68.359  1.00  0.00     0.000 HD 
BRANCH   8  10
HETATM   10  C   UNL     1     -10.281  15.821  66.983  1.00  0.00    -0.280 A  
HETATM   11  C   UNL     1     -11.391  15.036  67.270  1.00  0.00    -0.337 A  
HETATM   12  C   UNL     1     -10.921  15.754  64.625  1.00  0.00    -0.333 A  
HETATM   13  C   UNL     1     -11.994  14.919  64.925  1.00  0.00    -0.306 A  
HETATM   14  C   UNL     1     -12.240  14.591  66.263  1.00  0.00    -0.270 A  
HETATM   15  C   UNL     1     -10.068  16.200  65.649  1.00  0.00    -0.366 A  
BRANCH  13  16
HETATM   16  O   UNL     1     -12.743  14.438  63.872  1.00  0.00    -0.771 OA 
BRANCH  16  17
HETATM   17  C   UNL     1     -12.129  13.308  63.249  1.00  0.00    -0.337 C  
BRANCH  17  18
HETATM   18  C   UNL     1     -12.540  11.958  63.836  1.00  0.00    -0.340 C  
BRANCH  18  19
HETATM   19  N   UNL     1     -11.334  11.238  64.275  1.00  0.00    -0.172 NA 
HETATM   20  C   UNL     1     -11.183  11.155  65.733  1.00  0.00     0.069 C  
HETATM   21  C   UNL     1     -10.098  11.816  63.765  1.00  0.00    -0.391 C  
HETATM   22  C   UNL     1      -9.690  10.978  65.972  1.00  0.00    -0.265 C  
HETATM   23  C   UNL     1      -9.058  11.079  64.593  1.00  0.00    -0.138 C  
ENDBRANCH  18  19
ENDBRANCH  17  18
ENDBRANCH  16  17
ENDBRANCH  13  16
ENDBRANCH   8  10
ENDBRANCH   5   8
BRANCH   6  24
HETATM   24  N   UNL     1      -7.087  11.955  68.568  1.00  0.00    -0.083 NA 
HETATM   25  H   UNL     1      -6.339  11.696  67.925  1.00  0.00     0.000 HD 
BRANCH  24  26
HETATM   26  C   UNL     1      -7.813  10.843  69.063  1.00  0.00    -0.138 A  
HETATM   27  C   UNL     1      -7.339   9.528  69.084  1.00  0.00    -0.072 A  
HETATM   28  C   UNL     1      -9.162  11.037  69.414  1.00  0.00     0.183 A  
HETATM   29  C   UNL     1      -8.168   8.446  69.429  1.00  0.00    -0.116 A  
HETATM   30  C   UNL     1      -9.517   8.651  69.711  1.00  0.00    -0.166 A  
HETATM   31  C   UNL     1     -10.017   9.951  69.678  1.00  0.00    -0.231 A  
BRANCH  31  32
HETATM   32  S   UNL     1     -11.736  10.238  70.015  1.00  0.00    -0.235 S  
HETATM   33  O   UNL     1     -11.804  11.075  71.195  1.00  0.00    -0.239 OA 
HETATM   34  O   UNL     1     -12.377  10.644  68.784  1.00  0.00    -0.349 OA 
BRANCH  32  35
HETATM   35  N   UNL     1     -12.348   8.747  70.494  1.00  0.00    -0.440 N  
HETATM   36  C   UNL     1     -13.246   6.904  71.820  1.00  0.00    -0.281 C  
HETATM   37  C   UNL     1     -11.461   8.324  72.786  1.00  0.00    -0.338 C  
HETATM   38  C   UNL     1     -13.791   9.242  72.457  1.00  0.00    -0.453 C  
HETATM   39  C   UNL     1     -12.696   8.347  71.880  1.00  0.00    -0.355 C  
HETATM   40  H   UNL     1     -12.494   8.052  69.763  1.00  0.00     0.000 HD 
ENDBRANCH  32  35
ENDBRANCH  31  32
ENDBRANCH  24  26
ENDBRANCH   6  24
TORSDOF 10
ENDMDL
MODEL      118
REMARK 921   NORMALIZED FREE ENERGY PREDICTED BY IDOCK:   -5.93 KCAL/MOL
REMARK 922        TOTAL FREE ENERGY PREDICTED BY IDOCK:  -10.74 KCAL/MOL
REMARK 923 INTER-LIGAND FREE ENERGY PREDICTED BY IDOCK:   -9.48 KCAL/MOL
REMARK 924 INTRA-LIGAND FREE ENERGY PREDICTED BY IDOCK:   -1.26 KCAL/MOL
REMARK 927      BINDING AFFINITY PREDICTED BY RF-SCORE:    0.00 PKD
ROOT
HETATM    1  C   UNL     1     -13.277  11.739  72.273  1.00  0.00    -0.146 C  
HETATM    2  C   UNL     1     -12.677  12.287  71.018  1.00  0.00    -0.319 A  
HETATM    3  C   UNL     1     -12.563  13.659  70.877  1.00  0.00    -0.346 A  
HETATM    4  N   UNL     1     -12.044  14.268  69.804  1.00  0.00    -0.330 NA 
HETATM    5  C   UNL     1     -11.648  13.474  68.809  1.00  0.00    -0.325 A  
HETATM    6  C   UNL     1     -12.179  11.520  69.966  1.00  0.00    -0.278 A  
HETATM    7  N   UNL     1     -11.693  12.128  68.869  1.00  0.00    -0.311 NA 
ENDROOT
BRANCH   5   8
HETATM    8  N   UNL     1     -11.179  14.142  67.676  1.00  0.00    -0.285 NA 
HETATM    9  H   UNL     1     -11.810  14.135  66.875  1.00  0.00     0.000 HD 
BRANCH   8  10
HETATM   10  C   UNL     1      -9.970  14.822  67.478  1.00  0.00    -0.219 A  
HETATM   11  C   UNL     1      -9.113  15.104  68.536  1.00  0.00    -0.191 A  
HETATM   12  C   UNL     1      -8.506  16.133  66.025  1.00  0.00    -0.155 A  
HETATM   13  C   UNL     1      -7.692  16.454  67.108  1.00  0.00    -0.186 A  
HETATM   14  C   UNL     1      -7.989  15.903  68.360  1.00  0.00    -0.147 A  
HETATM   15  C   UNL     1      -9.640  15.323  66.210  1.00  0.00    -0.331 A  
BRANCH  13  16
HETATM   16  O   UNL     1      -6.647  17.324  66.886  1.00  0.00    -0.155 OA 
BRANCH  16  17
HETATM   17  C   UNL     1      -7.027  18.415  66.045  1.00  0.00    -0.275 C  
BRANCH  17  18
HETATM   18  C   UNL     1      -6.968  19.786  66.719  1.00  0.00    -0.207 C  
BRANCH  18  19
HETATM   19  N   UNL     1      -8.306  20.131  67.224  1.00  0.00    -0.331 NA 
HETATM   20  C   UNL     1      -8.605  19.583  68.553  1.00  0.00    -0.339 C  
HETATM   21  C   UNL     1      -9.385  19.695  66.347  1.00  0.00    -0.387 C  
HETATM   22  C   UNL     1     -10.122  19.491  68.618  1.00  0.00    -0.535 C  
HETATM   23  C   UNL     1     -10.599  19.909  67.236  1.00  0.00    -0.519 C  
ENDBRANCH  18  19
ENDBRANCH  17  18
ENDBRANCH  16  17
ENDBRANCH  13  16
ENDBRANCH   8  10
ENDBRANCH   5   8
BRANCH   6  24
HETATM   24  N   UNL     1     -12.290  10.106  70.024  1.00  0.00    -0.515 NA 
HETATM   25  H   UNL     1     -13.103   9.742  69.525  1.00  0.00     0.000 HD 
BRANCH  24  26
HETATM   26  C   UNL     1     -11.505   9.096  70.633  1.00  0.00    -0.262 A  
HETATM   27  C   UNL     1     -11.551   8.761  71.989  1.00  0.00    -0.436 A  
HETATM   28  C   UNL     1     -10.495   8.489  69.864  1.00  0.00    -0.219 A  
HETATM   29  C   UNL     1     -10.629   7.870  72.565  1.00  0.00    -0.378 A  
HETATM   30  C   UNL     1      -9.596   7.329  71.802  1.00  0.00    -0.163 A  
HETATM   31  C   UNL     1      -9.519   7.663  70.451  1.00  0.00    -0.164 A  
BRANCH  31  32
HETATM   32  S   UNL     1      -8.203   7.002  69.459  1.00  0.00    -0.133 S  
HETATM   33  O   UNL     1      -7.695   8.090  68.650  1.00  0.00    -0.101 OA 
HETATM   34  O   UNL     1      -7.321   6.249  70.322  1.00  0.00    -0.083 OA 
BRANCH  32  35
HETATM   35  N   UNL     1      -8.948   5.955  68.376  1.00  0.00    -0.113 N  
HETATM   36  C   UNL     1      -9.701   3.951  67.201  1.00  0.00    -0.182 C  
HETATM   37  C   UNL     1      -7.370   4.054  68.034  1.00  0.00    -0.063 C  
HETATM   38  C   UNL     1      -9.300   3.850  69.651  1.00  0.00    -0.246 C  
HETATM   39  C   UNL     1      -8.809   4.478  68.347  1.00  0.00    -0.103 C  
HETATM   40  H   UNL     1      -9.553   6.375  67.670  1.00  0.00     0.000 HD 
ENDBRANCH  32  35
ENDBRANCH  31  32
ENDBRANCH  24  26
ENDBRANCH   6  24
TORSDOF 10
ENDMDL
MODEL      119
REMARK 921   NORMALIZED FREE ENERGY PREDICTED BY IDOCK:   -5.91 KCAL/MOL
REMARK 922        TOTAL FREE ENERGY PREDICTED BY IDOCK:  -10.71 KCAL/MOL
REMARK 923 INTER-LIGAND FREE ENERGY PREDICTED BY IDOCK:   -9.11 KCAL/MOL
REMARK 924 INTRA-LIGAND FREE ENERGY PREDICTED BY IDOCK:   -1.60 KCAL/MOL
REMARK 927      BINDING AFFINITY PREDICTED BY RF-SCORE:    0.00 PKD
ROOT
HETATM    1  C   UNL     1     -10.039   5.297  71.580  1.00  0.00    -0.259 C  
HETATM    2  C   UNL     1     -10.878   6.532  71.654  1.00  0.00    -0.281 A  
HETATM    3  C   UNL     1     -10.919   7.241  72.841  1.00  0.00    -0.337 A  
HETATM    4  N   UNL     1     -11.629   8.360  73.030  1.00  0.00    -0.086 NA 
HETATM    5  C   UNL     1     -12.362   8.775  71.996  1.00  0.00    -0.377 A  
HETATM    6  C   UNL     1     -11.615   7.065  70.597  1.00  0.00    -0.335 A  
HETATM    7  N   UNL     1     -12.362   8.166  70.793  1.00  0.00    -0.038 NA 
ENDROOT
BRANCH   5   8
HETATM    8  N   UNL     1     -13.147   9.902  72.248  1.00  0.00    -0.497 NA 
HETATM    9  H   UNL     1     -13.904   9.763  72.917  1.00  0.00     0.000 HD 
BRANCH   8  10
HETATM   10  C   UNL     1     -13.048  11.195  71.717  1.00  0.00    -0.431 A  
HETATM   11  C   UNL     1     -12.338  11.449  70.550  1.00  0.00    -0.439 A  
HETATM   12  C   UNL     1     -13.371  13.604  71.972  1.00  0.00    -0.548 A  
HETATM   13  C   UNL     1     -12.607  13.842  70.832  1.00  0.00    -0.361 A  
HETATM   14  C   UNL     1     -12.120  12.748  70.107  1.00  0.00    -0.370 A  
HETATM   15  C   UNL     1     -13.589  12.288  72.412  1.00  0.00    -0.174 A  
BRANCH  13  16
HETATM   16  O   UNL     1     -12.350  15.154  70.498  1.00  0.00    -0.310 OA 
BRANCH  16  17
HETATM   17  C   UNL     1     -11.444  15.260  69.398  1.00  0.00    -0.315 C  
BRANCH  17  18
HETATM   18  C   UNL     1     -10.167  16.044  69.701  1.00  0.00    -0.265 C  
BRANCH  18  19
HETATM   19  N   UNL     1      -9.466  16.326  68.438  1.00  0.00    -0.211 NA 
HETATM   20  C   UNL     1     -10.104  17.362  67.616  1.00  0.00    -0.327 C  
HETATM   21  C   UNL     1      -9.319  15.155  67.583  1.00  0.00    -0.189 C  
HETATM   22  C   UNL     1      -9.659  17.074  66.190  1.00  0.00    -0.265 C  
HETATM   23  C   UNL     1      -8.853  15.788  66.283  1.00  0.00    -0.378 C  
ENDBRANCH  18  19
ENDBRANCH  17  18
ENDBRANCH  16  17
ENDBRANCH  13  16
ENDBRANCH   8  10
ENDBRANCH   5   8
BRANCH   6  24
HETATM   24  N   UNL     1     -11.649   6.375  69.357  1.00  0.00    -0.618 NA 
HETATM   25  H   UNL     1     -12.556   5.958  69.149  1.00  0.00     0.000 HD 
BRANCH  24  26
HETATM   26  C   UNL     1     -10.680   6.148  68.347  1.00  0.00    -0.293 A  
HETATM   27  C   UNL     1     -10.507   4.938  67.669  1.00  0.00    -0.013 A  
HETATM   28  C   UNL     1      -9.720   7.150  68.113  1.00  0.00    -0.147 A  
HETATM   29  C   UNL     1      -9.422   4.722  66.801  1.00  0.00    -0.163 A  
HETATM   30  C   UNL     1      -8.446   5.703  66.632  1.00  0.00    -0.113 A  
HETATM   31  C   UNL     1      -8.588   6.911  67.312  1.00  0.00    -0.120 A  
BRANCH  31  32
HETATM   32  S   UNL     1      -7.351   8.170  67.129  1.00  0.00    -0.089 S  
HETATM   33  O   UNL     1      -6.219   7.774  67.941  1.00  0.00    -0.046 OA 
HETATM   34  O   UNL     1      -7.189   8.443  65.718  1.00  0.00    -0.070 OA 
BRANCH  32  35
HETATM   35  N   UNL     1      -7.985   9.529  67.888  1.00  0.00    -0.098 N  
HETATM   36  C   UNL     1      -8.974  11.719  68.322  1.00  0.00    -0.180 C  
HETATM   37  C   UNL     1      -7.293  11.493  66.516  1.00  0.00    -0.012 C  
HETATM   38  C   UNL     1      -9.596  10.488  66.255  1.00  0.00    -0.232 C  
HETATM   39  C   UNL     1      -8.447  10.772  67.221  1.00  0.00    -0.124 C  
HETATM   40  H   UNL     1      -8.061   9.496  68.905  1.00  0.00     0.000 HD 
ENDBRANCH  32  35
ENDBRANCH  31  32
ENDBRANCH  24  26
ENDBRANCH   6  24
TORSDOF 10
ENDMDL
MODEL      120
REMARK 921   NORMALIZED FREE ENERGY PREDICTED BY IDOCK:   -5.90 KCAL/MOL
REMARK 922        TOTAL FREE ENERGY PREDICTED BY IDOCK:  -10.69 KCAL/MOL
REMARK 923 INTER-LIGAND FREE ENERGY PREDICTED BY IDOCK:   -8.68 KCAL/MOL
REMARK 924 INTRA-LIGAND FREE ENERGY PREDICTED BY IDOCK:   -2.01 KCAL/MOL
REMARK 927      BINDING AFFINITY PREDICTED BY RF-SCORE:    0.00 PKD
ROOT
HETATM    1  C   UNL     1      -5.125  10.769  70.906  1.00  0.00    -0.092 C  
HETATM    2  C   UNL     1      -5.647  12.068  70.379  1.00  0.00    -0.160 A  
HETATM    3  C   UNL     1      -5.508  13.206  71.154  1.00  0.00    -0.184 A  
HETATM    4  N   UNL     1      -5.931  14.424  70.792  1.00  0.00    -0.193 NA 
HETATM    5  C   UNL     1      -6.551  14.506  69.615  1.00  0.00    -0.153 A  
HETATM    6  C   UNL     1      -6.243  12.246  69.132  1.00  0.00    -0.089 A  
HETATM    7  N   UNL     1      -6.706  13.459  68.780  1.00  0.00    -0.100 NA 
ENDROOT
BRANCH   5   8
HETATM    8  N   UNL     1      -7.044  15.774  69.300  1.00  0.00    -0.186 NA 
HETATM    9  H   UNL     1      -6.595  16.549  69.788  1.00  0.00     0.000 HD 
BRANCH   8  10
HETATM   10  C   UNL     1      -8.064  16.139  68.411  1.00  0.00    -0.171 A  
HETATM   11  C   UNL     1      -9.403  16.075  68.776  1.00  0.00    -0.222 A  
HETATM   12  C   UNL     1      -8.774  16.714  66.144  1.00  0.00    -0.322 A  
HETATM   13  C   UNL     1     -10.110  16.587  66.514  1.00  0.00    -0.299 A  
HETATM   14  C   UNL     1     -10.415  16.297  67.849  1.00  0.00    -0.295 A  
HETATM   15  C   UNL     1      -7.756  16.489  67.087  1.00  0.00    -0.214 A  
BRANCH  13  16
HETATM   16  O   UNL     1     -11.062  16.730  65.527  1.00  0.00    -0.095 OA 
BRANCH  16  17
HETATM   17  C   UNL     1     -11.139  15.577  64.686  1.00  0.00    -0.359 C  
BRANCH  17  18
HETATM   18  C   UNL     1     -12.526  14.937  64.611  1.00  0.00    -0.174 C  
BRANCH  18  19
HETATM   19  N   UNL     1     -12.381  13.473  64.650  1.00  0.00    -0.534 NA 
HETATM   20  C   UNL     1     -11.518  12.985  65.733  1.00  0.00    -0.332 C  
HETATM   21  C   UNL     1     -11.850  12.911  63.415  1.00  0.00    -0.507 C  
HETATM   22  C   UNL     1     -11.002  11.634  65.257  1.00  0.00    -0.327 C  
HETATM   23  C   UNL     1     -11.541  11.486  63.843  1.00  0.00    -0.305 C  
ENDBRANCH  18  19
ENDBRANCH  17  18
ENDBRANCH  16  17
ENDBRANCH  13  16
ENDBRANCH   8  10
ENDBRANCH   5   8
BRANCH   6  24
HETATM   24  N   UNL     1      -6.449  11.119  68.294  1.00  0.00    -0.056 NA 
HETATM   25  H   UNL     1      -5.646  10.899  67.704  1.00  0.00     0.000 HD 
BRANCH  24  26
HETATM   26  C   UNL     1      -7.542  10.236  68.108  1.00  0.00    -0.087 A  
HETATM   27  C   UNL     1      -7.578   9.200  67.170  1.00  0.00    -0.091 A  
HETATM   28  C   UNL     1      -8.737  10.507  68.799  1.00  0.00    -0.154 A  
HETATM   29  C   UNL     1      -8.752   8.468  66.917  1.00  0.00    -0.137 A  
HETATM   30  C   UNL     1      -9.942   8.794  67.565  1.00  0.00    -0.254 A  
HETATM   31  C   UNL     1      -9.934   9.835  68.491  1.00  0.00    -0.160 A  
BRANCH  31  32
HETATM   32  S   UNL     1     -11.441  10.283  69.317  1.00  0.00    -0.111 S  
HETATM   33  O   UNL     1     -11.075  11.111  70.447  1.00  0.00    -0.097 OA 
HETATM   34  O   UNL     1     -12.376  10.762  68.323  1.00  0.00    -0.296 OA 
BRANCH  32  35
HETATM   35  N   UNL     1     -12.022   8.854  69.984  1.00  0.00    -0.262 N  
HETATM   36  C   UNL     1     -12.842   7.165  71.545  1.00  0.00    -0.434 C  
HETATM   37  C   UNL     1     -11.012   8.675  72.257  1.00  0.00    -0.392 C  
HETATM   38  C   UNL     1     -13.359   9.560  71.958  1.00  0.00    -0.535 C  
HETATM   39  C   UNL     1     -12.294   8.605  71.422  1.00  0.00    -0.304 C  
HETATM   40  H   UNL     1     -12.205   8.085  69.340  1.00  0.00     0.000 HD 
ENDBRANCH  32  35
ENDBRANCH  31  32
ENDBRANCH  24  26
ENDBRANCH   6  24
TORSDOF 10
ENDMDL
MODEL      121
REMARK 921   NORMALIZED FREE ENERGY PREDICTED BY IDOCK:   -5.89 KCAL/MOL
REMARK 922        TOTAL FREE ENERGY PREDICTED BY IDOCK:  -10.68 KCAL/MOL
REMARK 923 INTER-LIGAND FREE ENERGY PREDICTED BY IDOCK:   -9.22 KCAL/MOL
REMARK 924 INTRA-LIGAND FREE ENERGY PREDICTED BY IDOCK:   -1.46 KCAL/MOL
REMARK 927      BINDING AFFINITY PREDICTED BY RF-SCORE:    0.00 PKD
ROOT
HETATM    1  C   UNL     1      -8.018  12.470  68.236  1.00  0.00    -0.153 C  
HETATM    2  C   UNL     1      -8.917  11.312  68.531  1.00  0.00    -0.166 A  
HETATM    3  C   UNL     1      -8.354  10.060  68.711  1.00  0.00    -0.121 A  
HETATM    4  N   UNL     1      -9.051   8.949  68.981  1.00  0.00    -0.137 NA 
HETATM    5  C   UNL     1     -10.376   9.086  69.042  1.00  0.00    -0.219 A  
HETATM    6  C   UNL     1     -10.301  11.387  68.678  1.00  0.00    -0.203 A  
HETATM    7  N   UNL     1     -11.010  10.268  68.910  1.00  0.00    -0.229 NA 
ENDROOT
BRANCH   5   8
HETATM    8  N   UNL     1     -11.079   7.897  69.252  1.00  0.00    -0.436 NA 
HETATM    9  H   UNL     1     -11.970   7.999  69.738  1.00  0.00     0.000 HD 
BRANCH   8  10
HETATM   10  C   UNL     1     -10.740   6.585  68.894  1.00  0.00    -0.273 A  
HETATM   11  C   UNL     1     -10.246   5.682  69.827  1.00  0.00    -0.321 A  
HETATM   12  C   UNL     1     -10.328   4.919  67.154  1.00  0.00    -0.181 A  
HETATM   13  C   UNL     1      -9.781   4.050  68.095  1.00  0.00    -0.074 A  
HETATM   14  C   UNL     1      -9.775   4.432  69.442  1.00  0.00    -0.267 A  
HETATM   15  C   UNL     1     -10.803   6.181  67.552  1.00  0.00    -0.422 A  
BRANCH  13  16
HETATM   16  O   UNL     1      -9.249   2.865  67.636  1.00  0.00    -0.172 OA 
BRANCH  16  17
HETATM   17  C   UNL     1      -7.833   2.806  67.820  1.00  0.00    -0.060 C  
BRANCH  17  18
HETATM   18  C   UNL     1      -7.040   2.493  66.551  1.00  0.00    -0.049 C  
BRANCH  18  19
HETATM   19  N   UNL     1      -6.554   3.753  65.967  1.00  0.00    -0.037 NA 
HETATM   20  C   UNL     1      -6.357   4.831  66.944  1.00  0.00    -0.037 C  
HETATM   21  C   UNL     1      -7.431   4.289  64.934  1.00  0.00    -0.073 C  
HETATM   22  C   UNL     1      -6.479   6.122  66.148  1.00  0.00    -0.046 C  
HETATM   23  C   UNL     1      -6.853   5.681  64.742  1.00  0.00    -0.051 C  
ENDBRANCH  18  19
ENDBRANCH  17  18
ENDBRANCH  16  17
ENDBRANCH  13  16
ENDBRANCH   8  10
ENDBRANCH   5   8
BRANCH   6  24
HETATM   24  N   UNL     1     -10.953  12.632  68.476  1.00  0.00    -0.249 NA 
HETATM   25  H   UNL     1     -11.119  13.148  69.341  1.00  0.00     0.000 HD 
BRANCH  24  26
HETATM   26  C   UNL     1     -11.420  13.305  67.320  1.00  0.00    -0.338 A  
HETATM   27  C   UNL     1     -12.216  12.725  66.328  1.00  0.00    -0.289 A  
HETATM   28  C   UNL     1     -10.928  14.598  67.062  1.00  0.00    -0.317 A  
HETATM   29  C   UNL     1     -12.505  13.392  65.124  1.00  0.00    -0.509 A  
HETATM   30  C   UNL     1     -11.956  14.645  64.860  1.00  0.00    -0.402 A  
HETATM   31  C   UNL     1     -11.144  15.235  65.827  1.00  0.00    -0.301 A  
BRANCH  31  32
HETATM   32  S   UNL     1     -10.416  16.822  65.508  1.00  0.00    -0.139 S  
HETATM   33  O   UNL     1      -8.992  16.611  65.348  1.00  0.00    -0.207 OA 
HETATM   34  O   UNL     1     -11.186  17.474  64.472  1.00  0.00    -0.926 OA 
BRANCH  32  35
HETATM   35  N   UNL     1     -10.578  17.680  66.944  1.00  0.00    -0.285 N  
HETATM   36  C   UNL     1     -10.360  19.360  68.703  1.00  0.00    -0.352 C  
HETATM   37  C   UNL     1      -8.352  18.702  67.411  1.00  0.00    -0.272 C  
HETATM   38  C   UNL     1     -10.186  20.056  66.324  1.00  0.00    -0.595 C  
HETATM   39  C   UNL     1      -9.863  18.930  67.305  1.00  0.00    -0.320 C  
HETATM   40  H   UNL     1     -11.230  17.307  67.633  1.00  0.00     0.000 HD 
ENDBRANCH  32  35
ENDBRANCH  31  32
ENDBRANCH  24  26
ENDBRANCH   6  24
TORSDOF 10
ENDMDL
MODEL      122
REMARK 921   NORMALIZED FREE ENERGY PREDICTED BY IDOCK:   -5.88 KCAL/MOL
REMARK 922        TOTAL FREE ENERGY PREDICTED BY IDOCK:  -10.66 KCAL/MOL
REMARK 923 INTER-LIGAND FREE ENERGY PREDICTED BY IDOCK:   -9.29 KCAL/MOL
REMARK 924 INTRA-LIGAND FREE ENERGY PREDICTED BY IDOCK:   -1.37 KCAL/MOL
REMARK 927      BINDING AFFINITY PREDICTED BY RF-SCORE:    0.00 PKD
ROOT
HETATM    1  C   UNL     1     -10.156  12.083  63.278  1.00  0.00    -0.379 C  
HETATM    2  C   UNL     1      -9.715  10.898  64.077  1.00  0.00    -0.351 A  
HETATM    3  C   UNL     1      -9.256   9.777  63.409  1.00  0.00    -0.176 A  
HETATM    4  N   UNL     1      -8.832   8.658  64.011  1.00  0.00     0.102 NA 
HETATM    5  C   UNL     1      -8.899   8.644  65.342  1.00  0.00    -0.155 A  
HETATM    6  C   UNL     1      -9.690  10.833  65.470  1.00  0.00    -0.239 A  
HETATM    7  N   UNL     1      -9.303   9.698  66.079  1.00  0.00    -0.190 NA 
ENDROOT
BRANCH   5   8
HETATM    8  N   UNL     1      -8.519   7.438  65.935  1.00  0.00    -0.146 NA 
HETATM    9  H   UNL     1      -7.861   6.876  65.395  1.00  0.00     0.000 HD 
BRANCH   8  10
HETATM   10  C   UNL     1      -8.908   6.886  67.163  1.00  0.00    -0.120 A  
HETATM   11  C   UNL     1     -10.216   6.478  67.394  1.00  0.00    -0.227 A  
HETATM   12  C   UNL     1      -8.410   6.410  69.508  1.00  0.00    -0.126 A  
HETATM   13  C   UNL     1      -9.739   6.061  69.735  1.00  0.00    -0.158 A  
HETATM   14  C   UNL     1     -10.631   6.067  68.656  1.00  0.00    -0.327 A  
HETATM   15  C   UNL     1      -7.998   6.822  68.229  1.00  0.00    -0.111 A  
BRANCH  13  16
HETATM   16  O   UNL     1     -10.107   5.752  71.027  1.00  0.00    -0.189 OA 
BRANCH  16  17
HETATM   17  C   UNL     1      -9.973   6.872  71.905  1.00  0.00    -0.171 C  
BRANCH  17  18
HETATM   18  C   UNL     1     -11.133   7.053  72.885  1.00  0.00    -0.278 C  
BRANCH  18  19
HETATM   19  N   UNL     1     -11.827   8.313  72.579  1.00  0.00    -0.398 NA 
HETATM   20  C   UNL     1     -13.269   8.163  72.346  1.00  0.00    -0.086 C  
HETATM   21  C   UNL     1     -11.291   9.001  71.412  1.00  0.00    -0.323 C  
HETATM   22  C   UNL     1     -13.660   9.349  71.476  1.00  0.00    -0.408 C  
HETATM   23  C   UNL     1     -12.352  10.062  71.174  1.00  0.00    -0.477 C  
ENDBRANCH  18  19
ENDBRANCH  17  18
ENDBRANCH  16  17
ENDBRANCH  13  16
ENDBRANCH   8  10
ENDBRANCH   5   8
BRANCH   6  24
HETATM   24  N   UNL     1     -10.176  11.933  66.224  1.00  0.00    -0.211 NA 
HETATM   25  H   UNL     1     -11.187  11.913  66.367  1.00  0.00     0.000 HD 
BRANCH  24  26
HETATM   26  C   UNL     1      -9.547  13.054  66.821  1.00  0.00    -0.248 A  
HETATM   27  C   UNL     1      -8.696  12.993  67.928  1.00  0.00    -0.189 A  
HETATM   28  C   UNL     1      -9.917  14.336  66.375  1.00  0.00    -0.302 A  
HETATM   29  C   UNL     1      -8.239  14.154  68.577  1.00  0.00    -0.146 A  
HETATM   30  C   UNL     1      -8.668  15.412  68.161  1.00  0.00    -0.161 A  
HETATM   31  C   UNL     1      -9.531  15.497  67.070  1.00  0.00    -0.225 A  
BRANCH  31  32
HETATM   32  S   UNL     1     -10.108  17.087  66.531  1.00  0.00    -0.323 S  
HETATM   33  O   UNL     1     -10.549  16.936  65.160  1.00  0.00    -0.679 OA 
HETATM   34  O   UNL     1     -11.001  17.610  67.541  1.00  0.00    -0.273 OA 
BRANCH  32  35
HETATM   35  N   UNL     1      -8.735  18.053  66.451  1.00  0.00    -0.254 N  
HETATM   36  C   UNL     1      -7.122  19.858  66.772  1.00  0.00    -0.247 C  
HETATM   37  C   UNL     1      -9.526  20.415  66.554  1.00  0.00    -0.398 C  
HETATM   38  C   UNL     1      -8.663  19.256  68.626  1.00  0.00    -0.402 C  
HETATM   39  C   UNL     1      -8.550  19.371  67.106  1.00  0.00    -0.294 C  
HETATM   40  H   UNL     1      -7.953  17.698  65.900  1.00  0.00     0.000 HD 
ENDBRANCH  32  35
ENDBRANCH  31  32
ENDBRANCH  24  26
ENDBRANCH   6  24
TORSDOF 10
ENDMDL
MODEL      123
REMARK 921   NORMALIZED FREE ENERGY PREDICTED BY IDOCK:   -5.86 KCAL/MOL
REMARK 922        TOTAL FREE ENERGY PREDICTED BY IDOCK:  -10.64 KCAL/MOL
REMARK 923 INTER-LIGAND FREE ENERGY PREDICTED BY IDOCK:   -9.91 KCAL/MOL
REMARK 924 INTRA-LIGAND FREE ENERGY PREDICTED BY IDOCK:   -0.73 KCAL/MOL
REMARK 927      BINDING AFFINITY PREDICTED BY RF-SCORE:    0.00 PKD
ROOT
HETATM    1  C   UNL     1      -8.535   9.293  63.088  1.00  0.00    -0.212 C  
HETATM    2  C   UNL     1      -9.449  10.250  63.783  1.00  0.00    -0.352 A  
HETATM    3  C   UNL     1      -9.999  11.293  63.059  1.00  0.00    -0.311 A  
HETATM    4  N   UNL     1     -10.830  12.212  63.567  1.00  0.00    -0.444 NA 
HETATM    5  C   UNL     1     -11.100  12.106  64.868  1.00  0.00    -0.319 A  
HETATM    6  C   UNL     1      -9.833  10.165  65.121  1.00  0.00    -0.325 A  
HETATM    7  N   UNL     1     -10.636  11.108  65.646  1.00  0.00    -0.248 NA 
ENDROOT
BRANCH   5   8
HETATM    8  N   UNL     1     -11.911  13.120  65.382  1.00  0.00    -0.380 NA 
HETATM    9  H   UNL     1     -12.907  12.904  65.418  1.00  0.00     0.000 HD 
BRANCH   8  10
HETATM   10  C   UNL     1     -11.558  14.390  65.857  1.00  0.00    -0.361 A  
HETATM   11  C   UNL     1     -11.143  15.398  64.996  1.00  0.00    -0.428 A  
HETATM   12  C   UNL     1     -11.029  15.862  67.735  1.00  0.00    -0.315 A  
HETATM   13  C   UNL     1     -10.562  16.838  66.858  1.00  0.00    -0.219 A  
HETATM   14  C   UNL     1     -10.655  16.606  65.481  1.00  0.00    -0.273 A  
HETATM   15  C   UNL     1     -11.522  14.644  67.237  1.00  0.00    -0.386 A  
BRANCH  13  16
HETATM   16  O   UNL     1     -10.007  17.975  67.404  1.00  0.00    -0.302 OA 
BRANCH  16  17
HETATM   17  C   UNL     1      -9.840  19.010  66.433  1.00  0.00    -0.378 C  
BRANCH  17  18
HETATM   18  C   UNL     1      -8.399  19.487  66.254  1.00  0.00    -0.345 C  
BRANCH  18  19
HETATM   19  N   UNL     1      -7.800  19.713  67.579  1.00  0.00    -0.267 NA 
HETATM   20  C   UNL     1      -6.923  20.888  67.649  1.00  0.00    -0.315 C  
HETATM   21  C   UNL     1      -7.014  18.584  68.059  1.00  0.00    -0.227 C  
HETATM   22  C   UNL     1      -5.965  20.607  68.798  1.00  0.00    -0.383 C  
HETATM   23  C   UNL     1      -6.305  19.197  69.255  1.00  0.00    -0.320 C  
ENDBRANCH  18  19
ENDBRANCH  17  18
ENDBRANCH  16  17
ENDBRANCH  13  16
ENDBRANCH   8  10
ENDBRANCH   5   8
BRANCH   6  24
HETATM   24  N   UNL     1      -9.285   9.141  65.936  1.00  0.00    -0.210 NA 
HETATM   25  H   UNL     1      -8.273   9.208  66.047  1.00  0.00     0.000 HD 
BRANCH  24  26
HETATM   26  C   UNL     1      -9.855   8.043  66.629  1.00  0.00    -0.252 A  
HETATM   27  C   UNL     1     -10.610   8.147  67.801  1.00  0.00    -0.233 A  
HETATM   28  C   UNL     1      -9.514   6.745  66.207  1.00  0.00    -0.116 A  
HETATM   29  C   UNL     1     -11.004   7.013  68.533  1.00  0.00    -0.135 A  
HETATM   30  C   UNL     1     -10.602   5.740  68.134  1.00  0.00    -0.286 A  
HETATM   31  C   UNL     1      -9.832   5.613  66.979  1.00  0.00    -0.154 A  
BRANCH  31  32
HETATM   32  S   UNL     1      -9.291   4.004  66.460  1.00  0.00    -0.193 S  
HETATM   33  O   UNL     1      -7.973   4.166  65.882  1.00  0.00    -0.093 OA 
HETATM   34  O   UNL     1      -9.511   3.079  67.549  1.00  0.00    -0.204 OA 
BRANCH  32  35
HETATM   35  N   UNL     1     -10.290   3.595  65.172  1.00  0.00    -0.429 N  
HETATM   36  C   UNL     1     -11.134   2.749  63.043  1.00  0.00    -0.113 C  
HETATM   37  C   UNL     1      -8.924   3.865  63.104  1.00  0.00    -0.108 C  
HETATM   38  C   UNL     1      -9.237   1.588  64.150  1.00  0.00    -0.117 C  
HETATM   39  C   UNL     1      -9.866   2.958  63.901  1.00  0.00    -0.153 C  
HETATM   40  H   UNL     1     -11.283   3.804  65.275  1.00  0.00     0.000 HD 
ENDBRANCH  32  35
ENDBRANCH  31  32
ENDBRANCH  24  26
ENDBRANCH   6  24
TORSDOF 10
ENDMDL
MODEL      124
REMARK 921   NORMALIZED FREE ENERGY PREDICTED BY IDOCK:   -5.86 KCAL/MOL
REMARK 922        TOTAL FREE ENERGY PREDICTED BY IDOCK:  -10.63 KCAL/MOL
REMARK 923 INTER-LIGAND FREE ENERGY PREDICTED BY IDOCK:   -9.71 KCAL/MOL
REMARK 924 INTRA-LIGAND FREE ENERGY PREDICTED BY IDOCK:   -0.92 KCAL/MOL
REMARK 927      BINDING AFFINITY PREDICTED BY RF-SCORE:    0.00 PKD
ROOT
HETATM    1  C   UNL     1      -5.336  11.055  70.901  1.00  0.00    -0.118 C  
HETATM    2  C   UNL     1      -5.847  12.368  70.399  1.00  0.00    -0.149 A  
HETATM    3  C   UNL     1      -5.244  13.531  70.844  1.00  0.00    -0.141 A  
HETATM    4  N   UNL     1      -5.608  14.764  70.467  1.00  0.00    -0.136 NA 
HETATM    5  C   UNL     1      -6.645  14.842  69.633  1.00  0.00    -0.161 A  
HETATM    6  C   UNL     1      -6.878  12.527  69.475  1.00  0.00     0.089 A  
HETATM    7  N   UNL     1      -7.275  13.764  69.124  1.00  0.00    -0.065 NA 
ENDROOT
BRANCH   5   8
HETATM    8  N   UNL     1      -7.046  16.142  69.316  1.00  0.00    -0.213 NA 
HETATM    9  H   UNL     1      -6.573  16.881  69.836  1.00  0.00     0.000 HD 
BRANCH   8  10
HETATM   10  C   UNL     1      -8.003  16.580  68.391  1.00  0.00    -0.194 A  
HETATM   11  C   UNL     1      -9.342  16.713  68.738  1.00  0.00    -0.256 A  
HETATM   12  C   UNL     1      -8.613  17.100  66.082  1.00  0.00    -0.222 A  
HETATM   13  C   UNL     1      -9.958  17.170  66.438  1.00  0.00    -0.306 A  
HETATM   14  C   UNL     1     -10.309  17.007  67.783  1.00  0.00    -0.335 A  
HETATM   15  C   UNL     1      -7.642  16.804  67.053  1.00  0.00    -0.235 A  
BRANCH  13  16
HETATM   16  O   UNL     1     -10.875  17.374  65.429  1.00  0.00    -0.512 OA 
BRANCH  16  17
HETATM   17  C   UNL     1     -11.080  16.197  64.645  1.00  0.00    -0.296 C  
BRANCH  17  18
HETATM   18  C   UNL     1     -10.686  14.893  65.341  1.00  0.00    -0.377 C  
BRANCH  18  19
HETATM   19  N   UNL     1     -10.871  13.774  64.404  1.00  0.00    -0.380 NA 
HETATM   20  C   UNL     1     -12.273  13.503  64.062  1.00  0.00    -0.402 C  
HETATM   21  C   UNL     1     -10.313  12.517  64.886  1.00  0.00    -0.300 C  
HETATM   22  C   UNL     1     -12.309  12.038  63.649  1.00  0.00    -0.648 C  
HETATM   23  C   UNL     1     -10.896  11.528  63.890  1.00  0.00    -0.469 C  
ENDBRANCH  18  19
ENDBRANCH  17  18
ENDBRANCH  16  17
ENDBRANCH  13  16
ENDBRANCH   8  10
ENDBRANCH   5   8
BRANCH   6  24
HETATM   24  N   UNL     1      -7.567  11.381  68.999  1.00  0.00    -0.246 NA 
HETATM   25  H   UNL     1      -6.948  10.665  68.618  1.00  0.00     0.000 HD 
BRANCH  24  26
HETATM   26  C   UNL     1      -8.938  11.026  68.944  1.00  0.00    -0.115 A  
HETATM   27  C   UNL     1      -9.895  11.667  68.151  1.00  0.00    -0.191 A  
HETATM   28  C   UNL     1      -9.411  10.070  69.860  1.00  0.00    -0.221 A  
HETATM   29  C   UNL     1     -11.266  11.381  68.267  1.00  0.00    -0.326 A  
HETATM   30  C   UNL     1     -11.722  10.478  69.225  1.00  0.00    -0.281 A  
HETATM   31  C   UNL     1     -10.788   9.840  70.039  1.00  0.00    -0.278 A  
BRANCH  31  32
HETATM   32  S   UNL     1     -11.343   8.699  71.281  1.00  0.00    -0.301 S  
HETATM   33  O   UNL     1     -12.492   9.300  71.926  1.00  0.00    -0.342 OA 
HETATM   34  O   UNL     1     -11.435   7.387  70.680  1.00  0.00    -0.284 OA 
BRANCH  32  35
HETATM   35  N   UNL     1     -10.134   8.692  72.448  1.00  0.00    -0.292 N  
HETATM   36  C   UNL     1      -8.409   7.986  74.026  1.00  0.00    -0.323 C  
HETATM   37  C   UNL     1     -10.458   6.615  73.788  1.00  0.00    -0.357 C  
HETATM   38  C   UNL     1      -8.748   6.694  71.931  1.00  0.00    -0.128 C  
HETATM   39  C   UNL     1      -9.469   7.493  73.016  1.00  0.00    -0.203 C  
HETATM   40  H   UNL     1      -9.827   9.599  72.800  1.00  0.00     0.000 HD 
ENDBRANCH  32  35
ENDBRANCH  31  32
ENDBRANCH  24  26
ENDBRANCH   6  24
TORSDOF 10
ENDMDL
MODEL      125
REMARK 921   NORMALIZED FREE ENERGY PREDICTED BY IDOCK:   -5.85 KCAL/MOL
REMARK 922        TOTAL FREE ENERGY PREDICTED BY IDOCK:  -10.63 KCAL/MOL
REMARK 923 INTER-LIGAND FREE ENERGY PREDICTED BY IDOCK:   -9.65 KCAL/MOL
REMARK 924 INTRA-LIGAND FREE ENERGY PREDICTED BY IDOCK:   -0.98 KCAL/MOL
REMARK 927      BINDING AFFINITY PREDICTED BY RF-SCORE:    0.00 PKD
ROOT
HETATM    1  C   UNL     1     -12.760  13.451  65.288  1.00  0.00    -0.481 C  
HETATM    2  C   UNL     1     -11.424  13.576  65.947  1.00  0.00    -0.338 A  
HETATM    3  C   UNL     1     -10.502  14.464  65.421  1.00  0.00    -0.373 A  
HETATM    4  N   UNL     1      -9.276  14.666  65.921  1.00  0.00    -0.122 NA 
HETATM    5  C   UNL     1      -8.941  13.924  66.977  1.00  0.00    -0.240 A  
HETATM    6  C   UNL     1     -11.026  12.887  67.091  1.00  0.00    -0.262 A  
HETATM    7  N   UNL     1      -9.782  13.056  67.575  1.00  0.00    -0.202 NA 
ENDROOT
BRANCH   5   8
HETATM    8  N   UNL     1      -7.632  14.106  67.429  1.00  0.00    -0.264 NA 
HETATM    9  H   UNL     1      -7.048  13.270  67.415  1.00  0.00     0.000 HD 
BRANCH   8  10
HETATM   10  C   UNL     1      -7.004  15.267  67.900  1.00  0.00    -0.146 A  
HETATM   11  C   UNL     1      -7.321  15.814  69.137  1.00  0.00    -0.194 A  
HETATM   12  C   UNL     1      -5.578  17.206  67.477  1.00  0.00    -0.154 A  
HETATM   13  C   UNL     1      -5.953  17.766  68.695  1.00  0.00    -0.189 A  
HETATM   14  C   UNL     1      -6.805  17.041  69.537  1.00  0.00    -0.111 A  
HETATM   15  C   UNL     1      -6.102  15.964  67.081  1.00  0.00     0.022 A  
BRANCH  13  16
HETATM   16  O   UNL     1      -5.479  19.025  68.992  1.00  0.00    -0.197 OA 
BRANCH  16  17
HETATM   17  C   UNL     1      -6.523  20.001  69.012  1.00  0.00    -0.323 C  
BRANCH  17  18
HETATM   18  C   UNL     1      -7.101  20.340  67.637  1.00  0.00    -0.290 C  
BRANCH  18  19
HETATM   19  N   UNL     1      -8.343  19.578  67.438  1.00  0.00    -0.287 NA 
HETATM   20  C   UNL     1      -9.200  20.096  66.364  1.00  0.00    -0.303 C  
HETATM   21  C   UNL     1      -9.177  19.506  68.631  1.00  0.00    -0.353 C  
HETATM   22  C   UNL     1     -10.607  19.632  66.713  1.00  0.00    -0.602 C  
HETATM   23  C   UNL     1     -10.469  18.944  68.062  1.00  0.00    -0.427 C  
ENDBRANCH  18  19
ENDBRANCH  17  18
ENDBRANCH  16  17
ENDBRANCH  13  16
ENDBRANCH   8  10
ENDBRANCH   5   8
BRANCH   6  24
HETATM   24  N   UNL     1     -11.906  11.934  67.669  1.00  0.00    -0.583 NA 
HETATM   25  H   UNL     1     -12.807  11.873  67.194  1.00  0.00     0.000 HD 
BRANCH  24  26
HETATM   26  C   UNL     1     -11.790  11.050  68.771  1.00  0.00    -0.282 A  
HETATM   27  C   UNL     1     -12.661  11.023  69.864  1.00  0.00    -0.202 A  
HETATM   28  C   UNL     1     -10.637  10.249  68.858  1.00  0.00    -0.242 A  
HETATM   29  C   UNL     1     -12.397  10.242  71.003  1.00  0.00    -0.483 A  
HETATM   30  C   UNL     1     -11.218   9.505  71.098  1.00  0.00    -0.446 A  
HETATM   31  C   UNL     1     -10.326   9.531  70.027  1.00  0.00    -0.247 A  
BRANCH  31  32
HETATM   32  S   UNL     1      -8.808   8.616  70.129  1.00  0.00    -0.149 S  
HETATM   33  O   UNL     1      -8.517   8.128  68.797  1.00  0.00    -0.125 OA 
HETATM   34  O   UNL     1      -7.845   9.418  70.850  1.00  0.00    -0.243 OA 
BRANCH  32  35
HETATM   35  N   UNL     1      -9.177   7.247  71.031  1.00  0.00    -0.154 N  
HETATM   36  C   UNL     1      -9.252   5.553  72.789  1.00  0.00    -0.137 C  
HETATM   37  C   UNL     1      -7.080   6.593  72.211  1.00  0.00    -0.073 C  
HETATM   38  C   UNL     1      -8.862   7.930  73.401  1.00  0.00    -0.324 C  
HETATM   39  C   UNL     1      -8.581   6.870  72.337  1.00  0.00    -0.122 C  
HETATM   40  H   UNL     1      -9.877   6.614  70.644  1.00  0.00     0.000 HD 
ENDBRANCH  32  35
ENDBRANCH  31  32
ENDBRANCH  24  26
ENDBRANCH   6  24
TORSDOF 10
ENDMDL
MODEL      126
REMARK 921   NORMALIZED FREE ENERGY PREDICTED BY IDOCK:   -5.85 KCAL/MOL
REMARK 922        TOTAL FREE ENERGY PREDICTED BY IDOCK:  -10.62 KCAL/MOL
REMARK 923 INTER-LIGAND FREE ENERGY PREDICTED BY IDOCK:   -8.56 KCAL/MOL
REMARK 924 INTRA-LIGAND FREE ENERGY PREDICTED BY IDOCK:   -2.06 KCAL/MOL
REMARK 927      BINDING AFFINITY PREDICTED BY RF-SCORE:    0.00 PKD
ROOT
HETATM    1  C   UNL     1     -12.414  15.455  71.852  1.00  0.00    -0.452 C  
HETATM    2  C   UNL     1     -12.367  14.299  70.904  1.00  0.00    -0.429 A  
HETATM    3  C   UNL     1     -12.544  13.021  71.404  1.00  0.00    -0.232 A  
HETATM    4  N   UNL     1     -12.526  11.908  70.658  1.00  0.00    -0.296 NA 
HETATM    5  C   UNL     1     -12.285  12.075  69.358  1.00  0.00    -0.097 A  
HETATM    6  C   UNL     1     -12.190  14.398  69.525  1.00  0.00    -0.282 A  
HETATM    7  N   UNL     1     -12.131  13.282  68.778  1.00  0.00    -0.290 NA 
ENDROOT
BRANCH   5   8
HETATM    8  N   UNL     1     -12.200  10.891  68.621  1.00  0.00    -0.810 NA 
HETATM    9  H   UNL     1     -13.083  10.398  68.488  1.00  0.00     0.000 HD 
BRANCH   8  10
HETATM   10  C   UNL     1     -11.081  10.282  68.039  1.00  0.00    -0.274 A  
HETATM   11  C   UNL     1     -10.742  10.503  66.709  1.00  0.00    -0.252 A  
HETATM   12  C   UNL     1      -9.292   8.620  68.152  1.00  0.00    -0.145 A  
HETATM   13  C   UNL     1      -9.007   8.813  66.803  1.00  0.00    -0.135 A  
HETATM   14  C   UNL     1      -9.721   9.787  66.096  1.00  0.00    -0.309 A  
HETATM   15  C   UNL     1     -10.325   9.349  68.766  1.00  0.00    -0.230 A  
BRANCH  13  16
HETATM   16  O   UNL     1      -8.045   8.008  66.232  1.00  0.00    -0.104 OA 
BRANCH  16  17
HETATM   17  C   UNL     1      -7.423   7.152  67.193  1.00  0.00    -0.098 C  
BRANCH  17  18
HETATM   18  C   UNL     1      -7.598   5.657  66.920  1.00  0.00    -0.096 C  
BRANCH  18  19
HETATM   19  N   UNL     1      -8.228   5.026  68.091  1.00  0.00    -0.096 NA 
HETATM   20  C   UNL     1      -9.692   5.136  68.116  1.00  0.00    -0.144 C  
HETATM   21  C   UNL     1      -7.753   5.559  69.361  1.00  0.00    -0.086 C  
HETATM   22  C   UNL     1     -10.077   5.023  69.584  1.00  0.00    -0.321 C  
HETATM   23  C   UNL     1      -8.755   4.958  70.332  1.00  0.00    -0.123 C  
ENDBRANCH  18  19
ENDBRANCH  17  18
ENDBRANCH  16  17
ENDBRANCH  13  16
ENDBRANCH   8  10
ENDBRANCH   5   8
BRANCH   6  24
HETATM   24  N   UNL     1     -11.969  15.674  68.944  1.00  0.00    -0.560 NA 
HETATM   25  H   UNL     1     -12.811  16.088  68.542  1.00  0.00     0.000 HD 
BRANCH  24  26
HETATM   26  C   UNL     1     -10.820  16.492  68.808  1.00  0.00    -0.342 A  
HETATM   27  C   UNL     1     -10.825  17.796  68.303  1.00  0.00    -0.155 A  
HETATM   28  C   UNL     1      -9.561  15.909  69.045  1.00  0.00    -0.247 A  
HETATM   29  C   UNL     1      -9.634  18.492  68.034  1.00  0.00    -0.337 A  
HETATM   30  C   UNL     1      -8.397  17.875  68.215  1.00  0.00    -0.286 A  
HETATM   31  C   UNL     1      -8.368  16.569  68.700  1.00  0.00    -0.235 A  
BRANCH  31  32
HETATM   32  S   UNL     1      -6.807  15.753  68.922  1.00  0.00    -0.140 S  
HETATM   33  O   UNL     1      -6.149  15.736  67.631  1.00  0.00    -0.140 OA 
HETATM   34  O   UNL     1      -6.155  16.330  70.076  1.00  0.00    -0.198 OA 
BRANCH  32  35
HETATM   35  N   UNL     1      -7.188  14.148  69.244  1.00  0.00    -0.249 N  
HETATM   36  C   UNL     1      -7.569  11.745  69.030  1.00  0.00     0.004 C  
HETATM   37  C   UNL     1      -8.230  13.239  67.168  1.00  0.00    -0.123 C  
HETATM   38  C   UNL     1      -5.790  12.823  67.671  1.00  0.00    -0.141 C  
HETATM   39  C   UNL     1      -7.182  13.031  68.266  1.00  0.00    -0.113 C  
HETATM   40  H   UNL     1      -7.449  13.919  70.203  1.00  0.00     0.000 HD 
ENDBRANCH  32  35
ENDBRANCH  31  32
ENDBRANCH  24  26
ENDBRANCH   6  24
TORSDOF 10
ENDMDL
MODEL      127
REMARK 921   NORMALIZED FREE ENERGY PREDICTED BY IDOCK:   -5.81 KCAL/MOL
REMARK 922        TOTAL FREE ENERGY PREDICTED BY IDOCK:  -10.55 KCAL/MOL
REMARK 923 INTER-LIGAND FREE ENERGY PREDICTED BY IDOCK:   -9.45 KCAL/MOL
REMARK 924 INTRA-LIGAND FREE ENERGY PREDICTED BY IDOCK:   -1.10 KCAL/MOL
REMARK 927      BINDING AFFINITY PREDICTED BY RF-SCORE:    0.00 PKD
ROOT
HETATM    1  C   UNL     1     -12.162  11.715  70.449  1.00  0.00    -0.434 C  
HETATM    2  C   UNL     1     -11.561  10.862  69.377  1.00  0.00    -0.387 A  
HETATM    3  C   UNL     1     -10.962   9.667  69.734  1.00  0.00    -0.240 A  
HETATM    4  N   UNL     1     -10.392   8.818  68.869  1.00  0.00    -0.211 NA 
HETATM    5  C   UNL     1     -10.391   9.194  67.590  1.00  0.00    -0.255 A  
HETATM    6  C   UNL     1     -11.581  11.154  68.014  1.00  0.00    -0.263 A  
HETATM    7  N   UNL     1     -10.976  10.325  67.145  1.00  0.00    -0.218 NA 
ENDROOT
BRANCH   5   8
HETATM    8  N   UNL     1      -9.726   8.324  66.723  1.00  0.00    -0.217 NA 
HETATM    9  H   UNL     1      -9.430   8.734  65.838  1.00  0.00     0.000 HD 
BRANCH   8  10
HETATM   10  C   UNL     1      -9.406   6.970  66.892  1.00  0.00    -0.153 A  
HETATM   11  C   UNL     1     -10.378   5.979  66.827  1.00  0.00    -0.296 A  
HETATM   12  C   UNL     1      -7.791   5.256  67.548  1.00  0.00    -0.096 A  
HETATM   13  C   UNL     1      -8.792   4.287  67.534  1.00  0.00    -0.110 A  
HETATM   14  C   UNL     1     -10.083   4.657  67.138  1.00  0.00    -0.187 A  
HETATM   15  C   UNL     1      -8.097   6.590  67.230  1.00  0.00    -0.113 A  
BRANCH  13  16
HETATM   16  O   UNL     1      -8.454   3.015  67.941  1.00  0.00    -0.078 OA 
BRANCH  16  17
HETATM   17  C   UNL     1      -8.123   2.966  69.330  1.00  0.00    -0.047 C  
BRANCH  17  18
HETATM   18  C   UNL     1      -9.252   2.470  70.235  1.00  0.00    -0.129 C  
BRANCH  18  19
HETATM   19  N   UNL     1      -9.426   3.417  71.348  1.00  0.00    -0.142 NA 
HETATM   20  C   UNL     1     -10.253   2.904  72.448  1.00  0.00    -0.134 C  
HETATM   21  C   UNL     1     -10.019   4.684  70.943  1.00  0.00    -0.203 C  
HETATM   22  C   UNL     1     -10.817   4.140  73.135  1.00  0.00    -0.285 C  
HETATM   23  C   UNL     1     -10.341   5.310  72.289  1.00  0.00    -0.265 C  
ENDBRANCH  18  19
ENDBRANCH  17  18
ENDBRANCH  16  17
ENDBRANCH  13  16
ENDBRANCH   8  10
ENDBRANCH   5   8
BRANCH   6  24
HETATM   24  N   UNL     1     -12.150  12.378  67.575  1.00  0.00    -0.472 NA 
HETATM   25  H   UNL     1     -13.146  12.459  67.780  1.00  0.00     0.000 HD 
BRANCH  24  26
HETATM   26  C   UNL     1     -11.618  13.511  66.910  1.00  0.00    -0.363 A  
HETATM   27  C   UNL     1     -11.199  13.527  65.576  1.00  0.00    -0.304 A  
HETATM   28  C   UNL     1     -11.342  14.658  67.676  1.00  0.00    -0.350 A  
HETATM   29  C   UNL     1     -10.524  14.630  65.024  1.00  0.00    -0.447 A  
HETATM   30  C   UNL     1     -10.203  15.731  65.816  1.00  0.00    -0.394 A  
HETATM   31  C   UNL     1     -10.594  15.729  67.153  1.00  0.00    -0.313 A  
BRANCH  31  32
HETATM   32  S   UNL     1     -10.181  17.111  68.188  1.00  0.00    -0.353 S  
HETATM   33  O   UNL     1     -10.472  18.311  67.431  1.00  0.00    -0.381 OA 
HETATM   34  O   UNL     1     -10.775  16.896  69.489  1.00  0.00    -0.326 OA 
BRANCH  32  35
HETATM   35  N   UNL     1      -8.506  17.073  68.330  1.00  0.00    -0.225 N  
HETATM   36  C   UNL     1      -6.144  17.693  68.337  1.00  0.00    -0.175 C  
HETATM   37  C   UNL     1      -7.612  18.565  66.543  1.00  0.00    -0.270 C  
HETATM   38  C   UNL     1      -7.854  19.400  68.914  1.00  0.00    -0.370 C  
HETATM   39  C   UNL     1      -7.575  18.188  68.027  1.00  0.00    -0.242 C  
HETATM   40  H   UNL     1      -8.091  16.200  68.655  1.00  0.00     0.000 HD 
ENDBRANCH  32  35
ENDBRANCH  31  32
ENDBRANCH  24  26
ENDBRANCH   6  24
TORSDOF 10
ENDMDL
MODEL      128
REMARK 921   NORMALIZED FREE ENERGY PREDICTED BY IDOCK:   -5.79 KCAL/MOL
REMARK 922        TOTAL FREE ENERGY PREDICTED BY IDOCK:  -10.52 KCAL/MOL
REMARK 923 INTER-LIGAND FREE ENERGY PREDICTED BY IDOCK:   -8.48 KCAL/MOL
REMARK 924 INTRA-LIGAND FREE ENERGY PREDICTED BY IDOCK:   -2.04 KCAL/MOL
REMARK 927      BINDING AFFINITY PREDICTED BY RF-SCORE:    0.00 PKD
ROOT
HETATM    1  C   UNL     1      -9.000   2.666  69.168  1.00  0.00    -0.171 C  
HETATM    2  C   UNL     1      -9.574   3.932  68.616  1.00  0.00    -0.181 A  
HETATM    3  C   UNL     1      -9.567   4.124  67.245  1.00  0.00    -0.190 A  
HETATM    4  N   UNL     1     -10.052   5.211  66.632  1.00  0.00    -0.210 NA 
HETATM    5  C   UNL     1     -10.537   6.168  67.424  1.00  0.00    -0.281 A  
HETATM    6  C   UNL     1     -10.160   4.944  69.373  1.00  0.00    -0.200 A  
HETATM    7  N   UNL     1     -10.612   6.056  68.766  1.00  0.00    -0.250 NA 
ENDROOT
BRANCH   5   8
HETATM    8  N   UNL     1     -10.968   7.318  66.759  1.00  0.00    -0.545 NA 
HETATM    9  H   UNL     1     -11.785   7.194  66.161  1.00  0.00     0.000 HD 
BRANCH   8  10
HETATM   10  C   UNL     1     -10.443   8.617  66.792  1.00  0.00    -0.228 A  
HETATM   11  C   UNL     1      -9.382   8.993  65.976  1.00  0.00    -0.305 A  
HETATM   12  C   UNL     1     -10.304  10.803  67.875  1.00  0.00    -0.216 A  
HETATM   13  C   UNL     1      -9.205  11.140  67.089  1.00  0.00    -0.158 A  
HETATM   14  C   UNL     1      -8.771  10.234  66.114  1.00  0.00    -0.163 A  
HETATM   15  C   UNL     1     -10.918   9.547  67.728  1.00  0.00    -0.165 A  
BRANCH  13  16
HETATM   16  O   UNL     1      -8.588  12.346  67.338  1.00  0.00    -0.163 OA 
BRANCH  16  17
HETATM   17  C   UNL     1      -9.523  13.426  67.391  1.00  0.00    -0.222 C  
BRANCH  17  18
HETATM   18  C   UNL     1      -9.426  14.408  66.223  1.00  0.00    -0.271 C  
BRANCH  18  19
HETATM   19  N   UNL     1     -10.664  14.335  65.432  1.00  0.00    -0.323 NA 
HETATM   20  C   UNL     1     -11.878  14.129  66.234  1.00  0.00    -0.411 C  
HETATM   21  C   UNL     1     -10.649  13.278  64.429  1.00  0.00    -0.419 C  
HETATM   22  C   UNL     1     -12.877  13.477  65.289  1.00  0.00    -0.410 C  
HETATM   23  C   UNL     1     -12.106  13.252  63.998  1.00  0.00    -0.508 C  
ENDBRANCH  18  19
ENDBRANCH  17  18
ENDBRANCH  16  17
ENDBRANCH  13  16
ENDBRANCH   8  10
ENDBRANCH   5   8
BRANCH   6  24
HETATM   24  N   UNL     1     -10.174   4.833  70.788  1.00  0.00    -0.210 NA 
HETATM   25  H   UNL     1     -10.491   3.922  71.120  1.00  0.00     0.000 HD 
BRANCH  24  26
HETATM   26  C   UNL     1      -9.838   5.727  71.835  1.00  0.00    -0.164 A  
HETATM   27  C   UNL     1     -10.760   6.316  72.706  1.00  0.00    -0.269 A  
HETATM   28  C   UNL     1      -8.510   6.184  71.914  1.00  0.00    -0.129 A  
HETATM   29  C   UNL     1     -10.386   7.324  73.612  1.00  0.00    -0.399 A  
HETATM   30  C   UNL     1      -9.079   7.808  73.631  1.00  0.00    -0.345 A  
HETATM   31  C   UNL     1      -8.147   7.249  72.759  1.00  0.00    -0.106 A  
BRANCH  31  32
HETATM   32  S   UNL     1      -6.481   7.861  72.749  1.00  0.00    -0.077 S  
HETATM   33  O   UNL     1      -6.504   9.166  73.377  1.00  0.00    -0.323 OA 
HETATM   34  O   UNL     1      -5.613   6.817  73.246  1.00  0.00    -0.044 OA 
BRANCH  32  35
HETATM   35  N   UNL     1      -6.126   8.155  71.132  1.00  0.00    -0.034 N  
HETATM   36  C   UNL     1      -5.837   9.229  68.958  1.00  0.00    -0.039 C  
HETATM   37  C   UNL     1      -7.828   9.787  70.322  1.00  0.00    -0.190 C  
HETATM   38  C   UNL     1      -5.533  10.567  71.030  1.00  0.00    -0.093 C  
HETATM   39  C   UNL     1      -6.341   9.431  70.405  1.00  0.00    -0.066 C  
HETATM   40  H   UNL     1      -5.725   7.383  70.600  1.00  0.00     0.000 HD 
ENDBRANCH  32  35
ENDBRANCH  31  32
ENDBRANCH  24  26
ENDBRANCH   6  24
TORSDOF 10
ENDMDL
MODEL      129
REMARK 921   NORMALIZED FREE ENERGY PREDICTED BY IDOCK:   -5.78 KCAL/MOL
REMARK 922        TOTAL FREE ENERGY PREDICTED BY IDOCK:  -10.50 KCAL/MOL
REMARK 923 INTER-LIGAND FREE ENERGY PREDICTED BY IDOCK:   -8.10 KCAL/MOL
REMARK 924 INTRA-LIGAND FREE ENERGY PREDICTED BY IDOCK:   -2.40 KCAL/MOL
REMARK 927      BINDING AFFINITY PREDICTED BY RF-SCORE:    0.00 PKD
ROOT
HETATM    1  C   UNL     1      -5.429  10.456  70.678  1.00  0.00    -0.081 C  
HETATM    2  C   UNL     1      -5.732  11.828  70.167  1.00  0.00    -0.145 A  
HETATM    3  C   UNL     1      -5.306  12.922  70.900  1.00  0.00    -0.176 A  
HETATM    4  N   UNL     1      -5.513  14.197  70.547  1.00  0.00    -0.115 NA 
HETATM    5  C   UNL     1      -6.208  14.392  69.426  1.00  0.00    -0.113 A  
HETATM    6  C   UNL     1      -6.391  12.112  68.972  1.00  0.00    -0.087 A  
HETATM    7  N   UNL     1      -6.637  13.390  68.632  1.00  0.00    -0.084 NA 
ENDROOT
BRANCH   5   8
HETATM    8  N   UNL     1      -6.471  15.730  69.125  1.00  0.00    -0.134 NA 
HETATM    9  H   UNL     1      -5.834  16.404  69.551  1.00  0.00     0.000 HD 
BRANCH   8  10
HETATM   10  C   UNL     1      -7.478  16.283  68.324  1.00  0.00    -0.157 A  
HETATM   11  C   UNL     1      -8.753  16.524  68.822  1.00  0.00    -0.259 A  
HETATM   12  C   UNL     1      -8.288  16.932  66.111  1.00  0.00    -0.286 A  
HETATM   13  C   UNL     1      -9.573  17.111  66.617  1.00  0.00    -0.267 A  
HETATM   14  C   UNL     1      -9.787  16.935  67.989  1.00  0.00    -0.264 A  
HETATM   15  C   UNL     1      -7.247  16.518  66.959  1.00  0.00    -0.247 A  
BRANCH  13  16
HETATM   16  O   UNL     1     -10.573  17.429  65.724  1.00  0.00    -0.456 OA 
BRANCH  16  17
HETATM   17  C   UNL     1     -10.819  16.371  64.795  1.00  0.00    -0.178 C  
BRANCH  17  18
HETATM   18  C   UNL     1     -11.496  15.141  65.399  1.00  0.00    -0.239 C  
BRANCH  18  19
HETATM   19  N   UNL     1     -11.401  14.024  64.446  1.00  0.00    -0.351 NA 
HETATM   20  C   UNL     1     -12.495  13.050  64.551  1.00  0.00    -0.363 C  
HETATM   21  C   UNL     1     -10.162  13.266  64.564  1.00  0.00    -0.310 C  
HETATM   22  C   UNL     1     -11.929  11.750  63.999  1.00  0.00    -0.380 C  
HETATM   23  C   UNL     1     -10.469  12.053  63.702  1.00  0.00    -0.494 C  
ENDBRANCH  18  19
ENDBRANCH  17  18
ENDBRANCH  16  17
ENDBRANCH  13  16
ENDBRANCH   8  10
ENDBRANCH   5   8
BRANCH   6  24
HETATM   24  N   UNL     1      -6.886  11.042  68.181  1.00  0.00    -0.066 NA 
HETATM   25  H   UNL     1      -6.166  10.583  67.623  1.00  0.00     0.000 HD 
BRANCH  24  26
HETATM   26  C   UNL     1      -8.176  10.481  68.008  1.00  0.00    -0.112 A  
HETATM   27  C   UNL     1      -8.590   9.771  66.877  1.00  0.00    -0.128 A  
HETATM   28  C   UNL     1      -9.164  10.786  68.963  1.00  0.00    -0.157 A  
HETATM   29  C   UNL     1      -9.930   9.387  66.692  1.00  0.00    -0.326 A  
HETATM   30  C   UNL     1     -10.905   9.754  67.617  1.00  0.00    -0.301 A  
HETATM   31  C   UNL     1     -10.519  10.478  68.743  1.00  0.00    -0.196 A  
BRANCH  31  32
HETATM   32  S   UNL     1     -11.744  10.974  69.928  1.00  0.00    -0.377 S  
HETATM   33  O   UNL     1     -12.995  11.112  69.212  1.00  0.00     0.028 OA 
HETATM   34  O   UNL     1     -11.643  10.101  71.077  1.00  0.00    -0.349 OA 
BRANCH  32  35
HETATM   35  N   UNL     1     -11.318  12.536  70.379  1.00  0.00    -0.207 N  
HETATM   36  C   UNL     1     -11.348  14.943  70.791  1.00  0.00    -0.266 C  
HETATM   37  C   UNL     1     -12.374  14.064  68.715  1.00  0.00    -0.074 C  
HETATM   38  C   UNL     1     -13.464  13.651  70.956  1.00  0.00    -0.024 C  
HETATM   39  C   UNL     1     -12.142  13.757  70.198  1.00  0.00    -0.359 C  
HETATM   40  H   UNL     1     -10.405  12.656  70.819  1.00  0.00     0.000 HD 
ENDBRANCH  32  35
ENDBRANCH  31  32
ENDBRANCH  24  26
ENDBRANCH   6  24
TORSDOF 10
ENDMDL
MODEL      130
REMARK 921   NORMALIZED FREE ENERGY PREDICTED BY IDOCK:   -5.77 KCAL/MOL
REMARK 922        TOTAL FREE ENERGY PREDICTED BY IDOCK:  -10.49 KCAL/MOL
REMARK 923 INTER-LIGAND FREE ENERGY PREDICTED BY IDOCK:   -8.34 KCAL/MOL
REMARK 924 INTRA-LIGAND FREE ENERGY PREDICTED BY IDOCK:   -2.15 KCAL/MOL
REMARK 927      BINDING AFFINITY PREDICTED BY RF-SCORE:    0.00 PKD
ROOT
HETATM    1  C   UNL     1     -10.386   6.463  73.960  1.00  0.00    -0.340 C  
HETATM    2  C   UNL     1     -10.191   5.920  72.581  1.00  0.00    -0.209 A  
HETATM    3  C   UNL     1     -10.185   4.548  72.399  1.00  0.00    -0.190 A  
HETATM    4  N   UNL     1     -10.022   3.942  71.216  1.00  0.00    -0.156 NA 
HETATM    5  C   UNL     1      -9.821   4.741  70.168  1.00  0.00    -0.238 A  
HETATM    6  C   UNL     1     -10.044   6.690  71.428  1.00  0.00    -0.190 A  
HETATM    7  N   UNL     1      -9.840   6.087  70.243  1.00  0.00    -0.174 NA 
ENDROOT
BRANCH   5   8
HETATM    8  N   UNL     1      -9.582   4.078  68.962  1.00  0.00    -0.173 NA 
HETATM    9  H   UNL     1      -9.714   3.067  68.989  1.00  0.00     0.000 HD 
BRANCH   8  10
HETATM   10  C   UNL     1      -9.188   4.596  67.722  1.00  0.00    -0.126 A  
HETATM   11  C   UNL     1     -10.035   4.570  66.621  1.00  0.00    -0.253 A  
HETATM   12  C   UNL     1      -7.423   5.455  66.265  1.00  0.00    -0.087 A  
HETATM   13  C   UNL     1      -8.269   5.366  65.163  1.00  0.00    -0.138 A  
HETATM   14  C   UNL     1      -9.591   4.950  65.360  1.00  0.00    -0.115 A  
HETATM   15  C   UNL     1      -7.879   5.070  67.537  1.00  0.00    -0.095 A  
BRANCH  13  16
HETATM   16  O   UNL     1      -7.741   5.670  63.926  1.00  0.00    -0.081 OA 
BRANCH  16  17
HETATM   17  C   UNL     1      -7.103   6.949  63.916  1.00  0.00    -0.060 C  
BRANCH  17  18
HETATM   18  C   UNL     1      -8.030   8.119  63.588  1.00  0.00    -0.140 C  
BRANCH  18  19
HETATM   19  N   UNL     1      -8.034   9.060  64.719  1.00  0.00    -0.121 NA 
HETATM   20  C   UNL     1      -6.842   8.976  65.573  1.00  0.00    -0.073 C  
HETATM   21  C   UNL     1      -9.183   8.902  65.601  1.00  0.00    -0.204 C  
HETATM   22  C   UNL     1      -7.283   9.501  66.931  1.00  0.00    -0.087 C  
HETATM   23  C   UNL     1      -8.774   9.761  66.786  1.00  0.00    -0.140 C  
ENDBRANCH  18  19
ENDBRANCH  17  18
ENDBRANCH  16  17
ENDBRANCH  13  16
ENDBRANCH   8  10
ENDBRANCH   5   8
BRANCH   6  24
HETATM   24  N   UNL     1     -10.007   8.105  71.539  1.00  0.00    -0.173 NA 
HETATM   25  H   UNL     1      -9.071   8.475  71.704  1.00  0.00     0.000 HD 
BRANCH  24  26
HETATM   26  C   UNL     1     -11.004   9.110  71.467  1.00  0.00    -0.364 A  
HETATM   27  C   UNL     1     -12.215   9.082  72.166  1.00  0.00    -0.427 A  
HETATM   28  C   UNL     1     -10.846  10.132  70.513  1.00  0.00    -0.340 A  
HETATM   29  C   UNL     1     -13.233  10.020  71.924  1.00  0.00    -0.557 A  
HETATM   30  C   UNL     1     -13.084  10.985  70.930  1.00  0.00    -0.199 A  
HETATM   31  C   UNL     1     -11.893  11.021  70.207  1.00  0.00    -0.367 A  
BRANCH  31  32
HETATM   32  S   UNL     1     -11.684  12.228  68.922  1.00  0.00    -0.323 S  
HETATM   33  O   UNL     1     -12.110  11.608  67.684  1.00  0.00    -0.615 OA 
HETATM   34  O   UNL     1     -12.275  13.470  69.368  1.00  0.00    -0.307 OA 
BRANCH  32  35
HETATM   35  N   UNL     1     -10.023  12.427  68.768  1.00  0.00    -0.418 N  
HETATM   36  C   UNL     1      -7.812  13.334  68.264  1.00  0.00    -0.143 C  
HETATM   37  C   UNL     1      -9.657  13.694  66.651  1.00  0.00    -0.289 C  
HETATM   38  C   UNL     1      -9.654  14.884  68.879  1.00  0.00    -0.215 C  
HETATM   39  C   UNL     1      -9.332  13.583  68.144  1.00  0.00    -0.213 C  
HETATM   40  H   UNL     1      -9.432  11.683  69.138  1.00  0.00     0.000 HD 
ENDBRANCH  32  35
ENDBRANCH  31  32
ENDBRANCH  24  26
ENDBRANCH   6  24
TORSDOF 10
ENDMDL
MODEL      131
REMARK 921   NORMALIZED FREE ENERGY PREDICTED BY IDOCK:   -5.76 KCAL/MOL
REMARK 922        TOTAL FREE ENERGY PREDICTED BY IDOCK:  -10.47 KCAL/MOL
REMARK 923 INTER-LIGAND FREE ENERGY PREDICTED BY IDOCK:   -9.32 KCAL/MOL
REMARK 924 INTRA-LIGAND FREE ENERGY PREDICTED BY IDOCK:   -1.15 KCAL/MOL
REMARK 927      BINDING AFFINITY PREDICTED BY RF-SCORE:    0.00 PKD
ROOT
HETATM    1  C   UNL     1     -10.632  12.096  64.143  1.00  0.00    -0.403 C  
HETATM    2  C   UNL     1     -10.648  12.025  65.637  1.00  0.00    -0.303 A  
HETATM    3  C   UNL     1     -11.214  10.919  66.246  1.00  0.00     0.157 A  
HETATM    4  N   UNL     1     -11.287  10.738  67.571  1.00  0.00    -0.456 NA 
HETATM    5  C   UNL     1     -10.802  11.724  68.326  1.00  0.00    -0.220 A  
HETATM    6  C   UNL     1     -10.100  12.980  66.492  1.00  0.00    -0.270 A  
HETATM    7  N   UNL     1     -10.206  12.824  67.823  1.00  0.00    -0.218 NA 
ENDROOT
BRANCH   5   8
HETATM    8  N   UNL     1     -10.959  11.539  69.702  1.00  0.00    -0.449 NA 
HETATM    9  H   UNL     1     -10.882  12.386  70.265  1.00  0.00     0.000 HD 
BRANCH   8  10
HETATM   10  C   UNL     1     -11.206  10.363  70.421  1.00  0.00    -0.321 A  
HETATM   11  C   UNL     1     -12.441  10.117  71.010  1.00  0.00    -0.474 A  
HETATM   12  C   UNL     1     -10.363   8.332  71.489  1.00  0.00    -0.276 A  
HETATM   13  C   UNL     1     -11.589   8.135  72.117  1.00  0.00    -0.357 A  
HETATM   14  C   UNL     1     -12.638   9.021  71.843  1.00  0.00    -0.452 A  
HETATM   15  C   UNL     1     -10.172   9.442  70.647  1.00  0.00    -0.353 A  
BRANCH  13  16
HETATM   16  O   UNL     1     -11.692   7.083  73.002  1.00  0.00    -0.048 OA 
BRANCH  16  17
HETATM   17  C   UNL     1     -10.473   6.859  73.713  1.00  0.00    -0.357 C  
BRANCH  17  18
HETATM   18  C   UNL     1     -10.204   5.396  74.067  1.00  0.00    -0.251 C  
BRANCH  18  19
HETATM   19  N   UNL     1     -10.405   4.568  72.867  1.00  0.00    -0.176 NA 
HETATM   20  C   UNL     1     -10.580   3.137  73.148  1.00  0.00    -0.167 C  
HETATM   21  C   UNL     1      -9.314   4.667  71.906  1.00  0.00    -0.140 C  
HETATM   22  C   UNL     1     -10.150   2.422  71.876  1.00  0.00    -0.174 C  
HETATM   23  C   UNL     1      -9.643   3.524  70.959  1.00  0.00    -0.243 C  
ENDBRANCH  18  19
ENDBRANCH  17  18
ENDBRANCH  16  17
ENDBRANCH  13  16
ENDBRANCH   8  10
ENDBRANCH   5   8
BRANCH   6  24
HETATM   24  N   UNL     1      -9.531  14.159  65.942  1.00  0.00    -0.516 NA 
HETATM   25  H   UNL     1      -8.603  14.014  65.545  1.00  0.00     0.000 HD 
BRANCH  24  26
HETATM   26  C   UNL     1      -9.988  15.496  65.831  1.00  0.00    -0.349 A  
HETATM   27  C   UNL     1     -10.916  15.944  64.886  1.00  0.00    -0.427 A  
HETATM   28  C   UNL     1      -9.357  16.478  66.615  1.00  0.00    -0.279 A  
HETATM   29  C   UNL     1     -11.201  17.310  64.716  1.00  0.00     0.690 A  
HETATM   30  C   UNL     1     -10.519  18.272  65.457  1.00  0.00     0.058 A  
HETATM   31  C   UNL     1      -9.576  17.850  66.393  1.00  0.00    -0.286 A  
BRANCH  31  32
HETATM   32  S   UNL     1      -8.679  19.056  67.337  1.00  0.00    -0.281 S  
HETATM   33  O   UNL     1      -9.659  19.924  67.958  1.00  0.00    -0.354 OA 
HETATM   34  O   UNL     1      -7.694  18.362  68.138  1.00  0.00    -0.271 OA 
BRANCH  32  35
HETATM   35  N   UNL     1      -7.895  20.015  66.201  1.00  0.00    -0.414 N  
HETATM   36  C   UNL     1      -6.204  21.017  64.752  1.00  0.00    -0.245 C  
HETATM   37  C   UNL     1      -5.590  20.400  67.071  1.00  0.00    -0.198 C  
HETATM   38  C   UNL     1      -6.032  18.610  65.344  1.00  0.00    -0.280 C  
HETATM   39  C   UNL     1      -6.448  19.982  65.873  1.00  0.00    -0.217 C  
HETATM   40  H   UNL     1      -8.469  20.684  65.688  1.00  0.00     0.000 HD 
ENDBRANCH  32  35
ENDBRANCH  31  32
ENDBRANCH  24  26
ENDBRANCH   6  24
TORSDOF 10
ENDMDL
MODEL      132
REMARK 921   NORMALIZED FREE ENERGY PREDICTED BY IDOCK:   -5.75 KCAL/MOL
REMARK 922        TOTAL FREE ENERGY PREDICTED BY IDOCK:  -10.46 KCAL/MOL
REMARK 923 INTER-LIGAND FREE ENERGY PREDICTED BY IDOCK:   -8.77 KCAL/MOL
REMARK 924 INTRA-LIGAND FREE ENERGY PREDICTED BY IDOCK:   -1.69 KCAL/MOL
REMARK 927      BINDING AFFINITY PREDICTED BY RF-SCORE:    0.00 PKD
ROOT
HETATM    1  C   UNL     1      -7.642   7.153  62.341  1.00  0.00    -0.105 C  
HETATM    2  C   UNL     1      -7.521   6.867  63.803  1.00  0.00    -0.091 A  
HETATM    3  C   UNL     1      -7.326   5.559  64.212  1.00  0.00    -0.058 A  
HETATM    4  N   UNL     1      -7.201   5.177  65.490  1.00  0.00    -0.067 NA 
HETATM    5  C   UNL     1      -7.307   6.139  66.406  1.00  0.00    -0.085 A  
HETATM    6  C   UNL     1      -7.552   7.826  64.814  1.00  0.00    -0.108 A  
HETATM    7  N   UNL     1      -7.467   7.443  66.101  1.00  0.00    -0.081 NA 
ENDROOT
BRANCH   5   8
HETATM    8  N   UNL     1      -7.245   5.698  67.729  1.00  0.00    -0.071 NA 
HETATM    9  H   UNL     1      -6.308   5.497  68.076  1.00  0.00     0.000 HD 
BRANCH   8  10
HETATM   10  C   UNL     1      -8.281   5.492  68.651  1.00  0.00    -0.102 A  
HETATM   11  C   UNL     1      -9.598   5.812  68.347  1.00  0.00    -0.147 A  
HETATM   12  C   UNL     1      -8.998   4.973  70.929  1.00  0.00    -0.165 A  
HETATM   13  C   UNL     1     -10.301   5.354  70.621  1.00  0.00    -0.262 A  
HETATM   14  C   UNL     1     -10.598   5.743  69.310  1.00  0.00    -0.376 A  
HETATM   15  C   UNL     1      -7.993   5.044  69.949  1.00  0.00    -0.074 A  
BRANCH  13  16
HETATM   16  O   UNL     1     -11.226   5.351  71.643  1.00  0.00    -0.131 OA 
BRANCH  16  17
HETATM   17  C   UNL     1     -11.865   6.620  71.793  1.00  0.00    -0.335 C  
BRANCH  17  18
HETATM   18  C   UNL     1     -11.070   7.640  72.608  1.00  0.00    -0.359 C  
BRANCH  18  19
HETATM   19  N   UNL     1     -11.666   8.973  72.422  1.00  0.00    -0.213 NA 
HETATM   20  C   UNL     1     -13.129   8.997  72.542  1.00  0.00    -0.385 C  
HETATM   21  C   UNL     1     -11.349   9.574  71.134  1.00  0.00    -0.370 C  
HETATM   22  C   UNL     1     -13.577  10.210  71.740  1.00  0.00    -0.304 C  
HETATM   23  C   UNL     1     -12.305  10.754  71.109  1.00  0.00    -0.498 C  
ENDBRANCH  18  19
ENDBRANCH  17  18
ENDBRANCH  16  17
ENDBRANCH  13  16
ENDBRANCH   8  10
ENDBRANCH   5   8
BRANCH   6  24
HETATM   24  N   UNL     1      -7.780   9.185  64.475  1.00  0.00    -0.110 NA 
HETATM   25  H   UNL     1      -6.953   9.656  64.106  1.00  0.00     0.000 HD 
BRANCH  24  26
HETATM   26  C   UNL     1      -8.921  10.023  64.543  1.00  0.00    -0.226 A  
HETATM   27  C   UNL     1      -9.513  10.653  63.444  1.00  0.00    -0.352 A  
HETATM   28  C   UNL     1      -9.407  10.378  65.815  1.00  0.00    -0.230 A  
HETATM   29  C   UNL     1     -10.536  11.605  63.597  1.00  0.00    -0.493 A  
HETATM   30  C   UNL     1     -10.959  11.991  64.867  1.00  0.00    -0.356 A  
HETATM   31  C   UNL     1     -10.371  11.389  65.978  1.00  0.00    -0.249 A  
BRANCH  31  32
HETATM   32  S   UNL     1     -10.878  11.876  67.609  1.00  0.00    -0.240 S  
HETATM   33  O   UNL     1     -12.146  11.228  67.870  1.00  0.00    -0.634 OA 
HETATM   34  O   UNL     1      -9.757  11.694  68.504  1.00  0.00    -0.195 OA 
BRANCH  32  35
HETATM   35  N   UNL     1     -11.235  13.514  67.491  1.00  0.00    -0.274 N  
HETATM   36  C   UNL     1     -11.356  15.918  67.904  1.00  0.00    -0.252 C  
HETATM   37  C   UNL     1     -11.454  14.359  69.827  1.00  0.00    -0.328 C  
HETATM   38  C   UNL     1      -9.302  14.673  68.542  1.00  0.00    -0.201 C  
HETATM   39  C   UNL     1     -10.824  14.573  68.447  1.00  0.00    -0.243 C  
HETATM   40  H   UNL     1     -11.786  13.810  66.685  1.00  0.00     0.000 HD 
ENDBRANCH  32  35
ENDBRANCH  31  32
ENDBRANCH  24  26
ENDBRANCH   6  24
TORSDOF 10
ENDMDL
MODEL      133
REMARK 921   NORMALIZED FREE ENERGY PREDICTED BY IDOCK:   -5.73 KCAL/MOL
REMARK 922        TOTAL FREE ENERGY PREDICTED BY IDOCK:  -10.43 KCAL/MOL
REMARK 923 INTER-LIGAND FREE ENERGY PREDICTED BY IDOCK:   -8.97 KCAL/MOL
REMARK 924 INTRA-LIGAND FREE ENERGY PREDICTED BY IDOCK:   -1.46 KCAL/MOL
REMARK 927      BINDING AFFINITY PREDICTED BY RF-SCORE:    0.00 PKD
ROOT
HETATM    1  C   UNL     1      -9.592   7.899  72.212  1.00  0.00    -0.255 C  
HETATM    2  C   UNL     1     -10.245   8.943  71.363  1.00  0.00    -0.375 A  
HETATM    3  C   UNL     1     -11.481   9.435  71.745  1.00  0.00    -0.343 A  
HETATM    4  N   UNL     1     -12.164  10.370  71.071  1.00  0.00    -0.358 NA 
HETATM    5  C   UNL     1     -11.604  10.812  69.945  1.00  0.00    -0.331 A  
HETATM    6  C   UNL     1      -9.692   9.504  70.213  1.00  0.00    -0.263 A  
HETATM    7  N   UNL     1     -10.391  10.414  69.511  1.00  0.00    -0.233 NA 
ENDROOT
BRANCH   5   8
HETATM    8  N   UNL     1     -12.373  11.731  69.229  1.00  0.00    -0.130 NA 
HETATM    9  H   UNL     1     -13.239  11.361  68.837  1.00  0.00     0.000 HD 
BRANCH   8  10
HETATM   10  C   UNL     1     -12.132  13.087  68.970  1.00  0.00    -0.177 A  
HETATM   11  C   UNL     1     -11.842  13.542  67.689  1.00  0.00    -0.399 A  
HETATM   12  C   UNL     1     -11.695  15.343  69.803  1.00  0.00    -0.352 A  
HETATM   13  C   UNL     1     -11.351  15.766  68.521  1.00  0.00    -0.374 A  
HETATM   14  C   UNL     1     -11.461  14.859  67.460  1.00  0.00    -0.361 A  
HETATM   15  C   UNL     1     -12.081  14.010  70.026  1.00  0.00    -0.412 A  
BRANCH  13  16
HETATM   16  O   UNL     1     -10.894  17.057  68.376  1.00  0.00    -0.367 OA 
BRANCH  16  17
HETATM   17  C   UNL     1      -9.623  17.107  67.724  1.00  0.00    -0.256 C  
BRANCH  17  18
HETATM   18  C   UNL     1      -8.459  17.511  68.630  1.00  0.00    -0.258 C  
BRANCH  18  19
HETATM   19  N   UNL     1      -7.592  18.453  67.906  1.00  0.00    -0.241 NA 
HETATM   20  C   UNL     1      -7.506  19.784  68.521  1.00  0.00    -0.312 C  
HETATM   21  C   UNL     1      -7.997  18.665  66.522  1.00  0.00    -0.278 C  
HETATM   22  C   UNL     1      -7.136  20.728  67.386  1.00  0.00    -0.412 C  
HETATM   23  C   UNL     1      -7.139  19.859  66.138  1.00  0.00    -0.284 C  
ENDBRANCH  18  19
ENDBRANCH  17  18
ENDBRANCH  16  17
ENDBRANCH  13  16
ENDBRANCH   8  10
ENDBRANCH   5   8
BRANCH   6  24
HETATM   24  N   UNL     1      -8.441   9.027  69.741  1.00  0.00    -0.124 NA 
HETATM   25  H   UNL     1      -7.650   9.331  70.310  1.00  0.00     0.000 HD 
BRANCH  24  26
HETATM   26  C   UNL     1      -8.065   8.214  68.643  1.00  0.00    -0.124 A  
HETATM   27  C   UNL     1      -7.306   7.045  68.741  1.00  0.00    -0.093 A  
HETATM   28  C   UNL     1      -8.334   8.689  67.346  1.00  0.00    -0.116 A  
HETATM   29  C   UNL     1      -6.822   6.377  67.602  1.00  0.00    -0.076 A  
HETATM   30  C   UNL     1      -7.044   6.897  66.329  1.00  0.00    -0.074 A  
HETATM   31  C   UNL     1      -7.783   8.073  66.207  1.00  0.00    -0.091 A  
BRANCH  31  32
HETATM   32  S   UNL     1      -8.064   8.768  64.598  1.00  0.00    -0.164 S  
HETATM   33  O   UNL     1      -7.094   9.827  64.418  1.00  0.00    -0.117 OA 
HETATM   34  O   UNL     1      -8.159   7.683  63.647  1.00  0.00    -0.122 OA 
BRANCH  32  35
HETATM   35  N   UNL     1      -9.551   9.544  64.705  1.00  0.00    -0.439 N  
HETATM   36  C   UNL     1     -11.320  11.228  64.666  1.00  0.00    -0.066 C  
HETATM   37  C   UNL     1      -9.087  11.847  65.541  1.00  0.00     0.073 C  
HETATM   38  C   UNL     1      -9.421  11.417  63.075  1.00  0.00    -0.380 C  
HETATM   39  C   UNL     1      -9.803  10.991  64.492  1.00  0.00    -0.290 C  
HETATM   40  H   UNL     1     -10.358   8.966  64.939  1.00  0.00     0.000 HD 
ENDBRANCH  32  35
ENDBRANCH  31  32
ENDBRANCH  24  26
ENDBRANCH   6  24
TORSDOF 10
ENDMDL
MODEL      134
REMARK 921   NORMALIZED FREE ENERGY PREDICTED BY IDOCK:   -5.73 KCAL/MOL
REMARK 922        TOTAL FREE ENERGY PREDICTED BY IDOCK:  -10.42 KCAL/MOL
REMARK 923 INTER-LIGAND FREE ENERGY PREDICTED BY IDOCK:   -9.35 KCAL/MOL
REMARK 924 INTRA-LIGAND FREE ENERGY PREDICTED BY IDOCK:   -1.08 KCAL/MOL
REMARK 927      BINDING AFFINITY PREDICTED BY RF-SCORE:    0.00 PKD
ROOT
HETATM    1  C   UNL     1     -13.455  12.682  71.988  1.00  0.00    -0.516 C  
HETATM    2  C   UNL     1     -12.813  11.407  71.542  1.00  0.00    -0.508 A  
HETATM    3  C   UNL     1     -13.188  10.223  72.152  1.00  0.00    -0.340 A  
HETATM    4  N   UNL     1     -12.689   9.020  71.841  1.00  0.00    -0.354 NA 
HETATM    5  C   UNL     1     -11.746   9.000  70.898  1.00  0.00    -0.276 A  
HETATM    6  C   UNL     1     -11.874  11.297  70.518  1.00  0.00    -0.324 A  
HETATM    7  N   UNL     1     -11.339  10.098  70.228  1.00  0.00    -0.293 NA 
ENDROOT
BRANCH   5   8
HETATM    8  N   UNL     1     -11.194   7.742  70.648  1.00  0.00    -0.268 NA 
HETATM    9  H   UNL     1     -11.246   7.083  71.424  1.00  0.00     0.000 HD 
BRANCH   8  10
HETATM   10  C   UNL     1     -10.579   7.252  69.488  1.00  0.00    -0.234 A  
HETATM   11  C   UNL     1     -11.266   6.448  68.586  1.00  0.00    -0.338 A  
HETATM   12  C   UNL     1      -8.549   6.880  68.179  1.00  0.00    -0.123 A  
HETATM   13  C   UNL     1      -9.241   6.030  67.320  1.00  0.00    -0.114 A  
HETATM   14  C   UNL     1     -10.615   5.846  67.515  1.00  0.00    -0.347 A  
HETATM   15  C   UNL     1      -9.214   7.486  69.258  1.00  0.00    -0.144 A  
BRANCH  13  16
HETATM   16  O   UNL     1      -8.519   5.393  66.334  1.00  0.00    -0.112 OA 
BRANCH  16  17
HETATM   17  C   UNL     1      -7.391   4.691  66.863  1.00  0.00    -0.081 C  
BRANCH  17  18
HETATM   18  C   UNL     1      -7.493   3.168  66.776  1.00  0.00    -0.075 C  
BRANCH  18  19
HETATM   19  N   UNL     1      -7.294   2.597  68.118  1.00  0.00    -0.049 NA 
HETATM   20  C   UNL     1      -8.434   1.813  68.611  1.00  0.00    -0.058 C  
HETATM   21  C   UNL     1      -7.012   3.598  69.138  1.00  0.00    -0.046 C  
HETATM   22  C   UNL     1      -8.325   1.856  70.128  1.00  0.00    -0.069 C  
HETATM   23  C   UNL     1      -7.150   2.779  70.410  1.00  0.00    -0.033 C  
ENDBRANCH  18  19
ENDBRANCH  17  18
ENDBRANCH  16  17
ENDBRANCH  13  16
ENDBRANCH   8  10
ENDBRANCH   5   8
BRANCH   6  24
HETATM   24  N   UNL     1     -11.416  12.473  69.868  1.00  0.00    -0.515 NA 
HETATM   25  H   UNL     1     -11.125  13.207  70.514  1.00  0.00     0.000 HD 
BRANCH  24  26
HETATM   26  C   UNL     1     -11.280  12.836  68.504  1.00  0.00    -0.279 A  
HETATM   27  C   UNL     1     -11.245  11.931  67.439  1.00  0.00    -0.366 A  
HETATM   28  C   UNL     1     -11.002  14.182  68.203  1.00  0.00    -0.264 A  
HETATM   29  C   UNL     1     -10.938  12.339  66.129  1.00  0.00    -0.328 A  
HETATM   30  C   UNL     1     -10.603  13.665  65.861  1.00  0.00    -0.289 A  
HETATM   31  C   UNL     1     -10.612  14.581  66.911  1.00  0.00    -0.279 A  
BRANCH  31  32
HETATM   32  S   UNL     1     -10.170  16.272  66.601  1.00  0.00    -0.290 S  
HETATM   33  O   UNL     1     -10.458  16.537  65.207  1.00  0.00    -0.590 OA 
HETATM   34  O   UNL     1     -10.749  17.090  67.644  1.00  0.00    -0.342 OA 
BRANCH  32  35
HETATM   35  N   UNL     1      -8.494  16.322  66.723  1.00  0.00    -0.219 N  
HETATM   36  C   UNL     1      -6.217  16.652  67.540  1.00  0.00    -0.187 C  
HETATM   37  C   UNL     1      -7.944  18.346  68.072  1.00  0.00    -0.289 C  
HETATM   38  C   UNL     1      -8.016  16.062  69.149  1.00  0.00    -0.238 C  
HETATM   39  C   UNL     1      -7.713  16.844  67.872  1.00  0.00    -0.173 C  
HETATM   40  H   UNL     1      -7.963  15.957  65.932  1.00  0.00     0.000 HD 
ENDBRANCH  32  35
ENDBRANCH  31  32
ENDBRANCH  24  26
ENDBRANCH   6  24
TORSDOF 10
ENDMDL
MODEL      135
REMARK 921   NORMALIZED FREE ENERGY PREDICTED BY IDOCK:   -5.72 KCAL/MOL
REMARK 922        TOTAL FREE ENERGY PREDICTED BY IDOCK:  -10.41 KCAL/MOL
REMARK 923 INTER-LIGAND FREE ENERGY PREDICTED BY IDOCK:   -9.17 KCAL/MOL
REMARK 924 INTRA-LIGAND FREE ENERGY PREDICTED BY IDOCK:   -1.24 KCAL/MOL
REMARK 927      BINDING AFFINITY PREDICTED BY RF-SCORE:    0.00 PKD
ROOT
HETATM    1  C   UNL     1     -11.906  11.827  67.241  1.00  0.00    -0.186 C  
HETATM    2  C   UNL     1     -10.575  12.507  67.302  1.00  0.00    -0.246 A  
HETATM    3  C   UNL     1     -10.252  13.428  66.321  1.00  0.00    -0.298 A  
HETATM    4  N   UNL     1      -9.096  14.102  66.267  1.00  0.00    -0.119 NA 
HETATM    5  C   UNL     1      -8.206  13.821  67.219  1.00  0.00    -0.159 A  
HETATM    6  C   UNL     1      -9.623  12.319  68.302  1.00  0.00    -0.212 A  
HETATM    7  N   UNL     1      -8.444  12.963  68.232  1.00  0.00    -0.171 NA 
ENDROOT
BRANCH   5   8
HETATM    8  N   UNL     1      -6.984  14.486  67.094  1.00  0.00    -0.372 NA 
HETATM    9  H   UNL     1      -6.283  14.003  66.532  1.00  0.00     0.000 HD 
BRANCH   8  10
HETATM   10  C   UNL     1      -6.580  15.718  67.626  1.00  0.00    -0.171 A  
HETATM   11  C   UNL     1      -7.181  16.253  68.758  1.00  0.00    -0.179 A  
HETATM   12  C   UNL     1      -5.306  17.791  67.399  1.00  0.00    -0.143 A  
HETATM   13  C   UNL     1      -5.962  18.333  68.501  1.00  0.00    -0.187 A  
HETATM   14  C   UNL     1      -6.880  17.537  69.197  1.00  0.00    -0.232 A  
HETATM   15  C   UNL     1      -5.615  16.491  66.962  1.00  0.00    -0.105 A  
BRANCH  13  16
HETATM   16  O   UNL     1      -5.686  19.642  68.829  1.00  0.00    -0.212 OA 
BRANCH  16  17
HETATM   17  C   UNL     1      -6.834  20.482  68.697  1.00  0.00    -0.105 C  
BRANCH  17  18
HETATM   18  C   UNL     1      -7.253  20.764  67.253  1.00  0.00    -0.360 C  
BRANCH  18  19
HETATM   19  N   UNL     1      -8.663  20.381  67.079  1.00  0.00    -0.318 NA 
HETATM   20  C   UNL     1      -9.316  19.923  68.312  1.00  0.00    -0.279 C  
HETATM   21  C   UNL     1      -8.859  19.326  66.093  1.00  0.00    -0.247 C  
HETATM   22  C   UNL     1     -10.458  19.027  67.852  1.00  0.00    -0.474 C  
HETATM   23  C   UNL     1     -10.310  18.949  66.340  1.00  0.00    -0.503 C  
ENDBRANCH  18  19
ENDBRANCH  17  18
ENDBRANCH  16  17
ENDBRANCH  13  16
ENDBRANCH   8  10
ENDBRANCH   5   8
BRANCH   6  24
HETATM   24  N   UNL     1      -9.870  11.366  69.325  1.00  0.00    -0.413 NA 
HETATM   25  H   UNL     1     -10.033  11.787  70.240  1.00  0.00     0.000 HD 
BRANCH  24  26
HETATM   26  C   UNL     1      -9.937   9.951  69.336  1.00  0.00    -0.212 A  
HETATM   27  C   UNL     1      -9.541   9.126  68.279  1.00  0.00    -0.161 A  
HETATM   28  C   UNL     1     -10.590   9.327  70.416  1.00  0.00    -0.298 A  
HETATM   29  C   UNL     1      -9.789   7.743  68.283  1.00  0.00    -0.185 A  
HETATM   30  C   UNL     1     -10.494   7.154  69.332  1.00  0.00    -0.232 A  
HETATM   31  C   UNL     1     -10.915   7.959  70.388  1.00  0.00    -0.249 A  
BRANCH  31  32
HETATM   32  S   UNL     1     -11.831   7.238  71.727  1.00  0.00    -0.310 S  
HETATM   33  O   UNL     1     -11.351   7.851  72.948  1.00  0.00    -0.406 OA 
HETATM   34  O   UNL     1     -13.236   7.273  71.385  1.00  0.00    -0.380 OA 
BRANCH  32  35
HETATM   35  N   UNL     1     -11.318   5.639  71.804  1.00  0.00    -0.174 N  
HETATM   36  C   UNL     1     -10.137   3.587  72.403  1.00  0.00    -0.232 C  
HETATM   37  C   UNL     1      -8.863   5.705  72.240  1.00  0.00    -0.132 C  
HETATM   38  C   UNL     1     -10.496   5.336  74.131  1.00  0.00    -0.319 C  
HETATM   39  C   UNL     1     -10.216   5.111  72.646  1.00  0.00    -0.186 C  
HETATM   40  H   UNL     1     -11.811   4.967  71.217  1.00  0.00     0.000 HD 
ENDBRANCH  32  35
ENDBRANCH  31  32
ENDBRANCH  24  26
ENDBRANCH   6  24
TORSDOF 10
ENDMDL
MODEL      136
REMARK 921   NORMALIZED FREE ENERGY PREDICTED BY IDOCK:   -5.72 KCAL/MOL
REMARK 922        TOTAL FREE ENERGY PREDICTED BY IDOCK:  -10.40 KCAL/MOL
REMARK 923 INTER-LIGAND FREE ENERGY PREDICTED BY IDOCK:   -9.18 KCAL/MOL
REMARK 924 INTRA-LIGAND FREE ENERGY PREDICTED BY IDOCK:   -1.22 KCAL/MOL
REMARK 927      BINDING AFFINITY PREDICTED BY RF-SCORE:    0.00 PKD
ROOT
HETATM    1  C   UNL     1     -11.662  13.526  66.266  1.00  0.00    -0.401 C  
HETATM    2  C   UNL     1     -11.860  12.944  67.629  1.00  0.00    -0.400 A  
HETATM    3  C   UNL     1     -11.971  11.571  67.758  1.00  0.00    -0.025 A  
HETATM    4  N   UNL     1     -12.148  10.933  68.922  1.00  0.00    -0.481 NA 
HETATM    5  C   UNL     1     -12.253  11.702  70.006  1.00  0.00    -0.263 A  
HETATM    6  C   UNL     1     -11.910  13.677  68.814  1.00  0.00    -0.360 A  
HETATM    7  N   UNL     1     -12.128  13.044  69.981  1.00  0.00    -0.323 NA 
ENDROOT
BRANCH   5   8
HETATM    8  N   UNL     1     -12.510  11.012  71.193  1.00  0.00    -0.391 NA 
HETATM    9  H   UNL     1     -12.983  11.552  71.916  1.00  0.00     0.000 HD 
BRANCH   8  10
HETATM   10  C   UNL     1     -12.213   9.686  71.535  1.00  0.00    -0.399 A  
HETATM   11  C   UNL     1     -10.905   9.261  71.732  1.00  0.00    -0.358 A  
HETATM   12  C   UNL     1     -12.938   7.365  71.787  1.00  0.00    -0.365 A  
HETATM   13  C   UNL     1     -11.616   6.951  71.924  1.00  0.00    -0.286 A  
HETATM   14  C   UNL     1     -10.604   7.918  71.928  1.00  0.00    -0.285 A  
HETATM   15  C   UNL     1     -13.235   8.725  71.592  1.00  0.00    -0.399 A  
BRANCH  13  16
HETATM   16  O   UNL     1     -11.377   5.598  72.023  1.00  0.00    -0.250 OA 
BRANCH  16  17
HETATM   17  C   UNL     1     -10.637   5.101  70.906  1.00  0.00    -0.132 C  
BRANCH  17  18
HETATM   18  C   UNL     1      -9.674   3.960  71.239  1.00  0.00    -0.177 C  
BRANCH  18  19
HETATM   19  N   UNL     1      -8.995   3.530  70.007  1.00  0.00    -0.092 NA 
HETATM   20  C   UNL     1      -9.182   4.440  68.870  1.00  0.00    -0.140 C  
HETATM   21  C   UNL     1      -9.408   2.210  69.549  1.00  0.00    -0.093 C  
HETATM   22  C   UNL     1      -8.985   3.580  67.630  1.00  0.00    -0.168 C  
HETATM   23  C   UNL     1      -8.794   2.167  68.160  1.00  0.00    -0.153 C  
ENDBRANCH  18  19
ENDBRANCH  17  18
ENDBRANCH  16  17
ENDBRANCH  13  16
ENDBRANCH   8  10
ENDBRANCH   5   8
BRANCH   6  24
HETATM   24  N   UNL     1     -11.837  15.093  68.758  1.00  0.00    -0.470 NA 
HETATM   25  H   UNL     1     -12.750  15.545  68.694  1.00  0.00     0.000 HD 
BRANCH  24  26
HETATM   26  C   UNL     1     -10.756  16.009  68.773  1.00  0.00    -0.282 A  
HETATM   27  C   UNL     1     -10.854  17.362  68.435  1.00  0.00    -0.234 A  
HETATM   28  C   UNL     1      -9.461  15.502  68.989  1.00  0.00    -0.242 A  
HETATM   29  C   UNL     1      -9.716  18.179  68.304  1.00  0.00    -0.344 A  
HETATM   30  C   UNL     1      -8.439  17.643  68.459  1.00  0.00    -0.289 A  
HETATM   31  C   UNL     1      -8.316  16.292  68.779  1.00  0.00    -0.235 A  
BRANCH  31  32
HETATM   32  S   UNL     1      -6.701  15.579  68.963  1.00  0.00    -0.141 S  
HETATM   33  O   UNL     1      -6.092  15.562  67.649  1.00  0.00    -0.142 OA 
HETATM   34  O   UNL     1      -6.043  16.232  70.073  1.00  0.00    -0.198 OA 
BRANCH  32  35
HETATM   35  N   UNL     1      -6.970  13.965  69.347  1.00  0.00    -0.260 N  
HETATM   36  C   UNL     1      -7.156  11.533  69.233  1.00  0.00    -0.077 C  
HETATM   37  C   UNL     1      -7.857  12.887  67.281  1.00  0.00    -0.134 C  
HETATM   38  C   UNL     1      -5.414  12.687  67.889  1.00  0.00    -0.099 C  
HETATM   39  C   UNL     1      -6.840  12.811  68.424  1.00  0.00    -0.091 C  
HETATM   40  H   UNL     1      -7.249  13.760  70.306  1.00  0.00     0.000 HD 
ENDBRANCH  32  35
ENDBRANCH  31  32
ENDBRANCH  24  26
ENDBRANCH   6  24
TORSDOF 10
ENDMDL
MODEL      137
REMARK 921   NORMALIZED FREE ENERGY PREDICTED BY IDOCK:   -5.71 KCAL/MOL
REMARK 922        TOTAL FREE ENERGY PREDICTED BY IDOCK:  -10.40 KCAL/MOL
REMARK 923 INTER-LIGAND FREE ENERGY PREDICTED BY IDOCK:   -9.12 KCAL/MOL
REMARK 924 INTRA-LIGAND FREE ENERGY PREDICTED BY IDOCK:   -1.28 KCAL/MOL
REMARK 927      BINDING AFFINITY PREDICTED BY RF-SCORE:    0.00 PKD
ROOT
HETATM    1  C   UNL     1      -9.796  17.989  66.576  1.00  0.00    -0.353 C  
HETATM    2  C   UNL     1      -9.081  16.748  67.007  1.00  0.00    -0.239 A  
HETATM    3  C   UNL     1      -8.023  16.861  67.892  1.00  0.00    -0.183 A  
HETATM    4  N   UNL     1      -7.308  15.827  68.352  1.00  0.00    -0.114 NA 
HETATM    5  C   UNL     1      -7.642  14.624  67.882  1.00  0.00    -0.142 A  
HETATM    6  C   UNL     1      -9.415  15.453  66.615  1.00  0.00    -0.259 A  
HETATM    7  N   UNL     1      -8.676  14.414  67.042  1.00  0.00    -0.227 NA 
ENDROOT
BRANCH   5   8
HETATM    8  N   UNL     1      -6.831  13.577  68.324  1.00  0.00    -0.094 NA 
HETATM    9  H   UNL     1      -5.829  13.728  68.216  1.00  0.00     0.000 HD 
BRANCH   8  10
HETATM   10  C   UNL     1      -7.193  12.349  68.896  1.00  0.00    -0.061 A  
HETATM   11  C   UNL     1      -6.337  11.666  69.751  1.00  0.00    -0.134 A  
HETATM   12  C   UNL     1      -8.709  10.435  68.984  1.00  0.00    -0.170 A  
HETATM   13  C   UNL     1      -7.812   9.742  69.793  1.00  0.00    -0.156 A  
HETATM   14  C   UNL     1      -6.636  10.385  70.199  1.00  0.00    -0.146 A  
HETATM   15  C   UNL     1      -8.400  11.731  68.537  1.00  0.00    -0.131 A  
BRANCH  13  16
HETATM   16  O   UNL     1      -8.126   8.443  70.127  1.00  0.00    -0.102 OA 
BRANCH  16  17
HETATM   17  C   UNL     1      -9.157   8.377  71.115  1.00  0.00    -0.174 C  
BRANCH  17  18
HETATM   18  C   UNL     1     -10.139   7.220  70.931  1.00  0.00    -0.188 C  
BRANCH  18  19
HETATM   19  N   UNL     1     -11.506   7.760  70.850  1.00  0.00    -0.279 NA 
HETATM   20  C   UNL     1     -11.674   9.067  71.497  1.00  0.00    -0.345 C  
HETATM   21  C   UNL     1     -12.511   6.880  71.431  1.00  0.00    -0.367 C  
HETATM   22  C   UNL     1     -13.150   9.149  71.858  1.00  0.00    -0.478 C  
HETATM   23  C   UNL     1     -13.724   7.795  71.472  1.00  0.00    -0.416 C  
ENDBRANCH  18  19
ENDBRANCH  17  18
ENDBRANCH  16  17
ENDBRANCH  13  16
ENDBRANCH   8  10
ENDBRANCH   5   8
BRANCH   6  24
HETATM   24  N   UNL     1     -10.469  15.259  65.683  1.00  0.00    -0.331 NA 
HETATM   25  H   UNL     1     -11.088  16.066  65.598  1.00  0.00     0.000 HD 
BRANCH  24  26
HETATM   26  C   UNL     1     -10.837  14.176  64.847  1.00  0.00    -0.411 A  
HETATM   27  C   UNL     1     -12.011  14.118  64.089  1.00  0.00    -0.421 A  
HETATM   28  C   UNL     1     -10.055  13.007  64.895  1.00  0.00    -0.233 A  
HETATM   29  C   UNL     1     -12.401  12.949  63.414  1.00  0.00    -0.498 A  
HETATM   30  C   UNL     1     -11.647  11.782  63.526  1.00  0.00    -0.487 A  
HETATM   31  C   UNL     1     -10.483  11.811  64.291  1.00  0.00    -0.325 A  
BRANCH  31  32
HETATM   32  S   UNL     1      -9.513  10.334  64.466  1.00  0.00    -0.320 S  
HETATM   33  O   UNL     1     -10.124   9.547  65.517  1.00  0.00    -0.260 OA 
HETATM   34  O   UNL     1      -9.304   9.772  63.150  1.00  0.00    -0.263 OA 
BRANCH  32  35
HETATM   35  N   UNL     1      -8.039  10.843  65.093  1.00  0.00    -0.364 N  
HETATM   36  C   UNL     1      -5.713  10.923  65.831  1.00  0.00    -0.142 C  
HETATM   37  C   UNL     1      -7.030   8.862  66.221  1.00  0.00    -0.079 C  
HETATM   38  C   UNL     1      -6.326   9.508  63.883  1.00  0.00    -0.099 C  
HETATM   39  C   UNL     1      -6.815  10.017  65.238  1.00  0.00    -0.128 C  
HETATM   40  H   UNL     1      -7.980  11.813  65.403  1.00  0.00     0.000 HD 
ENDBRANCH  32  35
ENDBRANCH  31  32
ENDBRANCH  24  26
ENDBRANCH   6  24
TORSDOF 10
ENDMDL
MODEL      138
REMARK 921   NORMALIZED FREE ENERGY PREDICTED BY IDOCK:   -5.71 KCAL/MOL
REMARK 922        TOTAL FREE ENERGY PREDICTED BY IDOCK:  -10.40 KCAL/MOL
REMARK 923 INTER-LIGAND FREE ENERGY PREDICTED BY IDOCK:   -8.44 KCAL/MOL
REMARK 924 INTRA-LIGAND FREE ENERGY PREDICTED BY IDOCK:   -1.96 KCAL/MOL
REMARK 927      BINDING AFFINITY PREDICTED BY RF-SCORE:    0.00 PKD
ROOT
HETATM    1  C   UNL     1      -9.043   3.256  67.689  1.00  0.00    -0.210 C  
HETATM    2  C   UNL     1      -8.376   4.579  67.892  1.00  0.00    -0.098 A  
HETATM    3  C   UNL     1      -7.940   5.283  66.783  1.00  0.00    -0.104 A  
HETATM    4  N   UNL     1      -7.332   6.475  66.835  1.00  0.00    -0.078 NA 
HETATM    5  C   UNL     1      -7.118   6.975  68.053  1.00  0.00    -0.086 A  
HETATM    6  C   UNL     1      -8.178   5.197  69.126  1.00  0.00    -0.084 A  
HETATM    7  N   UNL     1      -7.533   6.375  69.187  1.00  0.00    -0.092 NA 
ENDROOT
BRANCH   5   8
HETATM    8  N   UNL     1      -6.418   8.183  68.075  1.00  0.00    -0.055 NA 
HETATM    9  H   UNL     1      -5.411   8.099  68.218  1.00  0.00     0.000 HD 
BRANCH   8  10
HETATM   10  C   UNL     1      -6.894   9.493  67.931  1.00  0.00    -0.074 A  
HETATM   11  C   UNL     1      -6.961  10.365  69.011  1.00  0.00    -0.071 A  
HETATM   12  C   UNL     1      -8.024  11.183  66.575  1.00  0.00    -0.158 A  
HETATM   13  C   UNL     1      -8.136  12.019  67.683  1.00  0.00    -0.155 A  
HETATM   14  C   UNL     1      -7.568  11.610  68.895  1.00  0.00    -0.087 A  
HETATM   15  C   UNL     1      -7.409   9.926  66.699  1.00  0.00    -0.099 A  
BRANCH  13  16
HETATM   16  O   UNL     1      -8.828  13.200  67.525  1.00  0.00    -0.178 OA 
BRANCH  16  17
HETATM   17  C   UNL     1     -10.242  13.008  67.606  1.00  0.00    -0.216 C  
BRANCH  17  18
HETATM   18  C   UNL     1     -11.067  14.013  66.802  1.00  0.00    -0.306 C  
BRANCH  18  19
HETATM   19  N   UNL     1     -11.058  13.616  65.385  1.00  0.00    -0.294 NA 
HETATM   20  C   UNL     1     -12.110  14.248  64.579  1.00  0.00    -0.480 C  
HETATM   21  C   UNL     1     -11.193  12.179  65.186  1.00  0.00    -0.329 C  
HETATM   22  C   UNL     1     -12.339  13.303  63.407  1.00  0.00    -0.402 C  
HETATM   23  C   UNL     1     -11.445  12.106  63.689  1.00  0.00    -0.566 C  
ENDBRANCH  18  19
ENDBRANCH  17  18
ENDBRANCH  16  17
ENDBRANCH  13  16
ENDBRANCH   8  10
ENDBRANCH   5   8
BRANCH   6  24
HETATM   24  N   UNL     1      -8.569   4.521  70.311  1.00  0.00    -0.076 NA 
HETATM   25  H   UNL     1      -8.062   3.649  70.467  1.00  0.00     0.000 HD 
BRANCH  24  26
HETATM   26  C   UNL     1      -9.519   4.808  71.323  1.00  0.00    -0.156 A  
HETATM   27  C   UNL     1      -9.814   3.967  72.400  1.00  0.00    -0.220 A  
HETATM   28  C   UNL     1     -10.339   5.939  71.159  1.00  0.00    -0.276 A  
HETATM   29  C   UNL     1     -10.884   4.228  73.274  1.00  0.00    -0.323 A  
HETATM   30  C   UNL     1     -11.724   5.318  73.057  1.00  0.00    -0.217 A  
HETATM   31  C   UNL     1     -11.461   6.160  71.979  1.00  0.00    -0.313 A  
BRANCH  31  32
HETATM   32  S   UNL     1     -12.527   7.545  71.669  1.00  0.00    -0.353 S  
HETATM   33  O   UNL     1     -13.843   7.012  71.382  1.00  0.00    -0.317 OA 
HETATM   34  O   UNL     1     -12.336   8.509  72.730  1.00  0.00    -0.327 OA 
BRANCH  32  35
HETATM   35  N   UNL     1     -11.990   8.202  70.218  1.00  0.00    -0.410 N  
HETATM   36  C   UNL     1     -10.888   9.607  68.552  1.00  0.00    -0.202 C  
HETATM   37  C   UNL     1     -11.874  10.670  70.560  1.00  0.00    -0.453 C  
HETATM   38  C   UNL     1      -9.797   9.246  70.755  1.00  0.00    -0.350 C  
HETATM   39  C   UNL     1     -11.149   9.415  70.062  1.00  0.00    -0.221 C  
HETATM   40  H   UNL     1     -12.267   7.721  69.363  1.00  0.00     0.000 HD 
ENDBRANCH  32  35
ENDBRANCH  31  32
ENDBRANCH  24  26
ENDBRANCH   6  24
TORSDOF 10
ENDMDL
MODEL      139
REMARK 921   NORMALIZED FREE ENERGY PREDICTED BY IDOCK:   -5.70 KCAL/MOL
REMARK 922        TOTAL FREE ENERGY PREDICTED BY IDOCK:  -10.39 KCAL/MOL
REMARK 923 INTER-LIGAND FREE ENERGY PREDICTED BY IDOCK:   -8.87 KCAL/MOL
REMARK 924 INTRA-LIGAND FREE ENERGY PREDICTED BY IDOCK:   -1.52 KCAL/MOL
REMARK 927      BINDING AFFINITY PREDICTED BY RF-SCORE:    0.00 PKD
ROOT
HETATM    1  C   UNL     1     -11.654  15.485  68.858  1.00  0.00    -0.384 C  
HETATM    2  C   UNL     1     -11.239  14.377  67.943  1.00  0.00    -0.304 A  
HETATM    3  C   UNL     1     -12.079  14.021  66.903  1.00  0.00    -0.430 A  
HETATM    4  N   UNL     1     -11.818  13.049  66.019  1.00  0.00    -0.396 NA 
HETATM    5  C   UNL     1     -10.680  12.379  66.199  1.00  0.00    -0.260 A  
HETATM    6  C   UNL     1     -10.036  13.677  68.025  1.00  0.00    -0.247 A  
HETATM    7  N   UNL     1      -9.787  12.674  67.164  1.00  0.00    -0.209 NA 
ENDROOT
BRANCH   5   8
HETATM    8  N   UNL     1     -10.473  11.326  65.306  1.00  0.00    -0.279 NA 
HETATM    9  H   UNL     1     -10.613  11.557  64.322  1.00  0.00     0.000 HD 
BRANCH   8  10
HETATM   10  C   UNL     1     -10.101   9.999  65.561  1.00  0.00    -0.255 A  
HETATM   11  C   UNL     1     -10.772   9.224  66.498  1.00  0.00     0.010 A  
HETATM   12  C   UNL     1      -8.496   8.175  65.293  1.00  0.00    -0.157 A  
HETATM   13  C   UNL     1      -9.148   7.437  66.277  1.00  0.00    -0.156 A  
HETATM   14  C   UNL     1     -10.311   7.961  66.853  1.00  0.00    -0.400 A  
HETATM   15  C   UNL     1      -8.969   9.450  64.938  1.00  0.00    -0.256 A  
BRANCH  13  16
HETATM   16  O   UNL     1      -8.588   6.234  66.649  1.00  0.00    -0.114 OA 
BRANCH  16  17
HETATM   17  C   UNL     1      -8.520   6.089  68.069  1.00  0.00    -0.115 C  
BRANCH  17  18
HETATM   18  C   UNL     1      -7.690   7.161  68.777  1.00  0.00    -0.116 C  
BRANCH  18  19
HETATM   19  N   UNL     1      -8.300   7.456  70.083  1.00  0.00    -0.134 NA 
HETATM   20  C   UNL     1      -9.425   6.577  70.431  1.00  0.00    -0.162 C  
HETATM   21  C   UNL     1      -8.795   8.822  70.196  1.00  0.00    -0.154 C  
HETATM   22  C   UNL     1     -10.270   7.378  71.412  1.00  0.00    -0.198 C  
HETATM   23  C   UNL     1      -9.604   8.743  71.479  1.00  0.00    -0.354 C  
ENDBRANCH  18  19
ENDBRANCH  17  18
ENDBRANCH  16  17
ENDBRANCH  13  16
ENDBRANCH   8  10
ENDBRANCH   5   8
BRANCH   6  24
HETATM   24  N   UNL     1      -9.136  13.965  69.085  1.00  0.00    -0.347 NA 
HETATM   25  H   UNL     1      -9.392  13.519  69.967  1.00  0.00     0.000 HD 
BRANCH  24  26
HETATM   26  C   UNL     1      -7.956  14.744  69.171  1.00  0.00    -0.133 A  
HETATM   27  C   UNL     1      -6.784  14.345  69.820  1.00  0.00    -0.124 A  
HETATM   28  C   UNL     1      -8.005  16.073  68.711  1.00  0.00    -0.196 A  
HETATM   29  C   UNL     1      -5.707  15.228  70.017  1.00  0.00    -0.131 A  
HETATM   30  C   UNL     1      -5.800  16.558  69.612  1.00  0.00    -0.191 A  
HETATM   31  C   UNL     1      -6.967  16.984  68.979  1.00  0.00    -0.229 A  
BRANCH  31  32
HETATM   32  S   UNL     1      -7.119  18.678  68.471  1.00  0.00    -0.285 S  
HETATM   33  O   UNL     1      -6.678  19.495  69.582  1.00  0.00    -0.321 OA 
HETATM   34  O   UNL     1      -6.511  18.814  67.166  1.00  0.00    -0.189 OA 
BRANCH  32  35
HETATM   35  N   UNL     1      -8.772  18.956  68.346  1.00  0.00    -0.334 N  
HETATM   36  C   UNL     1     -11.034  19.258  67.478  1.00  0.00    -0.426 C  
HETATM   37  C   UNL     1      -9.122  20.179  66.201  1.00  0.00    -0.308 C  
HETATM   38  C   UNL     1      -9.490  17.684  66.334  1.00  0.00    -0.274 C  
HETATM   39  C   UNL     1      -9.560  19.010  67.089  1.00  0.00    -0.312 C  
HETATM   40  H   UNL     1      -9.282  19.100  69.217  1.00  0.00     0.000 HD 
ENDBRANCH  32  35
ENDBRANCH  31  32
ENDBRANCH  24  26
ENDBRANCH   6  24
TORSDOF 10
ENDMDL
MODEL      140
REMARK 921   NORMALIZED FREE ENERGY PREDICTED BY IDOCK:   -5.70 KCAL/MOL
REMARK 922        TOTAL FREE ENERGY PREDICTED BY IDOCK:  -10.38 KCAL/MOL
REMARK 923 INTER-LIGAND FREE ENERGY PREDICTED BY IDOCK:   -9.17 KCAL/MOL
REMARK 924 INTRA-LIGAND FREE ENERGY PREDICTED BY IDOCK:   -1.21 KCAL/MOL
REMARK 927      BINDING AFFINITY PREDICTED BY RF-SCORE:    0.00 PKD
ROOT
HETATM    1  C   UNL     1      -8.672   9.421  63.048  1.00  0.00    -0.225 C  
HETATM    2  C   UNL     1      -9.533  10.443  63.719  1.00  0.00    -0.353 A  
HETATM    3  C   UNL     1     -10.283  11.301  62.934  1.00  0.00    -0.149 A  
HETATM    4  N   UNL     1     -11.091  12.254  63.415  1.00  0.00    -0.446 NA 
HETATM    5  C   UNL     1     -11.129  12.381  64.742  1.00  0.00    -0.304 A  
HETATM    6  C   UNL     1      -9.678  10.591  65.098  1.00  0.00    -0.282 A  
HETATM    7  N   UNL     1     -10.457  11.572  65.586  1.00  0.00    -0.259 NA 
ENDROOT
BRANCH   5   8
HETATM    8  N   UNL     1     -11.924  13.430  65.208  1.00  0.00    -0.359 NA 
HETATM    9  H   UNL     1     -12.920  13.342  65.009  1.00  0.00     0.000 HD 
BRANCH   8  10
HETATM   10  C   UNL     1     -11.554  14.585  65.910  1.00  0.00    -0.349 A  
HETATM   11  C   UNL     1     -10.869  15.623  65.291  1.00  0.00    -0.420 A  
HETATM   12  C   UNL     1     -11.292  15.762  68.036  1.00  0.00    -0.310 A  
HETATM   13  C   UNL     1     -10.555  16.763  67.408  1.00  0.00    -0.291 A  
HETATM   14  C   UNL     1     -10.377  16.700  66.021  1.00  0.00    -0.352 A  
HETATM   15  C   UNL     1     -11.786  14.678  67.291  1.00  0.00    -0.375 A  
BRANCH  13  16
HETATM   16  O   UNL     1     -10.018  17.754  68.201  1.00  0.00    -0.305 OA 
BRANCH  16  17
HETATM   17  C   UNL     1      -9.710  18.932  67.453  1.00  0.00    -0.312 C  
BRANCH  17  18
HETATM   18  C   UNL     1      -8.405  19.619  67.859  1.00  0.00    -0.313 C  
BRANCH  18  19
HETATM   19  N   UNL     1      -7.408  18.591  68.199  1.00  0.00    -0.254 NA 
HETATM   20  C   UNL     1      -6.636  18.884  69.413  1.00  0.00    -0.264 C  
HETATM   21  C   UNL     1      -6.436  18.355  67.139  1.00  0.00    -0.179 C  
HETATM   22  C   UNL     1      -5.329  18.120  69.251  1.00  0.00    -0.196 C  
HETATM   23  C   UNL     1      -5.404  17.505  67.862  1.00  0.00    -0.131 C  
ENDBRANCH  18  19
ENDBRANCH  17  18
ENDBRANCH  16  17
ENDBRANCH  13  16
ENDBRANCH   8  10
ENDBRANCH   5   8
BRANCH   6  24
HETATM   24  N   UNL     1      -8.915   9.768  65.967  1.00  0.00    -0.149 NA 
HETATM   25  H   UNL     1      -8.880   8.791  65.675  1.00  0.00     0.000 HD 
BRANCH  24  26
HETATM   26  C   UNL     1      -8.191  10.025  67.159  1.00  0.00    -0.117 A  
HETATM   27  C   UNL     1      -6.928  10.622  67.210  1.00  0.00    -0.084 A  
HETATM   28  C   UNL     1      -8.698   9.509  68.365  1.00  0.00    -0.124 A  
HETATM   29  C   UNL     1      -6.190  10.695  68.404  1.00  0.00    -0.050 A  
HETATM   30  C   UNL     1      -6.681  10.121  69.575  1.00  0.00    -0.066 A  
HETATM   31  C   UNL     1      -7.930   9.505  69.544  1.00  0.00    -0.110 A  
BRANCH  31  32
HETATM   32  S   UNL     1      -8.571   8.748  71.017  1.00  0.00    -0.207 S  
HETATM   33  O   UNL     1      -8.707   7.333  70.743  1.00  0.00    -0.143 OA 
HETATM   34  O   UNL     1      -7.787   9.211  72.141  1.00  0.00    -0.311 OA 
BRANCH  32  35
HETATM   35  N   UNL     1     -10.143   9.324  71.163  1.00  0.00    -0.307 N  
HETATM   36  C   UNL     1     -12.527   9.519  71.656  1.00  0.00    -0.476 C  
HETATM   37  C   UNL     1     -11.648   7.369  70.796  1.00  0.00    -0.317 C  
HETATM   38  C   UNL     1     -11.085   8.139  73.135  1.00  0.00     0.012 C  
HETATM   39  C   UNL     1     -11.309   8.569  71.686  1.00  0.00    -0.295 C  
HETATM   40  H   UNL     1     -10.313  10.284  70.862  1.00  0.00     0.000 HD 
ENDBRANCH  32  35
ENDBRANCH  31  32
ENDBRANCH  24  26
ENDBRANCH   6  24
TORSDOF 10
ENDMDL
MODEL      141
REMARK 921   NORMALIZED FREE ENERGY PREDICTED BY IDOCK:   -5.66 KCAL/MOL
REMARK 922        TOTAL FREE ENERGY PREDICTED BY IDOCK:  -10.31 KCAL/MOL
REMARK 923 INTER-LIGAND FREE ENERGY PREDICTED BY IDOCK:   -9.04 KCAL/MOL
REMARK 924 INTRA-LIGAND FREE ENERGY PREDICTED BY IDOCK:   -1.27 KCAL/MOL
REMARK 927      BINDING AFFINITY PREDICTED BY RF-SCORE:    0.00 PKD
ROOT
HETATM    1  C   UNL     1     -12.528  12.049  63.541  1.00  0.00    -0.654 C  
HETATM    2  C   UNL     1     -12.032  13.006  64.578  1.00  0.00    -0.450 A  
HETATM    3  C   UNL     1     -12.093  14.363  64.316  1.00  0.00    -0.436 A  
HETATM    4  N   UNL     1     -11.683  15.316  65.163  1.00  0.00    -0.184 NA 
HETATM    5  C   UNL     1     -11.157  14.895  66.313  1.00  0.00    -0.340 A  
HETATM    6  C   UNL     1     -11.535  12.646  65.830  1.00  0.00    -0.358 A  
HETATM    7  N   UNL     1     -11.085  13.597  66.668  1.00  0.00    -0.302 NA 
ENDROOT
BRANCH   5   8
HETATM    8  N   UNL     1     -10.674  15.910  67.143  1.00  0.00    -0.316 NA 
HETATM    9  H   UNL     1     -11.042  15.907  68.093  1.00  0.00     0.000 HD 
BRANCH   8  10
HETATM   10  C   UNL     1      -9.756  16.931  66.861  1.00  0.00    -0.259 A  
HETATM   11  C   UNL     1     -10.098  18.271  66.990  1.00  0.00    -0.370 A  
HETATM   12  C   UNL     1      -7.613  17.632  65.917  1.00  0.00    -0.160 A  
HETATM   13  C   UNL     1      -7.997  18.968  66.000  1.00  0.00    -0.193 A  
HETATM   14  C   UNL     1      -9.237  19.279  66.572  1.00  0.00    -0.388 A  
HETATM   15  C   UNL     1      -8.489  16.619  66.344  1.00  0.00    -0.348 A  
BRANCH  13  16
HETATM   16  O   UNL     1      -7.137  19.913  65.484  1.00  0.00    -0.303 OA 
BRANCH  16  17
HETATM   17  C   UNL     1      -6.653  20.804  66.492  1.00  0.00    -0.270 C  
BRANCH  17  18
HETATM   18  C   UNL     1      -5.212  20.544  66.931  1.00  0.00    -0.170 C  
BRANCH  18  19
HETATM   19  N   UNL     1      -5.215  20.041  68.313  1.00  0.00    -0.192 NA 
HETATM   20  C   UNL     1      -5.153  18.577  68.419  1.00  0.00    -0.170 C  
HETATM   21  C   UNL     1      -6.381  20.461  69.080  1.00  0.00    -0.282 C  
HETATM   22  C   UNL     1      -5.777  18.247  69.767  1.00  0.00    -0.235 C  
HETATM   23  C   UNL     1      -6.263  19.580  70.313  1.00  0.00    -0.227 C  
ENDBRANCH  18  19
ENDBRANCH  17  18
ENDBRANCH  16  17
ENDBRANCH  13  16
ENDBRANCH   8  10
ENDBRANCH   5   8
BRANCH   6  24
HETATM   24  N   UNL     1     -11.412  11.270  66.158  1.00  0.00    -0.179 NA 
HETATM   25  H   UNL     1     -12.216  10.901  66.666  1.00  0.00     0.000 HD 
BRANCH  24  26
HETATM   26  C   UNL     1     -10.401  10.304  65.926  1.00  0.00    -0.171 A  
HETATM   27  C   UNL     1      -9.518  10.321  64.842  1.00  0.00    -0.337 A  
HETATM   28  C   UNL     1     -10.376   9.162  66.747  1.00  0.00    -0.308 A  
HETATM   29  C   UNL     1      -8.652   9.246  64.574  1.00  0.00    -0.217 A  
HETATM   30  C   UNL     1      -8.687   8.097  65.361  1.00  0.00    -0.128 A  
HETATM   31  C   UNL     1      -9.572   8.050  66.436  1.00  0.00    -0.197 A  
BRANCH  31  32
HETATM   32  S   UNL     1      -9.651   6.590  67.442  1.00  0.00    -0.129 S  
HETATM   33  O   UNL     1      -9.805   7.028  68.814  1.00  0.00    -0.148 OA 
HETATM   34  O   UNL     1     -10.603   5.680  66.846  1.00  0.00    -0.255 OA 
BRANCH  32  35
HETATM   35  N   UNL     1      -8.114   5.915  67.364  1.00  0.00    -0.102 N  
HETATM   36  C   UNL     1      -6.070   4.683  67.883  1.00  0.00    -0.031 C  
HETATM   37  C   UNL     1      -7.216   5.930  69.691  1.00  0.00    -0.070 C  
HETATM   38  C   UNL     1      -8.250   3.838  68.724  1.00  0.00    -0.084 C  
HETATM   39  C   UNL     1      -7.455   5.107  68.421  1.00  0.00    -0.075 C  
HETATM   40  H   UNL     1      -7.582   6.075  66.508  1.00  0.00     0.000 HD 
ENDBRANCH  32  35
ENDBRANCH  31  32
ENDBRANCH  24  26
ENDBRANCH   6  24
TORSDOF 10
ENDMDL
MODEL      142
REMARK 921   NORMALIZED FREE ENERGY PREDICTED BY IDOCK:   -5.64 KCAL/MOL
REMARK 922        TOTAL FREE ENERGY PREDICTED BY IDOCK:  -10.29 KCAL/MOL
REMARK 923 INTER-LIGAND FREE ENERGY PREDICTED BY IDOCK:   -8.96 KCAL/MOL
REMARK 924 INTRA-LIGAND FREE ENERGY PREDICTED BY IDOCK:   -1.33 KCAL/MOL
REMARK 927      BINDING AFFINITY PREDICTED BY RF-SCORE:    0.00 PKD
ROOT
HETATM    1  C   UNL     1     -14.262   8.944  72.140  1.00  0.00    -0.463 C  
HETATM    2  C   UNL     1     -12.783   8.941  71.918  1.00  0.00    -0.436 A  
HETATM    3  C   UNL     1     -12.059   7.815  72.269  1.00  0.00    -0.287 A  
HETATM    4  N   UNL     1     -10.734   7.690  72.118  1.00  0.00    -0.228 NA 
HETATM    5  C   UNL     1     -10.096   8.751  71.623  1.00  0.00    -0.319 A  
HETATM    6  C   UNL     1     -12.056   9.981  71.342  1.00  0.00    -0.407 A  
HETATM    7  N   UNL     1     -10.720   9.877  71.225  1.00  0.00    -0.135 NA 
ENDROOT
BRANCH   5   8
HETATM    8  N   UNL     1      -8.708   8.615  71.546  1.00  0.00    -0.187 NA 
HETATM    9  H   UNL     1      -8.193   8.950  72.360  1.00  0.00     0.000 HD 
BRANCH   8  10
HETATM   10  C   UNL     1      -7.919   8.087  70.515  1.00  0.00    -0.096 A  
HETATM   11  C   UNL     1      -6.617   7.658  70.743  1.00  0.00    -0.038 A  
HETATM   12  C   UNL     1      -7.568   7.682  68.130  1.00  0.00    -0.114 A  
HETATM   13  C   UNL     1      -6.248   7.311  68.372  1.00  0.00    -0.035 A  
HETATM   14  C   UNL     1      -5.790   7.271  69.695  1.00  0.00    -0.023 A  
HETATM   15  C   UNL     1      -8.398   8.070  69.196  1.00  0.00    -0.132 A  
BRANCH  13  16
HETATM   16  O   UNL     1      -5.454   7.028  67.282  1.00  0.00    -0.015 OA 
BRANCH  16  17
HETATM   17  C   UNL     1      -6.175   6.339  66.258  1.00  0.00    -0.037 C  
BRANCH  17  18
HETATM   18  C   UNL     1      -6.179   4.816  66.399  1.00  0.00    -0.032 C  
BRANCH  18  19
HETATM   19  N   UNL     1      -7.560   4.326  66.275  1.00  0.00    -0.088 NA 
HETATM   20  C   UNL     1      -8.437   5.198  65.482  1.00  0.00    -0.138 C  
HETATM   21  C   UNL     1      -8.224   4.131  67.557  1.00  0.00    -0.098 C  
HETATM   22  C   UNL     1      -9.847   4.902  65.973  1.00  0.00    -0.219 C  
HETATM   23  C   UNL     1      -9.665   3.923  67.122  1.00  0.00    -0.182 C  
ENDBRANCH  18  19
ENDBRANCH  17  18
ENDBRANCH  16  17
ENDBRANCH  13  16
ENDBRANCH   8  10
ENDBRANCH   5   8
BRANCH   6  24
HETATM   24  N   UNL     1     -12.725  11.181  70.985  1.00  0.00    -0.381 NA 
HETATM   25  H   UNL     1     -13.733  11.145  71.139  1.00  0.00     0.000 HD 
BRANCH  24  26
HETATM   26  C   UNL     1     -12.281  12.420  70.460  1.00  0.00    -0.295 A  
HETATM   27  C   UNL     1     -12.639  13.674  70.964  1.00  0.00    -0.441 A  
HETATM   28  C   UNL     1     -11.555  12.405  69.254  1.00  0.00    -0.379 A  
HETATM   29  C   UNL     1     -12.304  14.865  70.297  1.00  0.00    -0.393 A  
HETATM   30  C   UNL     1     -11.641  14.827  69.071  1.00  0.00    -0.324 A  
HETATM   31  C   UNL     1     -11.290  13.588  68.540  1.00  0.00    -0.292 A  
BRANCH  31  32
HETATM   32  S   UNL     1     -10.462  13.511  66.971  1.00  0.00    -0.266 S  
HETATM   33  O   UNL     1     -10.359  14.868  66.478  1.00  0.00    -0.280 OA 
HETATM   34  O   UNL     1      -9.283  12.688  67.122  1.00  0.00    -0.199 OA 
BRANCH  32  35
HETATM   35  N   UNL     1     -11.544  12.746  65.937  1.00  0.00    -0.360 N  
HETATM   36  C   UNL     1     -12.760  12.008  63.952  1.00  0.00    -0.467 C  
HETATM   37  C   UNL     1     -12.067  14.380  64.128  1.00  0.00    -0.405 C  
HETATM   38  C   UNL     1     -10.346  12.567  63.766  1.00  0.00    -0.418 C  
HETATM   39  C   UNL     1     -11.648  12.947  64.470  1.00  0.00    -0.350 C  
HETATM   40  H   UNL     1     -12.192  12.079  66.358  1.00  0.00     0.000 HD 
ENDBRANCH  32  35
ENDBRANCH  31  32
ENDBRANCH  24  26
ENDBRANCH   6  24
TORSDOF 10
ENDMDL
MODEL      143
REMARK 921   NORMALIZED FREE ENERGY PREDICTED BY IDOCK:   -5.61 KCAL/MOL
REMARK 922        TOTAL FREE ENERGY PREDICTED BY IDOCK:  -10.24 KCAL/MOL
REMARK 923 INTER-LIGAND FREE ENERGY PREDICTED BY IDOCK:   -8.46 KCAL/MOL
REMARK 924 INTRA-LIGAND FREE ENERGY PREDICTED BY IDOCK:   -1.78 KCAL/MOL
REMARK 927      BINDING AFFINITY PREDICTED BY RF-SCORE:    0.00 PKD
ROOT
HETATM    1  C   UNL     1      -5.551  10.930  65.775  1.00  0.00    -0.138 C  
HETATM    2  C   UNL     1      -6.335   9.742  66.233  1.00  0.00    -0.070 A  
HETATM    3  C   UNL     1      -5.981   8.489  65.766  1.00  0.00    -0.048 A  
HETATM    4  N   UNL     1      -6.603   7.352  66.104  1.00  0.00    -0.048 NA 
HETATM    5  C   UNL     1      -7.649   7.473  66.922  1.00  0.00    -0.102 A  
HETATM    6  C   UNL     1      -7.395   9.781  67.139  1.00  0.00    -0.087 A  
HETATM    7  N   UNL     1      -8.048   8.647  67.451  1.00  0.00    -0.102 NA 
ENDROOT
BRANCH   5   8
HETATM    8  N   UNL     1      -8.320   6.279  67.197  1.00  0.00    -0.109 NA 
HETATM    9  H   UNL     1      -8.314   5.594  66.441  1.00  0.00     0.000 HD 
BRANCH   8  10
HETATM   10  C   UNL     1      -8.999   5.884  68.357  1.00  0.00    -0.112 A  
HETATM   11  C   UNL     1     -10.380   5.992  68.463  1.00  0.00    -0.254 A  
HETATM   12  C   UNL     1      -8.934   5.199  70.702  1.00  0.00    -0.162 A  
HETATM   13  C   UNL     1     -10.312   5.370  70.805  1.00  0.00    -0.251 A  
HETATM   14  C   UNL     1     -11.034   5.738  69.663  1.00  0.00    -0.385 A  
HETATM   15  C   UNL     1      -8.281   5.457  69.485  1.00  0.00    -0.096 A  
BRANCH  13  16
HETATM   16  O   UNL     1     -10.887   5.191  72.045  1.00  0.00    -0.203 OA 
BRANCH  16  17
HETATM   17  C   UNL     1     -11.738   6.282  72.405  1.00  0.00    -0.257 C  
BRANCH  17  18
HETATM   18  C   UNL     1     -11.032   7.421  73.142  1.00  0.00    -0.359 C  
BRANCH  18  19
HETATM   19  N   UNL     1     -11.442   8.703  72.548  1.00  0.00    -0.303 NA 
HETATM   20  C   UNL     1     -12.825   8.719  72.052  1.00  0.00    -0.390 C  
HETATM   21  C   UNL     1     -10.601   9.122  71.435  1.00  0.00    -0.341 C  
HETATM   22  C   UNL     1     -12.853   9.798  70.980  1.00  0.00    -0.374 C  
HETATM   23  C   UNL     1     -11.413  10.270  70.860  1.00  0.00    -0.425 C  
ENDBRANCH  18  19
ENDBRANCH  17  18
ENDBRANCH  16  17
ENDBRANCH  13  16
ENDBRANCH   8  10
ENDBRANCH   5   8
BRANCH   6  24
HETATM   24  N   UNL     1      -7.836  11.034  67.637  1.00  0.00    -0.111 NA 
HETATM   25  H   UNL     1      -7.074  11.648  67.924  1.00  0.00     0.000 HD 
BRANCH  24  26
HETATM   26  C   UNL     1      -9.119  11.608  67.817  1.00  0.00    -0.175 A  
HETATM   27  C   UNL     1     -10.321  11.012  67.424  1.00  0.00    -0.242 A  
HETATM   28  C   UNL     1      -9.192  12.935  68.280  1.00  0.00    -0.187 A  
HETATM   29  C   UNL     1     -11.544  11.703  67.475  1.00  0.00    -0.345 A  
HETATM   30  C   UNL     1     -11.586  13.037  67.875  1.00  0.00    -0.385 A  
HETATM   31  C   UNL     1     -10.398  13.659  68.254  1.00  0.00    -0.251 A  
BRANCH  31  32
HETATM   32  S   UNL     1     -10.421  15.363  68.750  1.00  0.00    -0.240 S  
HETATM   33  O   UNL     1     -11.590  15.966  68.143  1.00  0.00    -0.329 OA 
HETATM   34  O   UNL     1     -10.218  15.421  70.180  1.00  0.00    -0.292 OA 
BRANCH  32  35
HETATM   35  N   UNL     1      -9.107  16.068  67.973  1.00  0.00    -0.188 N  
HETATM   36  C   UNL     1      -7.607  17.666  66.897  1.00  0.00    -0.244 C  
HETATM   37  C   UNL     1     -10.038  17.804  66.445  1.00  0.00    -0.357 C  
HETATM   38  C   UNL     1      -9.118  18.442  68.709  1.00  0.00    -0.268 C  
HETATM   39  C   UNL     1      -9.004  17.480  67.528  1.00  0.00    -0.230 C  
HETATM   40  H   UNL     1      -8.303  15.467  67.790  1.00  0.00     0.000 HD 
ENDBRANCH  32  35
ENDBRANCH  31  32
ENDBRANCH  24  26
ENDBRANCH   6  24
TORSDOF 10
ENDMDL
MODEL      144
REMARK 921   NORMALIZED FREE ENERGY PREDICTED BY IDOCK:   -5.60 KCAL/MOL
REMARK 922        TOTAL FREE ENERGY PREDICTED BY IDOCK:  -10.22 KCAL/MOL
REMARK 923 INTER-LIGAND FREE ENERGY PREDICTED BY IDOCK:   -8.38 KCAL/MOL
REMARK 924 INTRA-LIGAND FREE ENERGY PREDICTED BY IDOCK:   -1.84 KCAL/MOL
REMARK 927      BINDING AFFINITY PREDICTED BY RF-SCORE:    0.00 PKD
ROOT
HETATM    1  C   UNL     1     -10.877  18.786  67.578  1.00  0.00    -0.396 C  
HETATM    2  C   UNL     1      -9.702  18.000  68.067  1.00  0.00    -0.309 A  
HETATM    3  C   UNL     1      -8.503  18.657  68.281  1.00  0.00    -0.324 A  
HETATM    4  N   UNL     1      -7.384  18.065  68.718  1.00  0.00    -0.277 NA 
HETATM    5  C   UNL     1      -7.454  16.749  68.919  1.00  0.00    -0.240 A  
HETATM    6  C   UNL     1      -9.716  16.639  68.366  1.00  0.00    -0.243 A  
HETATM    7  N   UNL     1      -8.585  16.031  68.766  1.00  0.00    -0.209 NA 
ENDROOT
BRANCH   5   8
HETATM    8  N   UNL     1      -6.252  16.150  69.304  1.00  0.00    -0.152 NA 
HETATM    9  H   UNL     1      -5.508  16.798  69.563  1.00  0.00     0.000 HD 
BRANCH   8  10
HETATM   10  C   UNL     1      -5.919  14.792  69.387  1.00  0.00    -0.104 A  
HETATM   11  C   UNL     1      -5.667  14.035  68.249  1.00  0.00    -0.116 A  
HETATM   12  C   UNL     1      -5.741  12.746  70.713  1.00  0.00    -0.131 A  
HETATM   13  C   UNL     1      -5.549  11.996  69.556  1.00  0.00    -0.078 A  
HETATM   14  C   UNL     1      -5.480  12.659  68.325  1.00  0.00    -0.064 A  
HETATM   15  C   UNL     1      -5.927  14.137  70.628  1.00  0.00    -0.194 A  
BRANCH  13  16
HETATM   16  O   UNL     1      -5.462  10.627  69.690  1.00  0.00    -0.038 OA 
BRANCH  16  17
HETATM   17  C   UNL     1      -6.355  10.128  70.688  1.00  0.00    -0.093 C  
BRANCH  17  18
HETATM   18  C   UNL     1      -6.305   8.612  70.884  1.00  0.00    -0.044 C  
BRANCH  18  19
HETATM   19  N   UNL     1      -7.674   8.075  70.822  1.00  0.00    -0.080 NA 
HETATM   20  C   UNL     1      -7.925   6.964  71.749  1.00  0.00    -0.100 C  
HETATM   21  C   UNL     1      -8.050   7.599  69.497  1.00  0.00    -0.127 C  
HETATM   22  C   UNL     1      -9.074   6.180  71.133  1.00  0.00    -0.151 C  
HETATM   23  C   UNL     1      -9.342   6.859  69.799  1.00  0.00    -0.146 C  
ENDBRANCH  18  19
ENDBRANCH  17  18
ENDBRANCH  16  17
ENDBRANCH  13  16
ENDBRANCH   8  10
ENDBRANCH   5   8
BRANCH   6  24
HETATM   24  N   UNL     1     -10.902  15.891  68.140  1.00  0.00    -0.304 NA 
HETATM   25  H   UNL     1     -11.719  16.272  68.618  1.00  0.00     0.000 HD 
BRANCH  24  26
HETATM   26  C   UNL     1     -11.183  14.724  67.387  1.00  0.00    -0.339 A  
HETATM   27  C   UNL     1     -11.995  14.687  66.249  1.00  0.00    -0.262 A  
HETATM   28  C   UNL     1     -10.751  13.486  67.898  1.00  0.00    -0.258 A  
HETATM   29  C   UNL     1     -12.373  13.474  65.647  1.00  0.00    -0.522 A  
HETATM   30  C   UNL     1     -11.988  12.257  66.205  1.00  0.00    -0.323 A  
HETATM   31  C   UNL     1     -11.194  12.268  67.350  1.00  0.00    -0.301 A  
BRANCH  31  32
HETATM   32  S   UNL     1     -10.705  10.732  68.092  1.00  0.00    -0.235 S  
HETATM   33  O   UNL     1     -10.654   9.746  67.032  1.00  0.00    -0.239 OA 
HETATM   34  O   UNL     1      -9.550  10.980  68.926  1.00  0.00    -0.196 OA 
BRANCH  32  35
HETATM   35  N   UNL     1     -12.001  10.275  69.059  1.00  0.00    -0.502 N  
HETATM   36  C   UNL     1     -13.512   9.963  70.952  1.00  0.00    -0.181 C  
HETATM   37  C   UNL     1     -11.068   9.833  71.329  1.00  0.00    -0.375 C  
HETATM   38  C   UNL     1     -12.165  12.045  70.798  1.00  0.00    -0.382 C  
HETATM   39  C   UNL     1     -12.150  10.544  70.511  1.00  0.00    -0.345 C  
HETATM   40  H   UNL     1     -12.758   9.764  68.605  1.00  0.00     0.000 HD 
ENDBRANCH  32  35
ENDBRANCH  31  32
ENDBRANCH  24  26
ENDBRANCH   6  24
TORSDOF 10
ENDMDL
MODEL      145
REMARK 921   NORMALIZED FREE ENERGY PREDICTED BY IDOCK:   -5.58 KCAL/MOL
REMARK 922        TOTAL FREE ENERGY PREDICTED BY IDOCK:  -10.20 KCAL/MOL
REMARK 923 INTER-LIGAND FREE ENERGY PREDICTED BY IDOCK:   -8.06 KCAL/MOL
REMARK 924 INTRA-LIGAND FREE ENERGY PREDICTED BY IDOCK:   -2.14 KCAL/MOL
REMARK 927      BINDING AFFINITY PREDICTED BY RF-SCORE:    0.00 PKD
ROOT
HETATM    1  C   UNL     1      -8.317   5.845  62.873  1.00  0.00    -0.029 C  
HETATM    2  C   UNL     1      -8.060   5.931  64.343  1.00  0.00    -0.128 A  
HETATM    3  C   UNL     1      -8.014   4.761  65.081  1.00  0.00    -0.097 A  
HETATM    4  N   UNL     1      -7.790   4.707  66.401  1.00  0.00    -0.098 NA 
HETATM    5  C   UNL     1      -7.638   5.878  67.020  1.00  0.00    -0.099 A  
HETATM    6  C   UNL     1      -7.823   7.109  65.049  1.00  0.00    -0.125 A  
HETATM    7  N   UNL     1      -7.638   7.065  66.381  1.00  0.00    -0.086 NA 
ENDROOT
BRANCH   5   8
HETATM    8  N   UNL     1      -7.480   5.792  68.405  1.00  0.00    -0.080 NA 
HETATM    9  H   UNL     1      -6.647   6.248  68.777  1.00  0.00     0.000 HD 
BRANCH   8  10
HETATM   10  C   UNL     1      -8.296   5.171  69.360  1.00  0.00    -0.090 A  
HETATM   11  C   UNL     1      -9.637   5.508  69.499  1.00  0.00    -0.202 A  
HETATM   12  C   UNL     1      -8.518   3.735  71.325  1.00  0.00    -0.096 A  
HETATM   13  C   UNL     1      -9.843   4.131  71.484  1.00  0.00    -0.184 A  
HETATM   14  C   UNL     1     -10.405   4.998  70.539  1.00  0.00    -0.285 A  
HETATM   15  C   UNL     1      -7.748   4.254  70.270  1.00  0.00    -0.045 A  
BRANCH  13  16
HETATM   16  O   UNL     1     -10.523   3.660  72.586  1.00  0.00    -0.163 OA 
BRANCH  16  17
HETATM   17  C   UNL     1     -11.177   4.711  73.301  1.00  0.00    -0.325 C  
BRANCH  17  18
HETATM   18  C   UNL     1     -10.445   5.175  74.560  1.00  0.00    -0.216 C  
BRANCH  18  19
HETATM   19  N   UNL     1      -9.922   6.532  74.338  1.00  0.00    -0.330 NA 
HETATM   20  C   UNL     1     -10.688   7.318  73.363  1.00  0.00    -0.369 C  
HETATM   21  C   UNL     1      -8.537   6.552  73.886  1.00  0.00    -0.124 C  
HETATM   22  C   UNL     1      -9.709   8.349  72.821  1.00  0.00    -0.298 C  
HETATM   23  C   UNL     1      -8.378   8.005  73.469  1.00  0.00    -0.292 C  
ENDBRANCH  18  19
ENDBRANCH  17  18
ENDBRANCH  16  17
ENDBRANCH  13  16
ENDBRANCH   8  10
ENDBRANCH   5   8
BRANCH   6  24
HETATM   24  N   UNL     1      -7.886   8.352  64.366  1.00  0.00    -0.134 NA 
HETATM   25  H   UNL     1      -7.041   8.568  63.838  1.00  0.00     0.000 HD 
BRANCH  24  26
HETATM   26  C   UNL     1      -8.884   9.354  64.267  1.00  0.00    -0.184 A  
HETATM   27  C   UNL     1      -9.202  10.048  63.096  1.00  0.00    -0.313 A  
HETATM   28  C   UNL     1      -9.493   9.801  65.454  1.00  0.00    -0.333 A  
HETATM   29  C   UNL     1     -10.079  11.147  63.099  1.00  0.00    -0.373 A  
HETATM   30  C   UNL     1     -10.623  11.614  64.294  1.00  0.00    -0.394 A  
HETATM   31  C   UNL     1     -10.306  10.949  65.477  1.00  0.00    -0.252 A  
BRANCH  31  32
HETATM   32  S   UNL     1     -10.969  11.536  67.016  1.00  0.00    -0.306 S  
HETATM   33  O   UNL     1      -9.904  12.244  67.695  1.00  0.00    -0.190 OA 
HETATM   34  O   UNL     1     -12.233  12.184  66.745  1.00  0.00    -0.553 OA 
BRANCH  32  35
HETATM   35  N   UNL     1     -11.239  10.155  67.936  1.00  0.00    -0.485 N  
HETATM   36  C   UNL     1     -11.350   8.556  69.778  1.00  0.00     0.122 C  
HETATM   37  C   UNL     1      -9.360  10.016  69.569  1.00  0.00    -0.247 C  
HETATM   38  C   UNL     1     -11.591  10.983  70.254  1.00  0.00    -0.414 C  
HETATM   39  C   UNL     1     -10.877   9.967  69.363  1.00  0.00    -0.239 C  
HETATM   40  H   UNL     1     -11.696   9.372  67.469  1.00  0.00     0.000 HD 
ENDBRANCH  32  35
ENDBRANCH  31  32
ENDBRANCH  24  26
ENDBRANCH   6  24
TORSDOF 10
ENDMDL
MODEL      146
REMARK 921   NORMALIZED FREE ENERGY PREDICTED BY IDOCK:   -5.58 KCAL/MOL
REMARK 922        TOTAL FREE ENERGY PREDICTED BY IDOCK:  -10.18 KCAL/MOL
REMARK 923 INTER-LIGAND FREE ENERGY PREDICTED BY IDOCK:   -8.91 KCAL/MOL
REMARK 924 INTRA-LIGAND FREE ENERGY PREDICTED BY IDOCK:   -1.27 KCAL/MOL
REMARK 927      BINDING AFFINITY PREDICTED BY RF-SCORE:    0.00 PKD
ROOT
HETATM    1  C   UNL     1     -10.440   8.148  66.874  1.00  0.00    -0.379 C  
HETATM    2  C   UNL     1     -10.469   9.631  67.063  1.00  0.00    -0.302 A  
HETATM    3  C   UNL     1     -10.053  10.444  66.024  1.00  0.00    -0.243 A  
HETATM    4  N   UNL     1     -10.035  11.783  66.071  1.00  0.00    -0.222 NA 
HETATM    5  C   UNL     1     -10.418  12.337  67.222  1.00  0.00    -0.218 A  
HETATM    6  C   UNL     1     -10.921  10.285  68.209  1.00  0.00    -0.264 A  
HETATM    7  N   UNL     1     -10.867  11.627  68.276  1.00  0.00    -0.207 NA 
ENDROOT
BRANCH   5   8
HETATM    8  N   UNL     1     -10.318  13.729  67.263  1.00  0.00    -0.252 NA 
HETATM    9  H   UNL     1     -11.184  14.233  67.071  1.00  0.00     0.000 HD 
BRANCH   8  10
HETATM   10  C   UNL     1      -9.204  14.536  67.531  1.00  0.00    -0.194 A  
HETATM   11  C   UNL     1      -8.648  14.608  68.802  1.00  0.00    -0.160 A  
HETATM   12  C   UNL     1      -7.661  16.294  66.823  1.00  0.00    -0.285 A  
HETATM   13  C   UNL     1      -7.157  16.393  68.118  1.00  0.00    -0.140 A  
HETATM   14  C   UNL     1      -7.638  15.517  69.097  1.00  0.00    -0.204 A  
HETATM   15  C   UNL     1      -8.681  15.372  66.533  1.00  0.00    -0.335 A  
BRANCH  13  16
HETATM   16  O   UNL     1      -6.223  17.376  68.365  1.00  0.00    -0.161 OA 
BRANCH  16  17
HETATM   17  C   UNL     1      -6.603  18.632  67.800  1.00  0.00    -0.212 C  
BRANCH  17  18
HETATM   18  C   UNL     1      -7.344  19.562  68.762  1.00  0.00    -0.358 C  
BRANCH  18  19
HETATM   19  N   UNL     1      -8.678  19.854  68.213  1.00  0.00    -0.265 NA 
HETATM   20  C   UNL     1      -9.719  18.906  68.630  1.00  0.00    -0.400 C  
HETATM   21  C   UNL     1      -8.711  19.887  66.757  1.00  0.00    -0.343 C  
HETATM   22  C   UNL     1     -10.781  18.972  67.542  1.00  0.00    -0.532 C  
HETATM   23  C   UNL     1     -10.207  19.908  66.490  1.00  0.00    -0.611 C  
ENDBRANCH  18  19
ENDBRANCH  17  18
ENDBRANCH  16  17
ENDBRANCH  13  16
ENDBRANCH   8  10
ENDBRANCH   5   8
BRANCH   6  24
HETATM   24  N   UNL     1     -11.333   9.517  69.329  1.00  0.00    -0.446 NA 
HETATM   25  H   UNL     1     -12.345   9.493  69.455  1.00  0.00     0.000 HD 
BRANCH  24  26
HETATM   26  C   UNL     1     -10.627   8.776  70.309  1.00  0.00    -0.216 A  
HETATM   27  C   UNL     1      -9.805   9.336  71.291  1.00  0.00    -0.318 A  
HETATM   28  C   UNL     1     -10.620   7.373  70.200  1.00  0.00    -0.240 A  
HETATM   29  C   UNL     1      -8.999   8.541  72.126  1.00  0.00    -0.300 A  
HETATM   30  C   UNL     1      -8.956   7.158  71.960  1.00  0.00    -0.141 A  
HETATM   31  C   UNL     1      -9.754   6.579  70.975  1.00  0.00    -0.175 A  
BRANCH  31  32
HETATM   32  S   UNL     1      -9.705   4.822  70.729  1.00  0.00    -0.212 S  
HETATM   33  O   UNL     1     -10.477   4.222  71.798  1.00  0.00    -0.096 OA 
HETATM   34  O   UNL     1     -10.022   4.549  69.345  1.00  0.00    -0.204 OA 
BRANCH  32  35
HETATM   35  N   UNL     1      -8.112   4.377  71.032  1.00  0.00    -0.079 N  
HETATM   36  C   UNL     1      -6.117   3.154  71.730  1.00  0.00    -0.014 C  
HETATM   37  C   UNL     1      -8.131   3.093  73.170  1.00  0.00    -0.072 C  
HETATM   38  C   UNL     1      -8.109   1.892  70.948  1.00  0.00    -0.058 C  
HETATM   39  C   UNL     1      -7.662   3.137  71.712  1.00  0.00    -0.053 C  
HETATM   40  H   UNL     1      -7.386   5.020  70.718  1.00  0.00     0.000 HD 
ENDBRANCH  32  35
ENDBRANCH  31  32
ENDBRANCH  24  26
ENDBRANCH   6  24
TORSDOF 10
ENDMDL
MODEL      147
REMARK 921   NORMALIZED FREE ENERGY PREDICTED BY IDOCK:   -5.57 KCAL/MOL
REMARK 922        TOTAL FREE ENERGY PREDICTED BY IDOCK:  -10.18 KCAL/MOL
REMARK 923 INTER-LIGAND FREE ENERGY PREDICTED BY IDOCK:   -8.19 KCAL/MOL
REMARK 924 INTRA-LIGAND FREE ENERGY PREDICTED BY IDOCK:   -1.99 KCAL/MOL
REMARK 927      BINDING AFFINITY PREDICTED BY RF-SCORE:    0.00 PKD
ROOT
HETATM    1  C   UNL     1      -9.396   2.196  67.639  1.00  0.00    -0.166 C  
HETATM    2  C   UNL     1      -9.034   3.587  67.224  1.00  0.00    -0.167 A  
HETATM    3  C   UNL     1      -9.286   3.981  65.922  1.00  0.00    -0.166 A  
HETATM    4  N   UNL     1      -9.010   5.196  65.432  1.00  0.00    -0.159 NA 
HETATM    5  C   UNL     1      -8.423   6.050  66.272  1.00  0.00    -0.130 A  
HETATM    6  C   UNL     1      -8.483   4.556  68.061  1.00  0.00    -0.098 A  
HETATM    7  N   UNL     1      -8.167   5.765  67.565  1.00  0.00    -0.102 NA 
ENDROOT
BRANCH   5   8
HETATM    8  N   UNL     1      -8.082   7.283  65.711  1.00  0.00    -0.122 NA 
HETATM    9  H   UNL     1      -7.431   7.238  64.928  1.00  0.00     0.000 HD 
BRANCH   8  10
HETATM   10  C   UNL     1      -8.504   8.571  66.065  1.00  0.00    -0.140 A  
HETATM   11  C   UNL     1      -9.841   8.943  65.998  1.00  0.00    -0.277 A  
HETATM   12  C   UNL     1      -7.952  10.887  66.620  1.00  0.00    -0.148 A  
HETATM   13  C   UNL     1      -9.290  11.252  66.490  1.00  0.00    -0.185 A  
HETATM   14  C   UNL     1     -10.236  10.259  66.209  1.00  0.00    -0.287 A  
HETATM   15  C   UNL     1      -7.561   9.554  66.407  1.00  0.00    -0.097 A  
BRANCH  13  16
HETATM   16  O   UNL     1      -9.603  12.588  66.622  1.00  0.00    -0.227 OA 
BRANCH  16  17
HETATM   17  C   UNL     1     -11.014  12.804  66.679  1.00  0.00    -0.270 C  
BRANCH  17  18
HETATM   18  C   UNL     1     -11.430  14.276  66.710  1.00  0.00    -0.367 C  
BRANCH  18  19
HETATM   19  N   UNL     1     -12.033  14.577  68.018  1.00  0.00    -0.307 NA 
HETATM   20  C   UNL     1     -11.448  15.742  68.694  1.00  0.00    -0.386 C  
HETATM   21  C   UNL     1     -11.950  13.470  68.962  1.00  0.00    -0.335 C  
HETATM   22  C   UNL     1     -11.714  15.521  70.176  1.00  0.00    -0.367 C  
HETATM   23  C   UNL     1     -12.361  14.148  70.258  1.00  0.00    -0.421 C  
ENDBRANCH  18  19
ENDBRANCH  17  18
ENDBRANCH  16  17
ENDBRANCH  13  16
ENDBRANCH   8  10
ENDBRANCH   5   8
BRANCH   6  24
HETATM   24  N   UNL     1      -8.166   4.216  69.403  1.00  0.00    -0.059 NA 
HETATM   25  H   UNL     1      -7.222   3.848  69.515  1.00  0.00     0.000 HD 
BRANCH  24  26
HETATM   26  C   UNL     1      -8.893   4.283  70.618  1.00  0.00    -0.088 A  
HETATM   27  C   UNL     1      -9.296   3.174  71.367  1.00  0.00    -0.207 A  
HETATM   28  C   UNL     1      -9.383   5.537  71.027  1.00  0.00    -0.186 A  
HETATM   29  C   UNL     1     -10.159   3.297  72.470  1.00  0.00    -0.229 A  
HETATM   30  C   UNL     1     -10.685   4.539  72.821  1.00  0.00    -0.258 A  
HETATM   31  C   UNL     1     -10.312   5.657  72.077  1.00  0.00    -0.212 A  
BRANCH  31  32
HETATM   32  S   UNL     1     -10.983   7.248  72.491  1.00  0.00    -0.305 S  
HETATM   33  O   UNL     1     -12.325   7.296  71.950  1.00  0.00    -0.309 OA 
HETATM   34  O   UNL     1     -10.743   7.488  73.897  1.00  0.00    -0.285 OA 
BRANCH  32  35
HETATM   35  N   UNL     1     -10.099   8.351  71.581  1.00  0.00    -0.217 N  
HETATM   36  C   UNL     1      -9.428   9.995  69.905  1.00  0.00    -0.221 C  
HETATM   37  C   UNL     1     -10.880   8.108  69.225  1.00  0.00    -0.064 C  
HETATM   38  C   UNL     1     -11.783   9.952  70.695  1.00  0.00    -0.404 C  
HETATM   39  C   UNL     1     -10.575   9.073  70.375  1.00  0.00    -0.218 C  
HETATM   40  H   UNL     1      -9.146   8.542  71.887  1.00  0.00     0.000 HD 
ENDBRANCH  32  35
ENDBRANCH  31  32
ENDBRANCH  24  26
ENDBRANCH   6  24
TORSDOF 10
ENDMDL
MODEL      148
REMARK 921   NORMALIZED FREE ENERGY PREDICTED BY IDOCK:   -5.57 KCAL/MOL
REMARK 922        TOTAL FREE ENERGY PREDICTED BY IDOCK:  -10.17 KCAL/MOL
REMARK 923 INTER-LIGAND FREE ENERGY PREDICTED BY IDOCK:   -9.10 KCAL/MOL
REMARK 924 INTRA-LIGAND FREE ENERGY PREDICTED BY IDOCK:   -1.08 KCAL/MOL
REMARK 927      BINDING AFFINITY PREDICTED BY RF-SCORE:    0.00 PKD
ROOT
HETATM    1  C   UNL     1     -12.711  11.087  71.375  1.00  0.00    -0.534 C  
HETATM    2  C   UNL     1     -11.705  10.389  70.517  1.00  0.00    -0.434 A  
HETATM    3  C   UNL     1     -10.888   9.432  71.091  1.00  0.00    -0.357 A  
HETATM    4  N   UNL     1      -9.953   8.739  70.429  1.00  0.00    -0.182 NA 
HETATM    5  C   UNL     1      -9.801   9.039  69.138  1.00  0.00    -0.175 A  
HETATM    6  C   UNL     1     -11.535  10.598  69.149  1.00  0.00    -0.280 A  
HETATM    7  N   UNL     1     -10.570   9.934  68.487  1.00  0.00    -0.208 NA 
ENDROOT
BRANCH   5   8
HETATM    8  N   UNL     1      -8.770   8.352  68.494  1.00  0.00    -0.136 NA 
HETATM    9  H   UNL     1      -7.866   8.825  68.495  1.00  0.00     0.000 HD 
BRANCH   8  10
HETATM   10  C   UNL     1      -8.793   7.109  67.848  1.00  0.00    -0.124 A  
HETATM   11  C   UNL     1      -9.987   6.445  67.592  1.00  0.00    -0.150 A  
HETATM   12  C   UNL     1      -7.596   5.147  67.017  1.00  0.00    -0.088 A  
HETATM   13  C   UNL     1      -8.801   4.476  66.822  1.00  0.00    -0.112 A  
HETATM   14  C   UNL     1      -9.999   5.151  67.084  1.00  0.00    -0.221 A  
HETATM   15  C   UNL     1      -7.593   6.455  67.529  1.00  0.00    -0.100 A  
BRANCH  13  16
HETATM   16  O   UNL     1      -8.741   3.164  66.404  1.00  0.00    -0.117 OA 
BRANCH  16  17
HETATM   17  C   UNL     1      -7.562   2.898  65.641  1.00  0.00    -0.073 C  
BRANCH  17  18
HETATM   18  C   UNL     1      -7.740   1.852  64.540  1.00  0.00    -0.064 C  
BRANCH  18  19
HETATM   19  N   UNL     1      -8.477   2.457  63.419  1.00  0.00    -0.084 NA 
HETATM   20  C   UNL     1      -8.128   3.860  63.160  1.00  0.00    -0.080 C  
HETATM   21  C   UNL     1      -9.924   2.417  63.588  1.00  0.00    -0.142 C  
HETATM   22  C   UNL     1      -9.347   4.455  62.469  1.00  0.00    -0.123 C  
HETATM   23  C   UNL     1     -10.382   3.342  62.473  1.00  0.00    -0.157 C  
ENDBRANCH  18  19
ENDBRANCH  17  18
ENDBRANCH  16  17
ENDBRANCH  13  16
ENDBRANCH   8  10
ENDBRANCH   5   8
BRANCH   6  24
HETATM   24  N   UNL     1     -12.314  11.588  68.495  1.00  0.00    -0.357 NA 
HETATM   25  H   UNL     1     -13.319  11.426  68.568  1.00  0.00     0.000 HD 
BRANCH  24  26
HETATM   26  C   UNL     1     -11.983  12.756  67.763  1.00  0.00    -0.260 A  
HETATM   27  C   UNL     1     -11.908  12.827  66.369  1.00  0.00    -0.472 A  
HETATM   28  C   UNL     1     -11.546  13.885  68.480  1.00  0.00    -0.367 A  
HETATM   29  C   UNL     1     -11.411  13.964  65.710  1.00  0.00    -0.308 A  
HETATM   30  C   UNL     1     -10.922  15.047  66.439  1.00  0.00    -0.336 A  
HETATM   31  C   UNL     1     -10.970  14.991  67.830  1.00  0.00    -0.291 A  
BRANCH  31  32
HETATM   32  S   UNL     1     -10.337  16.349  68.783  1.00  0.00    -0.296 S  
HETATM   33  O   UNL     1     -11.221  16.520  69.917  1.00  0.00    -0.303 OA 
HETATM   34  O   UNL     1      -8.919  16.144  68.976  1.00  0.00    -0.227 OA 
BRANCH  32  35
HETATM   35  N   UNL     1     -10.576  17.710  67.827  1.00  0.00    -0.386 N  
HETATM   36  C   UNL     1     -10.258  19.820  66.638  1.00  0.00    -0.595 C  
HETATM   37  C   UNL     1      -9.318  19.568  68.915  1.00  0.00    -0.393 C  
HETATM   38  C   UNL     1      -8.318  18.303  66.971  1.00  0.00    -0.256 C  
HETATM   39  C   UNL     1      -9.607  18.814  67.613  1.00  0.00    -0.307 C  
HETATM   40  H   UNL     1     -11.473  17.785  67.347  1.00  0.00     0.000 HD 
ENDBRANCH  32  35
ENDBRANCH  31  32
ENDBRANCH  24  26
ENDBRANCH   6  24
TORSDOF 10
ENDMDL
MODEL      149
REMARK 921   NORMALIZED FREE ENERGY PREDICTED BY IDOCK:   -5.56 KCAL/MOL
REMARK 922        TOTAL FREE ENERGY PREDICTED BY IDOCK:  -10.16 KCAL/MOL
REMARK 923 INTER-LIGAND FREE ENERGY PREDICTED BY IDOCK:   -8.22 KCAL/MOL
REMARK 924 INTRA-LIGAND FREE ENERGY PREDICTED BY IDOCK:   -1.95 KCAL/MOL
REMARK 927      BINDING AFFINITY PREDICTED BY RF-SCORE:    0.00 PKD
ROOT
HETATM    1  C   UNL     1      -8.843   2.804  65.561  1.00  0.00    -0.132 C  
HETATM    2  C   UNL     1      -8.671   4.271  65.326  1.00  0.00    -0.124 A  
HETATM    3  C   UNL     1      -8.330   4.708  64.058  1.00  0.00    -0.120 A  
HETATM    4  N   UNL     1      -8.149   5.992  63.723  1.00  0.00    -0.109 NA 
HETATM    5  C   UNL     1      -8.283   6.881  64.708  1.00  0.00    -0.050 A  
HETATM    6  C   UNL     1      -8.861   5.265  66.285  1.00  0.00    -0.130 A  
HETATM    7  N   UNL     1      -8.642   6.553  65.965  1.00  0.00    -0.144 NA 
ENDROOT
BRANCH   5   8
HETATM    8  N   UNL     1      -8.017   8.203  64.343  1.00  0.00    -0.142 NA 
HETATM    9  H   UNL     1      -7.033   8.422  64.190  1.00  0.00     0.000 HD 
BRANCH   8  10
HETATM   10  C   UNL     1      -8.903   9.272  64.156  1.00  0.00    -0.141 A  
HETATM   11  C   UNL     1      -8.970   9.958  62.949  1.00  0.00    -0.271 A  
HETATM   12  C   UNL     1     -10.463  10.902  65.097  1.00  0.00    -0.316 A  
HETATM   13  C   UNL     1     -10.471  11.609  63.898  1.00  0.00    -0.382 A  
HETATM   14  C   UNL     1      -9.742  11.106  62.813  1.00  0.00    -0.298 A  
HETATM   15  C   UNL     1      -9.681   9.741  65.226  1.00  0.00    -0.371 A  
BRANCH  13  16
HETATM   16  O   UNL     1     -11.184  12.788  63.856  1.00  0.00    -0.386 OA 
BRANCH  16  17
HETATM   17  C   UNL     1     -12.047  12.933  64.986  1.00  0.00    -0.435 C  
BRANCH  17  18
HETATM   18  C   UNL     1     -11.957  14.290  65.685  1.00  0.00    -0.386 C  
BRANCH  18  19
HETATM   19  N   UNL     1     -11.221  14.129  66.949  1.00  0.00    -0.308 NA 
HETATM   20  C   UNL     1     -11.886  13.254  67.923  1.00  0.00    -0.349 C  
HETATM   21  C   UNL     1     -10.967  15.390  67.635  1.00  0.00    -0.315 C  
HETATM   22  C   UNL     1     -11.363  13.696  69.283  1.00  0.00    -0.323 C  
HETATM   23  C   UNL     1     -10.485  14.902  68.991  1.00  0.00    -0.247 C  
ENDBRANCH  18  19
ENDBRANCH  17  18
ENDBRANCH  16  17
ENDBRANCH  13  16
ENDBRANCH   8  10
ENDBRANCH   5   8
BRANCH   6  24
HETATM   24  N   UNL     1      -9.180   4.892  67.617  1.00  0.00    -0.119 NA 
HETATM   25  H   UNL     1      -9.019   3.903  67.812  1.00  0.00     0.000 HD 
BRANCH  24  26
HETATM   26  C   UNL     1      -9.677   5.611  68.733  1.00  0.00    -0.137 A  
HETATM   27  C   UNL     1     -10.988   5.531  69.212  1.00  0.00    -0.085 A  
HETATM   28  C   UNL     1      -8.849   6.593  69.309  1.00  0.00    -0.133 A  
HETATM   29  C   UNL     1     -11.465   6.394  70.214  1.00  0.00    -0.468 A  
HETATM   30  C   UNL     1     -10.651   7.402  70.727  1.00  0.00    -0.234 A  
HETATM   31  C   UNL     1      -9.346   7.513  70.251  1.00  0.00    -0.161 A  
BRANCH  31  32
HETATM   32  S   UNL     1      -8.293   8.799  70.874  1.00  0.00    -0.180 S  
HETATM   33  O   UNL     1      -8.808   9.178  72.173  1.00  0.00    -0.314 OA 
HETATM   34  O   UNL     1      -6.919   8.374  70.719  1.00  0.00    -0.040 OA 
BRANCH  32  35
HETATM   35  N   UNL     1      -8.579  10.125  69.881  1.00  0.00    -0.364 N  
HETATM   36  C   UNL     1      -8.323  11.929  68.255  1.00  0.00    -0.159 C  
HETATM   37  C   UNL     1      -6.442  11.406  69.780  1.00  0.00    -0.133 C  
HETATM   38  C   UNL     1      -7.072   9.807  67.929  1.00  0.00    -0.083 C  
HETATM   39  C   UNL     1      -7.593  10.780  68.986  1.00  0.00    -0.126 C  
HETATM   40  H   UNL     1      -9.521  10.517  69.895  1.00  0.00     0.000 HD 
ENDBRANCH  32  35
ENDBRANCH  31  32
ENDBRANCH  24  26
ENDBRANCH   6  24
TORSDOF 10
ENDMDL
MODEL      150
REMARK 921   NORMALIZED FREE ENERGY PREDICTED BY IDOCK:   -5.56 KCAL/MOL
REMARK 922        TOTAL FREE ENERGY PREDICTED BY IDOCK:  -10.16 KCAL/MOL
REMARK 923 INTER-LIGAND FREE ENERGY PREDICTED BY IDOCK:   -8.48 KCAL/MOL
REMARK 924 INTRA-LIGAND FREE ENERGY PREDICTED BY IDOCK:   -1.67 KCAL/MOL
REMARK 927      BINDING AFFINITY PREDICTED BY RF-SCORE:    0.00 PKD
ROOT
HETATM    1  C   UNL     1      -9.215   4.578  62.390  1.00  0.00    -0.126 C  
HETATM    2  C   UNL     1      -8.997   4.570  63.869  1.00  0.00    -0.136 A  
HETATM    3  C   UNL     1      -9.631   3.605  64.632  1.00  0.00    -0.172 A  
HETATM    4  N   UNL     1      -9.513   3.494  65.961  1.00  0.00    -0.163 NA 
HETATM    5  C   UNL     1      -8.753   4.409  66.564  1.00  0.00    -0.112 A  
HETATM    6  C   UNL     1      -8.164   5.448  64.561  1.00  0.00    -0.133 A  
HETATM    7  N   UNL     1      -8.074   5.366  65.901  1.00  0.00    -0.106 NA 
ENDROOT
BRANCH   5   8
HETATM    8  N   UNL     1      -8.710   4.309  67.956  1.00  0.00    -0.102 NA 
HETATM    9  H   UNL     1      -8.010   3.665  68.324  1.00  0.00     0.000 HD 
BRANCH   8  10
HETATM   10  C   UNL     1      -9.485   4.965  68.922  1.00  0.00    -0.143 A  
HETATM   11  C   UNL     1      -9.325   4.709  70.278  1.00  0.00    -0.218 A  
HETATM   12  C   UNL     1     -11.399   6.380  69.478  1.00  0.00    -0.460 A  
HETATM   13  C   UNL     1     -11.259   6.065  70.827  1.00  0.00    -0.269 A  
HETATM   14  C   UNL     1     -10.191   5.250  71.221  1.00  0.00    -0.291 A  
HETATM   15  C   UNL     1     -10.518   5.831  68.530  1.00  0.00    -0.290 A  
BRANCH  13  16
HETATM   16  O   UNL     1     -12.204   6.559  71.699  1.00  0.00    -0.343 OA 
BRANCH  16  17
HETATM   17  C   UNL     1     -12.318   7.981  71.618  1.00  0.00    -0.314 C  
BRANCH  17  18
HETATM   18  C   UNL     1     -11.052   8.744  72.010  1.00  0.00    -0.371 C  
BRANCH  18  19
HETATM   19  N   UNL     1     -11.040  10.042  71.317  1.00  0.00    -0.237 NA 
HETATM   20  C   UNL     1     -12.296  10.794  71.430  1.00  0.00    -0.328 C  
HETATM   21  C   UNL     1     -10.750   9.936  69.893  1.00  0.00    -0.280 C  
HETATM   22  C   UNL     1     -12.324  11.712  70.217  1.00  0.00    -0.339 C  
HETATM   23  C   UNL     1     -11.091  11.336  69.412  1.00  0.00    -0.316 C  
ENDBRANCH  18  19
ENDBRANCH  17  18
ENDBRANCH  16  17
ENDBRANCH  13  16
ENDBRANCH   8  10
ENDBRANCH   5   8
BRANCH   6  24
HETATM   24  N   UNL     1      -7.506   6.486  63.851  1.00  0.00    -0.078 NA 
HETATM   25  H   UNL     1      -6.621   6.194  63.435  1.00  0.00     0.000 HD 
BRANCH  24  26
HETATM   26  C   UNL     1      -7.825   7.844  63.601  1.00  0.00    -0.138 A  
HETATM   27  C   UNL     1      -7.394   8.571  62.487  1.00  0.00    -0.100 A  
HETATM   28  C   UNL     1      -8.488   8.564  64.611  1.00  0.00    -0.127 A  
HETATM   29  C   UNL     1      -7.601   9.958  62.381  1.00  0.00    -0.126 A  
HETATM   30  C   UNL     1      -8.202  10.664  63.421  1.00  0.00    -0.038 A  
HETATM   31  C   UNL     1      -8.624   9.964  64.549  1.00  0.00    -0.186 A  
BRANCH  31  32
HETATM   32  S   UNL     1      -9.376  10.842  65.896  1.00  0.00    -0.209 S  
HETATM   33  O   UNL     1     -10.681  10.253  66.111  1.00  0.00    -0.107 OA 
HETATM   34  O   UNL     1      -8.416  10.925  66.974  1.00  0.00    -0.129 OA 
BRANCH  32  35
HETATM   35  N   UNL     1      -9.680  12.385  65.303  1.00  0.00    -0.444 N  
HETATM   36  C   UNL     1     -10.790  14.432  64.567  1.00  0.00    -0.271 C  
HETATM   37  C   UNL     1     -11.822  12.245  64.034  1.00  0.00    -0.530 C  
HETATM   38  C   UNL     1     -11.788  13.099  66.410  1.00  0.00    -0.455 C  
HETATM   39  C   UNL     1     -11.016  12.998  65.096  1.00  0.00    -0.295 C  
HETATM   40  H   UNL     1      -8.869  12.955  65.062  1.00  0.00     0.000 HD 
ENDBRANCH  32  35
ENDBRANCH  31  32
ENDBRANCH  24  26
ENDBRANCH   6  24
TORSDOF 10
ENDMDL
MODEL      151
REMARK 921   NORMALIZED FREE ENERGY PREDICTED BY IDOCK:   -5.53 KCAL/MOL
REMARK 922        TOTAL FREE ENERGY PREDICTED BY IDOCK:  -10.12 KCAL/MOL
REMARK 923 INTER-LIGAND FREE ENERGY PREDICTED BY IDOCK:   -9.52 KCAL/MOL
REMARK 924 INTRA-LIGAND FREE ENERGY PREDICTED BY IDOCK:   -0.59 KCAL/MOL
REMARK 927      BINDING AFFINITY PREDICTED BY RF-SCORE:    0.00 PKD
ROOT
HETATM    1  C   UNL     1     -12.524   7.148  71.454  1.00  0.00    -0.427 C  
HETATM    2  C   UNL     1     -12.501   8.639  71.341  1.00  0.00    -0.337 A  
HETATM    3  C   UNL     1     -13.399   9.379  72.091  1.00  0.00    -0.468 A  
HETATM    4  N   UNL     1     -13.474  10.716  72.078  1.00  0.00    -0.314 NA 
HETATM    5  C   UNL     1     -12.636  11.345  71.254  1.00  0.00    -0.374 A  
HETATM    6  C   UNL     1     -11.610   9.370  70.557  1.00  0.00    -0.235 A  
HETATM    7  N   UNL     1     -11.707  10.711  70.509  1.00  0.00    -0.333 NA 
ENDROOT
BRANCH   5   8
HETATM    8  N   UNL     1     -12.789  12.732  71.210  1.00  0.00    -0.327 NA 
HETATM    9  H   UNL     1     -13.438  13.120  71.894  1.00  0.00     0.000 HD 
BRANCH   8  10
HETATM   10  C   UNL     1     -12.181  13.670  70.364  1.00  0.00    -0.363 A  
HETATM   11  C   UNL     1     -11.714  14.887  70.845  1.00  0.00    -0.374 A  
HETATM   12  C   UNL     1     -11.648  14.430  68.103  1.00  0.00    -0.360 A  
HETATM   13  C   UNL     1     -11.240  15.666  68.599  1.00  0.00    -0.338 A  
HETATM   14  C   UNL     1     -11.246  15.872  69.984  1.00  0.00    -0.354 A  
HETATM   15  C   UNL     1     -12.119  13.439  68.981  1.00  0.00    -0.299 A  
BRANCH  13  16
HETATM   16  O   UNL     1     -10.874  16.631  67.686  1.00  0.00    -0.324 OA 
BRANCH  16  17
HETATM   17  C   UNL     1     -10.170  17.712  68.301  1.00  0.00    -0.374 C  
BRANCH  17  18
HETATM   18  C   UNL     1     -10.535  19.096  67.761  1.00  0.00    -0.419 C  
BRANCH  18  19
HETATM   19  N   UNL     1      -9.302  19.875  67.568  1.00  0.00    -0.338 NA 
HETATM   20  C   UNL     1      -8.733  19.772  66.218  1.00  0.00    -0.363 C  
HETATM   21  C   UNL     1      -8.237  19.513  68.493  1.00  0.00    -0.338 C  
HETATM   22  C   UNL     1      -7.251  20.077  66.384  1.00  0.00    -0.290 C  
HETATM   23  C   UNL     1      -7.049  20.237  67.883  1.00  0.00    -0.327 C  
ENDBRANCH  18  19
ENDBRANCH  17  18
ENDBRANCH  16  17
ENDBRANCH  13  16
ENDBRANCH   8  10
ENDBRANCH   5   8
BRANCH   6  24
HETATM   24  N   UNL     1     -10.681   8.680  69.735  1.00  0.00    -0.241 NA 
HETATM   25  H   UNL     1     -10.849   8.807  68.737  1.00  0.00     0.000 HD 
BRANCH  24  26
HETATM   26  C   UNL     1      -9.567   7.850  70.017  1.00  0.00    -0.168 A  
HETATM   27  C   UNL     1      -8.564   8.151  70.942  1.00  0.00    -0.144 A  
HETATM   28  C   UNL     1      -9.363   6.719  69.206  1.00  0.00    -0.144 A  
HETATM   29  C   UNL     1      -7.399   7.372  71.054  1.00  0.00    -0.073 A  
HETATM   30  C   UNL     1      -7.185   6.293  70.198  1.00  0.00    -0.080 A  
HETATM   31  C   UNL     1      -8.163   5.985  69.255  1.00  0.00    -0.115 A  
BRANCH  31  32
HETATM   32  S   UNL     1      -7.908   4.627  68.140  1.00  0.00    -0.081 S  
HETATM   33  O   UNL     1      -6.789   4.981  67.290  1.00  0.00    -0.054 OA 
HETATM   34  O   UNL     1      -7.891   3.405  68.912  1.00  0.00    -0.051 OA 
BRANCH  32  35
HETATM   35  N   UNL     1      -9.249   4.627  67.128  1.00  0.00    -0.122 N  
HETATM   36  C   UNL     1     -10.725   4.372  65.199  1.00  0.00    -0.144 C  
HETATM   37  C   UNL     1      -8.414   5.191  64.847  1.00  0.00    -0.149 C  
HETATM   38  C   UNL     1      -8.835   2.789  65.506  1.00  0.00    -0.132 C  
HETATM   39  C   UNL     1      -9.267   4.242  65.695  1.00  0.00    -0.148 C  
HETATM   40  H   UNL     1     -10.136   4.919  67.538  1.00  0.00     0.000 HD 
ENDBRANCH  32  35
ENDBRANCH  31  32
ENDBRANCH  24  26
ENDBRANCH   6  24
TORSDOF 10
ENDMDL
MODEL      152
REMARK 921   NORMALIZED FREE ENERGY PREDICTED BY IDOCK:   -5.53 KCAL/MOL
REMARK 922        TOTAL FREE ENERGY PREDICTED BY IDOCK:  -10.11 KCAL/MOL
REMARK 923 INTER-LIGAND FREE ENERGY PREDICTED BY IDOCK:   -9.49 KCAL/MOL
REMARK 924 INTRA-LIGAND FREE ENERGY PREDICTED BY IDOCK:   -0.63 KCAL/MOL
REMARK 927      BINDING AFFINITY PREDICTED BY RF-SCORE:    0.00 PKD
ROOT
HETATM    1  C   UNL     1     -12.713   8.489  71.578  1.00  0.00    -0.340 C  
HETATM    2  C   UNL     1     -12.617   9.950  71.273  1.00  0.00    -0.480 A  
HETATM    3  C   UNL     1     -13.217  10.852  72.135  1.00  0.00    -0.228 A  
HETATM    4  N   UNL     1     -13.199  12.181  71.971  1.00  0.00    -0.471 NA 
HETATM    5  C   UNL     1     -12.582  12.631  70.878  1.00  0.00    -0.249 A  
HETATM    6  C   UNL     1     -11.933  10.500  70.190  1.00  0.00    -0.316 A  
HETATM    7  N   UNL     1     -11.945  11.832  69.999  1.00  0.00    -0.341 NA 
ENDROOT
BRANCH   5   8
HETATM    8  N   UNL     1     -12.644  14.015  70.699  1.00  0.00    -0.344 NA 
HETATM    9  H   UNL     1     -13.352  14.494  71.255  1.00  0.00     0.000 HD 
BRANCH   8  10
HETATM   10  C   UNL     1     -11.877  14.842  69.868  1.00  0.00    -0.311 A  
HETATM   11  C   UNL     1     -11.177  15.931  70.372  1.00  0.00    -0.392 A  
HETATM   12  C   UNL     1     -11.233  15.550  67.618  1.00  0.00    -0.291 A  
HETATM   13  C   UNL     1     -10.588  16.668  68.139  1.00  0.00    -0.336 A  
HETATM   14  C   UNL     1     -10.538  16.832  69.529  1.00  0.00    -0.283 A  
HETATM   15  C   UNL     1     -11.876  14.643  68.478  1.00  0.00    -0.346 A  
BRANCH  13  16
HETATM   16  O   UNL     1     -10.053  17.571  67.245  1.00  0.00    -0.305 OA 
BRANCH  16  17
HETATM   17  C   UNL     1      -9.282  18.581  67.899  1.00  0.00    -0.290 C  
BRANCH  17  18
HETATM   18  C   UNL     1      -9.308  19.946  67.210  1.00  0.00    -0.356 C  
BRANCH  18  19
HETATM   19  N   UNL     1      -7.930  20.449  67.090  1.00  0.00    -0.337 NA 
HETATM   20  C   UNL     1      -7.206  19.939  65.918  1.00  0.00    -0.309 C  
HETATM   21  C   UNL     1      -7.101  20.148  68.250  1.00  0.00    -0.269 C  
HETATM   22  C   UNL     1      -5.732  20.032  66.287  1.00  0.00    -0.184 C  
HETATM   23  C   UNL     1      -5.718  20.506  67.731  1.00  0.00    -0.265 C  
ENDBRANCH  18  19
ENDBRANCH  17  18
ENDBRANCH  16  17
ENDBRANCH  13  16
ENDBRANCH   8  10
ENDBRANCH   5   8
BRANCH   6  24
HETATM   24  N   UNL     1     -11.320   9.636  69.245  1.00  0.00    -0.448 NA 
HETATM   25  H   UNL     1     -11.800   9.614  68.345  1.00  0.00     0.000 HD 
BRANCH  24  26
HETATM   26  C   UNL     1     -10.178   8.798  69.295  1.00  0.00    -0.210 A  
HETATM   27  C   UNL     1      -9.094   8.980  70.158  1.00  0.00    -0.206 A  
HETATM   28  C   UNL     1     -10.042   7.806  68.307  1.00  0.00    -0.221 A  
HETATM   29  C   UNL     1      -7.918   8.219  70.044  1.00  0.00    -0.104 A  
HETATM   30  C   UNL     1      -7.777   7.285  69.019  1.00  0.00    -0.112 A  
HETATM   31  C   UNL     1      -8.838   7.099  68.134  1.00  0.00    -0.126 A  
BRANCH  31  32
HETATM   32  S   UNL     1      -8.678   5.930  66.808  1.00  0.00    -0.120 S  
HETATM   33  O   UNL     1      -7.335   5.392  66.877  1.00  0.00    -0.080 OA 
HETATM   34  O   UNL     1      -9.827   5.053  66.838  1.00  0.00    -0.154 OA 
BRANCH  32  35
HETATM   35  N   UNL     1      -8.715   6.848  65.401  1.00  0.00    -0.347 N  
HETATM   36  C   UNL     1      -8.069   8.178  63.457  1.00  0.00    -0.113 C  
HETATM   37  C   UNL     1      -6.878   8.522  65.601  1.00  0.00    -0.067 C  
HETATM   38  C   UNL     1      -6.544   6.397  64.278  1.00  0.00    -0.034 C  
HETATM   39  C   UNL     1      -7.546   7.460  64.722  1.00  0.00    -0.103 C  
HETATM   40  H   UNL     1      -9.629   6.998  64.973  1.00  0.00     0.000 HD 
ENDBRANCH  32  35
ENDBRANCH  31  32
ENDBRANCH  24  26
ENDBRANCH   6  24
TORSDOF 10
ENDMDL
MODEL      153
REMARK 921   NORMALIZED FREE ENERGY PREDICTED BY IDOCK:   -5.51 KCAL/MOL
REMARK 922        TOTAL FREE ENERGY PREDICTED BY IDOCK:  -10.09 KCAL/MOL
REMARK 923 INTER-LIGAND FREE ENERGY PREDICTED BY IDOCK:   -7.98 KCAL/MOL
REMARK 924 INTRA-LIGAND FREE ENERGY PREDICTED BY IDOCK:   -2.10 KCAL/MOL
REMARK 927      BINDING AFFINITY PREDICTED BY RF-SCORE:    0.00 PKD
ROOT
HETATM    1  C   UNL     1     -11.733   8.226  72.451  1.00  0.00    -0.463 C  
HETATM    2  C   UNL     1     -11.253   7.276  71.401  1.00  0.00    -0.274 A  
HETATM    3  C   UNL     1     -11.055   5.950  71.742  1.00  0.00    -0.265 A  
HETATM    4  N   UNL     1     -10.631   5.006  70.893  1.00  0.00    -0.142 NA 
HETATM    5  C   UNL     1     -10.359   5.409  69.652  1.00  0.00    -0.291 A  
HETATM    6  C   UNL     1     -11.015   7.607  70.068  1.00  0.00    -0.228 A  
HETATM    7  N   UNL     1     -10.550   6.672  69.220  1.00  0.00    -0.219 NA 
ENDROOT
BRANCH   5   8
HETATM    8  N   UNL     1      -9.850   4.416  68.811  1.00  0.00    -0.123 NA 
HETATM    9  H   UNL     1      -9.894   3.468  69.183  1.00  0.00     0.000 HD 
BRANCH   8  10
HETATM   10  C   UNL     1      -9.287   4.532  67.533  1.00  0.00    -0.147 A  
HETATM   11  C   UNL     1     -10.035   4.293  66.386  1.00  0.00    -0.223 A  
HETATM   12  C   UNL     1      -7.309   4.772  66.119  1.00  0.00    -0.078 A  
HETATM   13  C   UNL     1      -8.063   4.473  64.987  1.00  0.00    -0.100 A  
HETATM   14  C   UNL     1      -9.440   4.266  65.130  1.00  0.00    -0.172 A  
HETATM   15  C   UNL     1      -7.918   4.799  67.385  1.00  0.00    -0.094 A  
BRANCH  13  16
HETATM   16  O   UNL     1      -7.397   4.371  63.785  1.00  0.00    -0.053 OA 
BRANCH  16  17
HETATM   17  C   UNL     1      -6.865   5.627  63.358  1.00  0.00    -0.040 C  
BRANCH  17  18
HETATM   18  C   UNL     1      -7.903   6.597  62.792  1.00  0.00    -0.104 C  
BRANCH  18  19
HETATM   19  N   UNL     1      -7.676   7.932  63.368  1.00  0.00    -0.134 NA 
HETATM   20  C   UNL     1      -6.259   8.298  63.495  1.00  0.00    -0.073 C  
HETATM   21  C   UNL     1      -8.265   8.100  64.690  1.00  0.00    -0.125 C  
HETATM   22  C   UNL     1      -6.211   9.330  64.613  1.00  0.00    -0.072 C  
HETATM   23  C   UNL     1      -7.636   9.410  65.135  1.00  0.00    -0.108 C  
ENDBRANCH  18  19
ENDBRANCH  17  18
ENDBRANCH  16  17
ENDBRANCH  13  16
ENDBRANCH   8  10
ENDBRANCH   5   8
BRANCH   6  24
HETATM   24  N   UNL     1     -11.165   8.956  69.650  1.00  0.00    -0.436 NA 
HETATM   25  H   UNL     1     -12.044   9.378  69.952  1.00  0.00     0.000 HD 
BRANCH  24  26
HETATM   26  C   UNL     1     -10.345   9.836  68.900  1.00  0.00    -0.210 A  
HETATM   27  C   UNL     1      -9.163  10.415  69.369  1.00  0.00    -0.177 A  
HETATM   28  C   UNL     1     -10.824  10.288  67.657  1.00  0.00    -0.363 A  
HETATM   29  C   UNL     1      -8.485  11.410  68.642  1.00  0.00    -0.131 A  
HETATM   30  C   UNL     1      -9.009  11.890  67.444  1.00  0.00    -0.173 A  
HETATM   31  C   UNL     1     -10.197  11.341  66.966  1.00  0.00    -0.215 A  
BRANCH  31  32
HETATM   32  S   UNL     1     -10.896  11.948  65.451  1.00  0.00    -0.299 S  
HETATM   33  O   UNL     1     -10.268  11.215  64.371  1.00  0.00    -0.279 OA 
HETATM   34  O   UNL     1     -12.335  11.967  65.593  1.00  0.00    -0.470 OA 
BRANCH  32  35
HETATM   35  N   UNL     1     -10.331  13.524  65.303  1.00  0.00    -0.323 N  
HETATM   36  C   UNL     1     -10.165  15.960  65.309  1.00  0.00    -0.284 C  
HETATM   37  C   UNL     1     -12.264  14.898  64.535  1.00  0.00    -0.396 C  
HETATM   38  C   UNL     1     -11.622  14.833  66.977  1.00  0.00    -0.352 C  
HETATM   39  C   UNL     1     -11.114  14.762  65.537  1.00  0.00    -0.346 C  
HETATM   40  H   UNL     1      -9.356  13.640  65.026  1.00  0.00     0.000 HD 
ENDBRANCH  32  35
ENDBRANCH  31  32
ENDBRANCH  24  26
ENDBRANCH   6  24
TORSDOF 10
ENDMDL
MODEL      154
REMARK 921   NORMALIZED FREE ENERGY PREDICTED BY IDOCK:   -5.51 KCAL/MOL
REMARK 922        TOTAL FREE ENERGY PREDICTED BY IDOCK:  -10.07 KCAL/MOL
REMARK 923 INTER-LIGAND FREE ENERGY PREDICTED BY IDOCK:   -8.93 KCAL/MOL
REMARK 924 INTRA-LIGAND FREE ENERGY PREDICTED BY IDOCK:   -1.14 KCAL/MOL
REMARK 927      BINDING AFFINITY PREDICTED BY RF-SCORE:    0.00 PKD
ROOT
HETATM    1  C   UNL     1      -8.433   8.022  65.564  1.00  0.00    -0.159 C  
HETATM    2  C   UNL     1      -9.338   9.199  65.750  1.00  0.00    -0.309 A  
HETATM    3  C   UNL     1      -9.652   9.978  64.651  1.00  0.00    -0.297 A  
HETATM    4  N   UNL     1     -10.450  11.053  64.689  1.00  0.00    -0.336 NA 
HETATM    5  C   UNL     1     -10.932  11.386  65.887  1.00  0.00    -0.207 A  
HETATM    6  C   UNL     1      -9.935   9.569  66.954  1.00  0.00    -0.216 A  
HETATM    7  N   UNL     1     -10.705  10.671  67.006  1.00  0.00    -0.266 NA 
ENDROOT
BRANCH   5   8
HETATM    8  N   UNL     1     -11.700  12.553  65.905  1.00  0.00    -0.408 NA 
HETATM    9  H   UNL     1     -12.662  12.434  66.224  1.00  0.00     0.000 HD 
BRANCH   8  10
HETATM   10  C   UNL     1     -11.345  13.861  65.550  1.00  0.00    -0.308 A  
HETATM   11  C   UNL     1     -10.252  14.498  66.124  1.00  0.00    -0.317 A  
HETATM   12  C   UNL     1     -11.894  15.956  64.419  1.00  0.00    -0.101 A  
HETATM   13  C   UNL     1     -10.829  16.593  65.049  1.00  0.00    -0.176 A  
HETATM   14  C   UNL     1      -9.989  15.841  65.880  1.00  0.00    -0.380 A  
HETATM   15  C   UNL     1     -12.152  14.598  64.670  1.00  0.00    -0.466 A  
BRANCH  13  16
HETATM   16  O   UNL     1     -10.677  17.946  64.836  1.00  0.00    -0.574 OA 
BRANCH  16  17
HETATM   17  C   UNL     1     -10.672  18.685  66.060  1.00  0.00    -0.246 C  
BRANCH  17  18
HETATM   18  C   UNL     1      -9.829  19.960  66.029  1.00  0.00    -0.417 C  
BRANCH  18  19
HETATM   19  N   UNL     1      -8.729  19.833  66.998  1.00  0.00    -0.311 NA 
HETATM   20  C   UNL     1      -7.683  18.884  66.596  1.00  0.00    -0.248 C  
HETATM   21  C   UNL     1      -9.171  19.421  68.324  1.00  0.00    -0.346 C  
HETATM   22  C   UNL     1      -7.032  18.431  67.894  1.00  0.00    -0.218 C  
HETATM   23  C   UNL     1      -7.847  19.094  68.994  1.00  0.00    -0.294 C  
ENDBRANCH  18  19
ENDBRANCH  17  18
ENDBRANCH  16  17
ENDBRANCH  13  16
ENDBRANCH   8  10
ENDBRANCH   5   8
BRANCH   6  24
HETATM   24  N   UNL     1      -9.634   8.837  68.132  1.00  0.00    -0.144 NA 
HETATM   25  H   UNL     1     -10.122   7.942  68.189  1.00  0.00     0.000 HD 
BRANCH  24  26
HETATM   26  C   UNL     1      -8.796   9.092  69.246  1.00  0.00    -0.144 A  
HETATM   27  C   UNL     1      -7.642   9.881  69.209  1.00  0.00    -0.101 A  
HETATM   28  C   UNL     1      -9.043   8.385  70.437  1.00  0.00    -0.155 A  
HETATM   29  C   UNL     1      -6.761   9.958  70.302  1.00  0.00    -0.126 A  
HETATM   30  C   UNL     1      -6.989   9.200  71.449  1.00  0.00    -0.031 A  
HETATM   31  C   UNL     1      -8.123   8.393  71.502  1.00  0.00    -0.137 A  
BRANCH  31  32
HETATM   32  S   UNL     1      -8.427   7.402  72.943  1.00  0.00    -0.122 S  
HETATM   33  O   UNL     1      -7.614   6.210  72.818  1.00  0.00    -0.099 OA 
HETATM   34  O   UNL     1      -8.316   8.252  74.108  1.00  0.00    -0.258 OA 
BRANCH  32  35
HETATM   35  N   UNL     1     -10.015   6.873  72.790  1.00  0.00    -0.167 N  
HETATM   36  C   UNL     1     -12.023   5.485  72.733  1.00  0.00    -0.094 C  
HETATM   37  C   UNL     1      -9.904   4.575  71.829  1.00  0.00    -0.252 C  
HETATM   38  C   UNL     1     -10.193   4.917  74.315  1.00  0.00    -0.290 C  
HETATM   39  C   UNL     1     -10.490   5.473  72.923  1.00  0.00    -0.214 C  
HETATM   40  H   UNL     1     -10.719   7.582  72.587  1.00  0.00     0.000 HD 
ENDBRANCH  32  35
ENDBRANCH  31  32
ENDBRANCH  24  26
ENDBRANCH   6  24
TORSDOF 10
ENDMDL
MODEL      155
REMARK 921   NORMALIZED FREE ENERGY PREDICTED BY IDOCK:   -5.46 KCAL/MOL
REMARK 922        TOTAL FREE ENERGY PREDICTED BY IDOCK:  -10.00 KCAL/MOL
REMARK 923 INTER-LIGAND FREE ENERGY PREDICTED BY IDOCK:   -8.32 KCAL/MOL
REMARK 924 INTRA-LIGAND FREE ENERGY PREDICTED BY IDOCK:   -1.68 KCAL/MOL
REMARK 927      BINDING AFFINITY PREDICTED BY RF-SCORE:    0.00 PKD
ROOT
HETATM    1  C   UNL     1      -7.927   5.451  62.631  1.00  0.00    -0.092 C  
HETATM    2  C   UNL     1      -7.726   5.314  64.107  1.00  0.00    -0.083 A  
HETATM    3  C   UNL     1      -7.748   4.050  64.668  1.00  0.00    -0.081 A  
HETATM    4  N   UNL     1      -7.579   3.798  65.972  1.00  0.00    -0.087 NA 
HETATM    5  C   UNL     1      -7.412   4.860  66.760  1.00  0.00    -0.087 A  
HETATM    6  C   UNL     1      -7.477   6.369  64.984  1.00  0.00    -0.084 A  
HETATM    7  N   UNL     1      -7.346   6.126  66.300  1.00  0.00    -0.083 NA 
ENDROOT
BRANCH   5   8
HETATM    8  N   UNL     1      -7.312   4.569  68.123  1.00  0.00    -0.065 NA 
HETATM    9  H   UNL     1      -6.462   4.078  68.400  1.00  0.00     0.000 HD 
BRANCH   8  10
HETATM   10  C   UNL     1      -8.205   4.853  69.164  1.00  0.00    -0.078 A  
HETATM   11  C   UNL     1      -9.572   4.958  68.940  1.00  0.00    -0.224 A  
HETATM   12  C   UNL     1      -8.591   5.567  71.469  1.00  0.00    -0.132 A  
HETATM   13  C   UNL     1      -9.950   5.723  71.209  1.00  0.00    -0.191 A  
HETATM   14  C   UNL     1     -10.438   5.382  69.942  1.00  0.00    -0.378 A  
HETATM   15  C   UNL     1      -7.723   5.137  70.451  1.00  0.00    -0.074 A  
BRANCH  13  16
HETATM   16  O   UNL     1     -10.739   6.234  72.217  1.00  0.00    -0.213 OA 
BRANCH  16  17
HETATM   17  C   UNL     1     -11.658   7.216  71.734  1.00  0.00    -0.280 C  
BRANCH  17  18
HETATM   18  C   UNL     1     -11.575   8.568  72.445  1.00  0.00    -0.354 C  
BRANCH  18  19
HETATM   19  N   UNL     1     -11.269   9.612  71.455  1.00  0.00    -0.374 NA 
HETATM   20  C   UNL     1     -12.414  10.463  71.106  1.00  0.00    -0.404 C  
HETATM   21  C   UNL     1     -10.750   9.085  70.199  1.00  0.00    -0.233 C  
HETATM   22  C   UNL     1     -12.106  11.001  69.716  1.00  0.00    -0.424 C  
HETATM   23  C   UNL     1     -10.812  10.315  69.309  1.00  0.00    -0.275 C  
ENDBRANCH  18  19
ENDBRANCH  17  18
ENDBRANCH  16  17
ENDBRANCH  13  16
ENDBRANCH   8  10
ENDBRANCH   5   8
BRANCH   6  24
HETATM   24  N   UNL     1      -7.472   7.698  64.487  1.00  0.00    -0.087 NA 
HETATM   25  H   UNL     1      -7.313   7.755  63.480  1.00  0.00     0.000 HD 
BRANCH  24  26
HETATM   26  C   UNL     1      -7.642   8.964  65.101  1.00  0.00    -0.099 A  
HETATM   27  C   UNL     1      -6.847   9.458  66.139  1.00  0.00    -0.085 A  
HETATM   28  C   UNL     1      -8.780   9.718  64.760  1.00  0.00    -0.216 A  
HETATM   29  C   UNL     1      -7.169  10.645  66.821  1.00  0.00    -0.119 A  
HETATM   30  C   UNL     1      -8.335  11.343  66.512  1.00  0.00    -0.164 A  
HETATM   31  C   UNL     1      -9.153  10.860  65.493  1.00  0.00    -0.201 A  
BRANCH  31  32
HETATM   32  S   UNL     1     -10.654  11.719  65.092  1.00  0.00    -0.294 S  
HETATM   33  O   UNL     1     -10.916  11.482  63.688  1.00  0.00    -0.386 OA 
HETATM   34  O   UNL     1     -11.644  11.393  66.094  1.00  0.00    -0.286 OA 
BRANCH  32  35
HETATM   35  N   UNL     1     -10.271  13.352  65.201  1.00  0.00    -0.436 N  
HETATM   36  C   UNL     1     -10.411  15.775  65.470  1.00  0.00    -0.425 C  
HETATM   37  C   UNL     1     -12.202  14.596  64.230  1.00  0.00    -0.432 C  
HETATM   38  C   UNL     1     -11.978  14.315  66.730  1.00  0.00    -0.462 C  
HETATM   39  C   UNL     1     -11.230  14.466  65.407  1.00  0.00    -0.335 C  
HETATM   40  H   UNL     1      -9.285  13.602  65.117  1.00  0.00     0.000 HD 
ENDBRANCH  32  35
ENDBRANCH  31  32
ENDBRANCH  24  26
ENDBRANCH   6  24
TORSDOF 10
ENDMDL
MODEL      156
REMARK 921   NORMALIZED FREE ENERGY PREDICTED BY IDOCK:   -5.46 KCAL/MOL
REMARK 922        TOTAL FREE ENERGY PREDICTED BY IDOCK:   -9.99 KCAL/MOL
REMARK 923 INTER-LIGAND FREE ENERGY PREDICTED BY IDOCK:   -8.67 KCAL/MOL
REMARK 924 INTRA-LIGAND FREE ENERGY PREDICTED BY IDOCK:   -1.33 KCAL/MOL
REMARK 927      BINDING AFFINITY PREDICTED BY RF-SCORE:    0.00 PKD
ROOT
HETATM    1  C   UNL     1     -12.051  14.174  69.228  1.00  0.00    -0.364 C  
HETATM    2  C   UNL     1     -11.381  13.735  67.966  1.00  0.00    -0.318 A  
HETATM    3  C   UNL     1     -12.165  13.387  66.880  1.00  0.00    -0.289 A  
HETATM    4  N   UNL     1     -11.684  12.982  65.698  1.00  0.00    -0.354 NA 
HETATM    5  C   UNL     1     -10.358  12.887  65.603  1.00  0.00    -0.282 A  
HETATM    6  C   UNL     1     -10.002  13.677  67.768  1.00  0.00    -0.235 A  
HETATM    7  N   UNL     1      -9.514  13.232  66.596  1.00  0.00    -0.259 NA 
ENDROOT
BRANCH   5   8
HETATM    8  N   UNL     1      -9.891  12.393  64.383  1.00  0.00    -0.526 NA 
HETATM    9  H   UNL     1      -9.872  13.068  63.620  1.00  0.00     0.000 HD 
BRANCH   8  10
HETATM   10  C   UNL     1      -9.446  11.105  64.054  1.00  0.00    -0.214 A  
HETATM   11  C   UNL     1      -9.012  10.215  65.029  1.00  0.00    -0.227 A  
HETATM   12  C   UNL     1      -8.752   9.489  62.357  1.00  0.00    -0.236 A  
HETATM   13  C   UNL     1      -8.270   8.636  63.346  1.00  0.00    -0.155 A  
HETATM   14  C   UNL     1      -8.436   8.997  64.688  1.00  0.00    -0.194 A  
HETATM   15  C   UNL     1      -9.335  10.718  62.710  1.00  0.00    -0.352 A  
BRANCH  13  16
HETATM   16  O   UNL     1      -7.627   7.486  62.940  1.00  0.00    -0.102 OA 
BRANCH  16  17
HETATM   17  C   UNL     1      -8.147   6.323  63.588  1.00  0.00    -0.048 C  
BRANCH  17  18
HETATM   18  C   UNL     1      -7.108   5.506  64.356  1.00  0.00    -0.050 C  
BRANCH  18  19
HETATM   19  N   UNL     1      -7.518   5.413  65.767  1.00  0.00    -0.080 NA 
HETATM   20  C   UNL     1      -8.967   5.517  65.978  1.00  0.00    -0.152 C  
HETATM   21  C   UNL     1      -6.905   6.426  66.616  1.00  0.00    -0.066 C  
HETATM   22  C   UNL     1      -9.130   6.020  67.405  1.00  0.00    -0.106 C  
HETATM   23  C   UNL     1      -7.713   6.277  67.894  1.00  0.00    -0.103 C  
ENDBRANCH  18  19
ENDBRANCH  17  18
ENDBRANCH  16  17
ENDBRANCH  13  16
ENDBRANCH   8  10
ENDBRANCH   5   8
BRANCH   6  24
HETATM   24  N   UNL     1      -9.133  13.988  68.846  1.00  0.00    -0.391 NA 
HETATM   25  H   UNL     1      -9.386  13.523  69.719  1.00  0.00     0.000 HD 
BRANCH  24  26
HETATM   26  C   UNL     1      -7.985  14.811  68.960  1.00  0.00    -0.152 A  
HETATM   27  C   UNL     1      -6.843  14.488  69.700  1.00  0.00    -0.142 A  
HETATM   28  C   UNL     1      -8.047  16.111  68.425  1.00  0.00    -0.171 A  
HETATM   29  C   UNL     1      -5.809  15.417  69.913  1.00  0.00    -0.141 A  
HETATM   30  C   UNL     1      -5.919  16.719  69.430  1.00  0.00    -0.202 A  
HETATM   31  C   UNL     1      -7.056  17.070  68.704  1.00  0.00    -0.210 A  
BRANCH  31  32
HETATM   32  S   UNL     1      -7.229  18.728  68.094  1.00  0.00    -0.260 S  
HETATM   33  O   UNL     1      -7.733  19.532  69.188  1.00  0.00    -0.355 OA 
HETATM   34  O   UNL     1      -6.005  19.090  67.414  1.00  0.00    -0.180 OA 
BRANCH  32  35
HETATM   35  N   UNL     1      -8.485  18.660  66.979  1.00  0.00    -0.264 N  
HETATM   36  C   UNL     1     -10.630  18.957  65.851  1.00  0.00    -0.438 C  
HETATM   37  C   UNL     1     -10.599  18.591  68.300  1.00  0.00    -0.223 C  
HETATM   38  C   UNL     1      -9.765  20.764  67.320  1.00  0.00    -0.487 C  
HETATM   39  C   UNL     1      -9.837  19.248  67.145  1.00  0.00    -0.339 C  
HETATM   40  H   UNL     1      -8.300  18.169  66.105  1.00  0.00     0.000 HD 
ENDBRANCH  32  35
ENDBRANCH  31  32
ENDBRANCH  24  26
ENDBRANCH   6  24
TORSDOF 10
ENDMDL
MODEL      157
REMARK 921   NORMALIZED FREE ENERGY PREDICTED BY IDOCK:   -5.45 KCAL/MOL
REMARK 922        TOTAL FREE ENERGY PREDICTED BY IDOCK:   -9.98 KCAL/MOL
REMARK 923 INTER-LIGAND FREE ENERGY PREDICTED BY IDOCK:   -9.14 KCAL/MOL
REMARK 924 INTRA-LIGAND FREE ENERGY PREDICTED BY IDOCK:   -0.84 KCAL/MOL
REMARK 927      BINDING AFFINITY PREDICTED BY RF-SCORE:    0.00 PKD
ROOT
HETATM    1  C   UNL     1      -5.128   8.357  67.715  1.00  0.00    -0.034 C  
HETATM    2  C   UNL     1      -6.393   8.574  66.949  1.00  0.00    -0.056 A  
HETATM    3  C   UNL     1      -6.443   9.601  66.022  1.00  0.00    -0.078 A  
HETATM    4  N   UNL     1      -7.515   9.894  65.275  1.00  0.00    -0.124 NA 
HETATM    5  C   UNL     1      -8.600   9.148  65.483  1.00  0.00    -0.170 A  
HETATM    6  C   UNL     1      -7.543   7.795  67.061  1.00  0.00    -0.100 A  
HETATM    7  N   UNL     1      -8.636   8.109  66.341  1.00  0.00    -0.132 NA 
ENDROOT
BRANCH   5   8
HETATM    8  N   UNL     1      -9.722   9.524  64.741  1.00  0.00    -0.416 NA 
HETATM    9  H   UNL     1     -10.073   8.817  64.095  1.00  0.00     0.000 HD 
BRANCH   8  10
HETATM   10  C   UNL     1     -10.436  10.730  64.754  1.00  0.00    -0.265 A  
HETATM   11  C   UNL     1     -10.582  11.500  63.607  1.00  0.00    -0.491 A  
HETATM   12  C   UNL     1     -11.530  12.514  66.016  1.00  0.00    -0.423 A  
HETATM   13  C   UNL     1     -11.615  13.296  64.867  1.00  0.00    -0.325 A  
HETATM   14  C   UNL     1     -11.164  12.761  63.654  1.00  0.00    -0.482 A  
HETATM   15  C   UNL     1     -10.942  11.239  65.960  1.00  0.00    -0.237 A  
BRANCH  13  16
HETATM   16  O   UNL     1     -12.118  14.572  64.998  1.00  0.00    -0.391 OA 
BRANCH  16  17
HETATM   17  C   UNL     1     -11.152  15.567  64.654  1.00  0.00    -0.359 C  
BRANCH  17  18
HETATM   18  C   UNL     1      -9.941  15.626  65.586  1.00  0.00    -0.354 C  
BRANCH  18  19
HETATM   19  N   UNL     1     -10.178  16.651  66.616  1.00  0.00    -0.295 NA 
HETATM   20  C   UNL     1      -9.194  17.741  66.615  1.00  0.00    -0.269 C  
HETATM   21  C   UNL     1     -10.199  16.115  67.971  1.00  0.00    -0.252 C  
HETATM   22  C   UNL     1      -9.211  18.297  68.031  1.00  0.00    -0.300 C  
HETATM   23  C   UNL     1     -10.160  17.390  68.798  1.00  0.00    -0.346 C  
ENDBRANCH  18  19
ENDBRANCH  17  18
ENDBRANCH  16  17
ENDBRANCH  13  16
ENDBRANCH   8  10
ENDBRANCH   5   8
BRANCH   6  24
HETATM   24  N   UNL     1      -7.578   6.743  68.013  1.00  0.00    -0.105 NA 
HETATM   25  H   UNL     1      -6.764   6.130  67.971  1.00  0.00     0.000 HD 
BRANCH  24  26
HETATM   26  C   UNL     1      -8.513   6.369  69.011  1.00  0.00    -0.124 A  
HETATM   27  C   UNL     1      -9.307   5.220  68.968  1.00  0.00    -0.171 A  
HETATM   28  C   UNL     1      -8.782   7.288  70.043  1.00  0.00    -0.141 A  
HETATM   29  C   UNL     1     -10.334   4.992  69.901  1.00  0.00    -0.298 A  
HETATM   30  C   UNL     1     -10.628   5.943  70.876  1.00  0.00    -0.319 A  
HETATM   31  C   UNL     1      -9.861   7.106  70.927  1.00  0.00    -0.181 A  
BRANCH  31  32
HETATM   32  S   UNL     1     -10.227   8.343  72.147  1.00  0.00    -0.336 S  
HETATM   33  O   UNL     1     -11.135   7.742  73.101  1.00  0.00    -0.409 OA 
HETATM   34  O   UNL     1      -8.979   8.930  72.583  1.00  0.00    -0.337 OA 
BRANCH  32  35
HETATM   35  N   UNL     1     -11.136   9.504  71.341  1.00  0.00    -0.371 N  
HETATM   36  C   UNL     1     -12.046  10.991  69.631  1.00  0.00    -0.411 C  
HETATM   37  C   UNL     1      -9.603  10.585  69.697  1.00  0.00    -0.062 C  
HETATM   38  C   UNL     1     -11.186   8.755  68.971  1.00  0.00     0.307 C  
HETATM   39  C   UNL     1     -10.967   9.926  69.928  1.00  0.00    -0.281 C  
HETATM   40  H   UNL     1     -11.874   9.964  71.874  1.00  0.00     0.000 HD 
ENDBRANCH  32  35
ENDBRANCH  31  32
ENDBRANCH  24  26
ENDBRANCH   6  24
TORSDOF 10
ENDMDL
MODEL      158
REMARK 921   NORMALIZED FREE ENERGY PREDICTED BY IDOCK:   -5.44 KCAL/MOL
REMARK 922        TOTAL FREE ENERGY PREDICTED BY IDOCK:   -9.96 KCAL/MOL
REMARK 923 INTER-LIGAND FREE ENERGY PREDICTED BY IDOCK:   -7.95 KCAL/MOL
REMARK 924 INTRA-LIGAND FREE ENERGY PREDICTED BY IDOCK:   -2.01 KCAL/MOL
REMARK 927      BINDING AFFINITY PREDICTED BY RF-SCORE:    0.00 PKD
ROOT
HETATM    1  C   UNL     1     -13.830   9.316  72.487  1.00  0.00    -0.453 C  
HETATM    2  C   UNL     1     -12.457   9.081  71.943  1.00  0.00    -0.454 A  
HETATM    3  C   UNL     1     -11.786   7.925  72.301  1.00  0.00    -0.352 A  
HETATM    4  N   UNL     1     -10.557   7.602  71.879  1.00  0.00    -0.213 NA 
HETATM    5  C   UNL     1      -9.954   8.490  71.089  1.00  0.00    -0.207 A  
HETATM    6  C   UNL     1     -11.789   9.927  71.059  1.00  0.00    -0.376 A  
HETATM    7  N   UNL     1     -10.539   9.627  70.663  1.00  0.00    -0.299 NA 
ENDROOT
BRANCH   5   8
HETATM    8  N   UNL     1      -8.646   8.158  70.725  1.00  0.00    -0.130 NA 
HETATM    9  H   UNL     1      -7.946   8.291  71.455  1.00  0.00     0.000 HD 
BRANCH   8  10
HETATM   10  C   UNL     1      -8.156   7.668  69.508  1.00  0.00    -0.127 A  
HETATM   11  C   UNL     1      -6.874   7.972  69.066  1.00  0.00    -0.057 A  
HETATM   12  C   UNL     1      -8.564   6.561  67.367  1.00  0.00    -0.118 A  
HETATM   13  C   UNL     1      -7.297   6.927  66.920  1.00  0.00    -0.082 A  
HETATM   14  C   UNL     1      -6.443   7.608  67.795  1.00  0.00    -0.055 A  
HETATM   15  C   UNL     1      -8.992   6.932  68.654  1.00  0.00    -0.129 A  
BRANCH  13  16
HETATM   16  O   UNL     1      -6.965   6.615  65.619  1.00  0.00    -0.054 OA 
BRANCH  16  17
HETATM   17  C   UNL     1      -6.924   7.774  64.783  1.00  0.00    -0.055 C  
BRANCH  17  18
HETATM   18  C   UNL     1      -8.272   8.472  64.600  1.00  0.00    -0.160 C  
BRANCH  18  19
HETATM   19  N   UNL     1      -8.161   9.861  65.070  1.00  0.00    -0.133 NA 
HETATM   20  C   UNL     1      -6.789  10.279  65.387  1.00  0.00    -0.140 C  
HETATM   21  C   UNL     1      -8.960  10.136  66.258  1.00  0.00    -0.148 C  
HETATM   22  C   UNL     1      -6.937  11.414  66.391  1.00  0.00     0.000 C  
HETATM   23  C   UNL     1      -8.430  11.500  66.667  1.00  0.00    -0.172 C  
ENDBRANCH  18  19
ENDBRANCH  17  18
ENDBRANCH  16  17
ENDBRANCH  13  16
ENDBRANCH   8  10
ENDBRANCH   5   8
BRANCH   6  24
HETATM   24  N   UNL     1     -12.400  11.148  70.672  1.00  0.00    -0.368 NA 
HETATM   25  H   UNL     1     -13.185  11.416  71.266  1.00  0.00     0.000 HD 
BRANCH  24  26
HETATM   26  C   UNL     1     -12.144  12.073  69.628  1.00  0.00    -0.230 A  
HETATM   27  C   UNL     1     -12.113  11.750  68.268  1.00  0.00    -0.068 A  
HETATM   28  C   UNL     1     -11.737  13.373  69.981  1.00  0.00    -0.297 A  
HETATM   29  C   UNL     1     -11.687  12.672  67.296  1.00  0.00    -0.435 A  
HETATM   30  C   UNL     1     -11.227  13.933  67.671  1.00  0.00    -0.316 A  
HETATM   31  C   UNL     1     -11.231  14.271  69.023  1.00  0.00    -0.266 A  
BRANCH  31  32
HETATM   32  S   UNL     1     -10.633  15.864  69.530  1.00  0.00    -0.308 S  
HETATM   33  O   UNL     1     -10.752  16.745  68.387  1.00  0.00    -0.330 OA 
HETATM   34  O   UNL     1     -11.256  16.201  70.791  1.00  0.00    -0.369 OA 
BRANCH  32  35
HETATM   35  N   UNL     1      -8.981  15.662  69.763  1.00  0.00    -0.185 N  
HETATM   36  C   UNL     1      -6.554  15.731  69.494  1.00  0.00    -0.183 C  
HETATM   37  C   UNL     1      -7.978  15.378  67.498  1.00  0.00    -0.192 C  
HETATM   38  C   UNL     1      -7.928  17.623  68.654  1.00  0.00    -0.275 C  
HETATM   39  C   UNL     1      -7.904  16.107  68.843  1.00  0.00    -0.213 C  
HETATM   40  H   UNL     1      -8.689  15.189  70.619  1.00  0.00     0.000 HD 
ENDBRANCH  32  35
ENDBRANCH  31  32
ENDBRANCH  24  26
ENDBRANCH   6  24
TORSDOF 10
ENDMDL
MODEL      159
REMARK 921   NORMALIZED FREE ENERGY PREDICTED BY IDOCK:   -5.44 KCAL/MOL
REMARK 922        TOTAL FREE ENERGY PREDICTED BY IDOCK:   -9.96 KCAL/MOL
REMARK 923 INTER-LIGAND FREE ENERGY PREDICTED BY IDOCK:   -8.45 KCAL/MOL
REMARK 924 INTRA-LIGAND FREE ENERGY PREDICTED BY IDOCK:   -1.51 KCAL/MOL
REMARK 927      BINDING AFFINITY PREDICTED BY RF-SCORE:    0.00 PKD
ROOT
HETATM    1  C   UNL     1     -12.128  12.704  65.933  1.00  0.00    -0.459 C  
HETATM    2  C   UNL     1     -10.994  11.756  66.164  1.00  0.00    -0.355 A  
HETATM    3  C   UNL     1      -9.955  11.725  65.251  1.00  0.00    -0.253 A  
HETATM    4  N   UNL     1      -8.886  10.925  65.349  1.00  0.00    -0.194 NA 
HETATM    5  C   UNL     1      -8.867  10.091  66.389  1.00  0.00    -0.143 A  
HETATM    6  C   UNL     1     -10.870  10.906  67.262  1.00  0.00    -0.287 A  
HETATM    7  N   UNL     1      -9.819  10.071  67.344  1.00  0.00    -0.177 NA 
ENDROOT
BRANCH   5   8
HETATM    8  N   UNL     1      -7.776   9.220  66.423  1.00  0.00    -0.093 NA 
HETATM    9  H   UNL     1      -7.266   9.129  65.545  1.00  0.00     0.000 HD 
BRANCH   8  10
HETATM   10  C   UNL     1      -7.280   8.452  67.485  1.00  0.00    -0.088 A  
HETATM   11  C   UNL     1      -6.534   9.024  68.508  1.00  0.00    -0.054 A  
HETATM   12  C   UNL     1      -6.827   6.260  68.465  1.00  0.00    -0.074 A  
HETATM   13  C   UNL     1      -6.035   6.846  69.448  1.00  0.00    -0.019 A  
HETATM   14  C   UNL     1      -5.922   8.241  69.480  1.00  0.00    -0.033 A  
HETATM   15  C   UNL     1      -7.445   7.059  67.487  1.00  0.00    -0.097 A  
BRANCH  13  16
HETATM   16  O   UNL     1      -5.382   6.008  70.326  1.00  0.00    -0.012 OA 
BRANCH  16  17
HETATM   17  C   UNL     1      -5.641   6.351  71.689  1.00  0.00    -0.028 C  
BRANCH  17  18
HETATM   18  C   UNL     1      -6.706   5.490  72.369  1.00  0.00    -0.071 C  
BRANCH  18  19
HETATM   19  N   UNL     1      -7.908   6.306  72.599  1.00  0.00    -0.105 NA 
HETATM   20  C   UNL     1      -8.333   6.367  74.003  1.00  0.00    -0.115 C  
HETATM   21  C   UNL     1      -9.067   5.857  71.838  1.00  0.00    -0.138 C  
HETATM   22  C   UNL     1      -9.822   6.675  73.959  1.00  0.00    -0.316 C  
HETATM   23  C   UNL     1     -10.181   6.666  72.482  1.00  0.00    -0.203 C  
ENDBRANCH  18  19
ENDBRANCH  17  18
ENDBRANCH  16  17
ENDBRANCH  13  16
ENDBRANCH   8  10
ENDBRANCH   5   8
BRANCH   6  24
HETATM   24  N   UNL     1     -11.913  10.859  68.224  1.00  0.00    -0.788 NA 
HETATM   25  H   UNL     1     -12.703  10.280  67.938  1.00  0.00     0.000 HD 
BRANCH  24  26
HETATM   26  C   UNL     1     -12.081  11.450  69.501  1.00  0.00    -0.302 A  
HETATM   27  C   UNL     1     -12.642  10.807  70.609  1.00  0.00    -0.446 A  
HETATM   28  C   UNL     1     -11.813  12.825  69.635  1.00  0.00    -0.384 A  
HETATM   29  C   UNL     1     -12.938  11.498  71.797  1.00  0.00    -0.500 A  
HETATM   30  C   UNL     1     -12.725  12.872  71.887  1.00  0.00    -0.202 A  
HETATM   31  C   UNL     1     -12.183  13.538  70.789  1.00  0.00    -0.338 A  
BRANCH  31  32
HETATM   32  S   UNL     1     -11.920  15.292  70.871  1.00  0.00    -0.383 S  
HETATM   33  O   UNL     1     -12.855  15.904  69.950  1.00  0.00    -0.150 OA 
HETATM   34  O   UNL     1     -11.893  15.680  72.264  1.00  0.00    -0.394 OA 
BRANCH  32  35
HETATM   35  N   UNL     1     -10.403  15.544  70.194  1.00  0.00    -0.375 N  
HETATM   36  C   UNL     1      -8.576  16.310  68.766  1.00  0.00    -0.240 C  
HETATM   37  C   UNL     1     -10.750  15.729  67.732  1.00  0.00    -0.307 C  
HETATM   38  C   UNL     1     -10.524  17.801  69.159  1.00  0.00    -0.069 C  
HETATM   39  C   UNL     1     -10.106  16.343  68.979  1.00  0.00    -0.262 C  
HETATM   40  H   UNL     1      -9.610  15.106  70.663  1.00  0.00     0.000 HD 
ENDBRANCH  32  35
ENDBRANCH  31  32
ENDBRANCH  24  26
ENDBRANCH   6  24
TORSDOF 10
ENDMDL
MODEL      160
REMARK 921   NORMALIZED FREE ENERGY PREDICTED BY IDOCK:   -5.43 KCAL/MOL
REMARK 922        TOTAL FREE ENERGY PREDICTED BY IDOCK:   -9.95 KCAL/MOL
REMARK 923 INTER-LIGAND FREE ENERGY PREDICTED BY IDOCK:   -8.63 KCAL/MOL
REMARK 924 INTRA-LIGAND FREE ENERGY PREDICTED BY IDOCK:   -1.32 KCAL/MOL
REMARK 927      BINDING AFFINITY PREDICTED BY RF-SCORE:    0.00 PKD
ROOT
HETATM    1  C   UNL     1     -10.693   6.318  66.755  1.00  0.00    -0.364 C  
HETATM    2  C   UNL     1     -10.446   7.616  67.455  1.00  0.00    -0.367 A  
HETATM    3  C   UNL     1      -9.764   8.616  66.784  1.00  0.00    -0.233 A  
HETATM    4  N   UNL     1      -9.483   9.819  67.301  1.00  0.00    -0.151 NA 
HETATM    5  C   UNL     1      -9.873  10.024  68.559  1.00  0.00    -0.156 A  
HETATM    6  C   UNL     1     -10.881   7.930  68.741  1.00  0.00     0.046 A  
HETATM    7  N   UNL     1     -10.568   9.122  69.280  1.00  0.00    -0.225 NA 
ENDROOT
BRANCH   5   8
HETATM    8  N   UNL     1      -9.501  11.260  69.093  1.00  0.00    -0.407 NA 
HETATM    9  H   UNL     1      -9.336  11.267  70.100  1.00  0.00     0.000 HD 
BRANCH   8  10
HETATM   10  C   UNL     1      -9.322  12.492  68.450  1.00  0.00    -0.149 A  
HETATM   11  C   UNL     1     -10.386  13.168  67.865  1.00  0.00    -0.232 A  
HETATM   12  C   UNL     1      -7.820  14.185  67.528  1.00  0.00    -0.207 A  
HETATM   13  C   UNL     1      -8.891  14.815  66.900  1.00  0.00    -0.248 A  
HETATM   14  C   UNL     1     -10.182  14.314  67.105  1.00  0.00    -0.254 A  
HETATM   15  C   UNL     1      -8.034  13.029  68.297  1.00  0.00    -0.151 A  
BRANCH  13  16
HETATM   16  O   UNL     1      -8.611  15.892  66.086  1.00  0.00    -0.330 OA 
BRANCH  16  17
HETATM   17  C   UNL     1      -7.602  16.737  66.643  1.00  0.00    -0.276 C  
BRANCH  17  18
HETATM   18  C   UNL     1      -7.507  18.121  65.999  1.00  0.00    -0.228 C  
BRANCH  18  19
HETATM   19  N   UNL     1      -8.295  19.076  66.795  1.00  0.00    -0.278 NA 
HETATM   20  C   UNL     1      -8.439  18.703  68.208  1.00  0.00    -0.324 C  
HETATM   21  C   UNL     1      -9.643  19.282  66.284  1.00  0.00    -0.362 C  
HETATM   22  C   UNL     1      -9.714  19.390  68.676  1.00  0.00    -0.504 C  
HETATM   23  C   UNL     1     -10.286  20.046  67.429  1.00  0.00    -0.546 C  
ENDBRANCH  18  19
ENDBRANCH  17  18
ENDBRANCH  16  17
ENDBRANCH  13  16
ENDBRANCH   8  10
ENDBRANCH   5   8
BRANCH   6  24
HETATM   24  N   UNL     1     -11.559   6.944  69.504  1.00  0.00    -0.594 NA 
HETATM   25  H   UNL     1     -12.541   6.835  69.247  1.00  0.00     0.000 HD 
BRANCH  24  26
HETATM   26  C   UNL     1     -11.153   6.078  70.551  1.00  0.00    -0.314 A  
HETATM   27  C   UNL     1     -11.447   6.272  71.904  1.00  0.00    -0.360 A  
HETATM   28  C   UNL     1     -10.262   5.035  70.238  1.00  0.00    -0.328 A  
HETATM   29  C   UNL     1     -10.873   5.473  72.909  1.00  0.00    -0.312 A  
HETATM   30  C   UNL     1      -9.944   4.487  72.585  1.00  0.00    -0.217 A  
HETATM   31  C   UNL     1      -9.621   4.288  71.244  1.00  0.00    -0.172 A  
BRANCH  31  32
HETATM   32  S   UNL     1      -8.426   3.052  70.805  1.00  0.00    -0.063 S  
HETATM   33  O   UNL     1      -7.896   2.516  72.042  1.00  0.00    -0.051 OA 
HETATM   34  O   UNL     1      -9.019   2.179  69.816  1.00  0.00    -0.073 OA 
BRANCH  32  35
HETATM   35  N   UNL     1      -7.151   3.896  70.107  1.00  0.00    -0.041 N  
HETATM   36  C   UNL     1      -5.508   4.764  68.522  1.00  0.00    -0.015 C  
HETATM   37  C   UNL     1      -6.129   2.368  68.423  1.00  0.00    -0.025 C  
HETATM   38  C   UNL     1      -7.776   4.147  67.714  1.00  0.00    -0.072 C  
HETATM   39  C   UNL     1      -6.677   3.770  68.706  1.00  0.00    -0.045 C  
HETATM   40  H   UNL     1      -6.656   4.559  70.704  1.00  0.00     0.000 HD 
ENDBRANCH  32  35
ENDBRANCH  31  32
ENDBRANCH  24  26
ENDBRANCH   6  24
TORSDOF 10
ENDMDL
MODEL      161
REMARK 921   NORMALIZED FREE ENERGY PREDICTED BY IDOCK:   -5.43 KCAL/MOL
REMARK 922        TOTAL FREE ENERGY PREDICTED BY IDOCK:   -9.95 KCAL/MOL
REMARK 923 INTER-LIGAND FREE ENERGY PREDICTED BY IDOCK:   -8.17 KCAL/MOL
REMARK 924 INTRA-LIGAND FREE ENERGY PREDICTED BY IDOCK:   -1.77 KCAL/MOL
REMARK 927      BINDING AFFINITY PREDICTED BY RF-SCORE:    0.00 PKD
ROOT
HETATM    1  C   UNL     1      -8.993   7.091  73.793  1.00  0.00    -0.207 C  
HETATM    2  C   UNL     1      -8.105   7.991  72.994  1.00  0.00    -0.222 A  
HETATM    3  C   UNL     1      -6.929   8.445  73.565  1.00  0.00    -0.087 A  
HETATM    4  N   UNL     1      -6.053   9.251  72.952  1.00  0.00    -0.304 NA 
HETATM    5  C   UNL     1      -6.380   9.651  71.723  1.00  0.00     0.267 A  
HETATM    6  C   UNL     1      -8.345   8.396  71.682  1.00  0.00    -0.156 A  
HETATM    7  N   UNL     1      -7.488   9.237  71.076  1.00  0.00    -0.258 NA 
ENDROOT
BRANCH   5   8
HETATM    8  N   UNL     1      -5.483  10.548  71.140  1.00  0.00    -0.181 NA 
HETATM    9  H   UNL     1      -4.511  10.239  71.120  1.00  0.00     0.000 HD 
BRANCH   8  10
HETATM   10  C   UNL     1      -5.720  11.810  70.578  1.00  0.00    -0.150 A  
HETATM   11  C   UNL     1      -6.195  11.949  69.279  1.00  0.00    -0.094 A  
HETATM   12  C   UNL     1      -5.481  14.240  70.685  1.00  0.00    -0.141 A  
HETATM   13  C   UNL     1      -5.903  14.354  69.363  1.00  0.00    -0.098 A  
HETATM   14  C   UNL     1      -6.291  13.198  68.676  1.00  0.00    -0.083 A  
HETATM   15  C   UNL     1      -5.388  12.974  71.288  1.00  0.00    -0.173 A  
BRANCH  13  16
HETATM   16  O   UNL     1      -5.889  15.610  68.795  1.00  0.00    -0.098 OA 
BRANCH  16  17
HETATM   17  C   UNL     1      -6.713  15.680  67.629  1.00  0.00    -0.178 C  
BRANCH  17  18
HETATM   18  C   UNL     1      -7.894  16.644  67.744  1.00  0.00    -0.164 C  
BRANCH  18  19
HETATM   19  N   UNL     1      -9.124  15.870  67.976  1.00  0.00    -0.183 NA 
HETATM   20  C   UNL     1     -10.317  16.432  67.330  1.00  0.00    -0.295 C  
HETATM   21  C   UNL     1      -9.454  15.715  69.387  1.00  0.00    -0.279 C  
HETATM   22  C   UNL     1     -11.494  15.920  68.149  1.00  0.00    -0.281 C  
HETATM   23  C   UNL     1     -10.866  15.160  69.306  1.00  0.00    -0.255 C  
ENDBRANCH  18  19
ENDBRANCH  17  18
ENDBRANCH  16  17
ENDBRANCH  13  16
ENDBRANCH   8  10
ENDBRANCH   5   8
BRANCH   6  24
HETATM   24  N   UNL     1      -9.547   7.996  71.041  1.00  0.00    -0.159 NA 
HETATM   25  H   UNL     1     -10.187   7.494  71.656  1.00  0.00     0.000 HD 
BRANCH  24  26
HETATM   26  C   UNL     1     -10.040   8.152  69.721  1.00  0.00    -0.197 A  
HETATM   27  C   UNL     1     -10.200   7.110  68.803  1.00  0.00    -0.184 A  
HETATM   28  C   UNL     1     -10.238   9.459  69.239  1.00  0.00    -0.209 A  
HETATM   29  C   UNL     1     -10.531   7.351  67.458  1.00  0.00    -0.338 A  
HETATM   30  C   UNL     1     -10.660   8.655  66.984  1.00  0.00    -0.293 A  
HETATM   31  C   UNL     1     -10.487   9.711  67.877  1.00  0.00    -0.246 A  
BRANCH  31  32
HETATM   32  S   UNL     1     -10.626  11.382  67.295  1.00  0.00    -0.241 S  
HETATM   33  O   UNL     1     -11.993  11.801  67.531  1.00  0.00    -0.607 OA 
HETATM   34  O   UNL     1      -9.518  12.141  67.831  1.00  0.00    -0.182 OA 
BRANCH  32  35
HETATM   35  N   UNL     1     -10.476  11.283  65.624  1.00  0.00    -0.259 N  
HETATM   36  C   UNL     1     -10.583  11.766  63.233  1.00  0.00    -0.427 C  
HETATM   37  C   UNL     1     -12.515  12.353  64.667  1.00  0.00    -0.500 C  
HETATM   38  C   UNL     1     -10.350  13.641  64.846  1.00  0.00    -0.408 C  
HETATM   39  C   UNL     1     -10.986  12.268  64.638  1.00  0.00    -0.306 C  
HETATM   40  H   UNL     1      -9.988  10.468  65.252  1.00  0.00     0.000 HD 
ENDBRANCH  32  35
ENDBRANCH  31  32
ENDBRANCH  24  26
ENDBRANCH   6  24
TORSDOF 10
ENDMDL
MODEL      162
REMARK 921   NORMALIZED FREE ENERGY PREDICTED BY IDOCK:   -5.39 KCAL/MOL
REMARK 922        TOTAL FREE ENERGY PREDICTED BY IDOCK:   -9.89 KCAL/MOL
REMARK 923 INTER-LIGAND FREE ENERGY PREDICTED BY IDOCK:   -8.72 KCAL/MOL
REMARK 924 INTRA-LIGAND FREE ENERGY PREDICTED BY IDOCK:   -1.18 KCAL/MOL
REMARK 927      BINDING AFFINITY PREDICTED BY RF-SCORE:    0.00 PKD
ROOT
HETATM    1  C   UNL     1      -7.832   6.965  63.637  1.00  0.00    -0.107 C  
HETATM    2  C   UNL     1      -8.014   7.946  64.751  1.00  0.00    -0.140 A  
HETATM    3  C   UNL     1      -7.361   9.165  64.679  1.00  0.00    -0.099 A  
HETATM    4  N   UNL     1      -7.446  10.124  65.609  1.00  0.00    -0.138 NA 
HETATM    5  C   UNL     1      -8.190   9.843  66.679  1.00  0.00    -0.121 A  
HETATM    6  C   UNL     1      -8.829   7.754  65.865  1.00  0.00    -0.142 A  
HETATM    7  N   UNL     1      -8.886   8.697  66.822  1.00  0.00    -0.130 NA 
ENDROOT
BRANCH   5   8
HETATM    8  N   UNL     1      -8.199  10.834  67.664  1.00  0.00    -0.114 NA 
HETATM    9  H   UNL     1      -7.564  10.675  68.446  1.00  0.00     0.000 HD 
BRANCH   8  10
HETATM   10  C   UNL     1      -8.952  12.014  67.735  1.00  0.00    -0.176 A  
HETATM   11  C   UNL     1     -10.325  11.988  67.945  1.00  0.00    -0.209 A  
HETATM   12  C   UNL     1      -9.108  14.432  67.418  1.00  0.00    -0.202 A  
HETATM   13  C   UNL     1     -10.490  14.378  67.572  1.00  0.00    -0.252 A  
HETATM   14  C   UNL     1     -11.088  13.148  67.870  1.00  0.00    -0.288 A  
HETATM   15  C   UNL     1      -8.343  13.256  67.497  1.00  0.00    -0.186 A  
BRANCH  13  16
HETATM   16  O   UNL     1     -11.199  15.547  67.395  1.00  0.00    -0.315 OA 
BRANCH  16  17
HETATM   17  C   UNL     1     -11.365  16.264  68.620  1.00  0.00    -0.333 C  
BRANCH  17  18
HETATM   18  C   UNL     1     -10.389  17.426  68.813  1.00  0.00    -0.357 C  
BRANCH  18  19
HETATM   19  N   UNL     1     -10.218  18.126  67.531  1.00  0.00    -0.353 NA 
HETATM   20  C   UNL     1      -8.817  18.311  67.131  1.00  0.00    -0.260 C  
HETATM   21  C   UNL     1     -10.830  19.448  67.507  1.00  0.00    -0.404 C  
HETATM   22  C   UNL     1      -8.820  19.520  66.206  1.00  0.00    -0.391 C  
HETATM   23  C   UNL     1     -10.254  20.023  66.224  1.00  0.00    -0.595 C  
ENDBRANCH  18  19
ENDBRANCH  17  18
ENDBRANCH  16  17
ENDBRANCH  13  16
ENDBRANCH   8  10
ENDBRANCH   5   8
BRANCH   6  24
HETATM   24  N   UNL     1      -9.505   6.515  66.024  1.00  0.00    -0.375 NA 
HETATM   25  H   UNL     1     -10.230   6.357  65.325  1.00  0.00     0.000 HD 
BRANCH  24  26
HETATM   26  C   UNL     1      -9.379   5.455  66.956  1.00  0.00    -0.121 A  
HETATM   27  C   UNL     1      -9.399   4.097  66.623  1.00  0.00    -0.189 A  
HETATM   28  C   UNL     1      -9.391   5.772  68.326  1.00  0.00    -0.123 A  
HETATM   29  C   UNL     1      -9.440   3.093  67.607  1.00  0.00    -0.202 A  
HETATM   30  C   UNL     1      -9.517   3.428  68.957  1.00  0.00    -0.202 A  
HETATM   31  C   UNL     1      -9.516   4.776  69.312  1.00  0.00    -0.153 A  
BRANCH  31  32
HETATM   32  S   UNL     1      -9.632   5.231  71.024  1.00  0.00    -0.179 S  
HETATM   33  O   UNL     1      -9.562   4.007  71.794  1.00  0.00    -0.136 OA 
HETATM   34  O   UNL     1      -8.703   6.312  71.268  1.00  0.00    -0.134 OA 
BRANCH  32  35
HETATM   35  N   UNL     1     -11.203   5.792  71.227  1.00  0.00    -0.208 N  
HETATM   36  C   UNL     1     -13.149   7.226  71.575  1.00  0.00    -0.434 C  
HETATM   37  C   UNL     1     -11.073   7.684  72.846  1.00  0.00    -0.448 C  
HETATM   38  C   UNL     1     -11.175   8.122  70.361  1.00  0.00    -0.221 C  
HETATM   39  C   UNL     1     -11.606   7.195  71.496  1.00  0.00    -0.278 C  
HETATM   40  H   UNL     1     -11.952   5.102  71.160  1.00  0.00     0.000 HD 
ENDBRANCH  32  35
ENDBRANCH  31  32
ENDBRANCH  24  26
ENDBRANCH   6  24
TORSDOF 10
ENDMDL
MODEL      163
REMARK 921   NORMALIZED FREE ENERGY PREDICTED BY IDOCK:   -5.34 KCAL/MOL
REMARK 922        TOTAL FREE ENERGY PREDICTED BY IDOCK:   -9.81 KCAL/MOL
REMARK 923 INTER-LIGAND FREE ENERGY PREDICTED BY IDOCK:   -8.53 KCAL/MOL
REMARK 924 INTRA-LIGAND FREE ENERGY PREDICTED BY IDOCK:   -1.28 KCAL/MOL
REMARK 927      BINDING AFFINITY PREDICTED BY RF-SCORE:    0.00 PKD
ROOT
HETATM    1  C   UNL     1     -12.340  12.704  65.514  1.00  0.00    -0.455 C  
HETATM    2  C   UNL     1     -11.187  11.753  65.560  1.00  0.00    -0.316 A  
HETATM    3  C   UNL     1     -10.239  11.805  64.552  1.00  0.00    -0.284 A  
HETATM    4  N   UNL     1      -9.164  11.010  64.483  1.00  0.00    -0.193 NA 
HETATM    5  C   UNL     1      -9.044  10.097  65.447  1.00  0.00    -0.188 A  
HETATM    6  C   UNL     1     -10.956  10.819  66.568  1.00  0.00    -0.075 A  
HETATM    7  N   UNL     1      -9.900   9.991  66.483  1.00  0.00    -0.198 NA 
ENDROOT
BRANCH   5   8
HETATM    8  N   UNL     1      -7.953   9.236  65.306  1.00  0.00    -0.104 NA 
HETATM    9  H   UNL     1      -7.120   9.655  64.893  1.00  0.00     0.000 HD 
BRANCH   8  10
HETATM   10  C   UNL     1      -7.833   7.883  65.650  1.00  0.00    -0.109 A  
HETATM   11  C   UNL     1      -7.466   7.489  66.931  1.00  0.00    -0.098 A  
HETATM   12  C   UNL     1      -7.728   5.539  64.965  1.00  0.00    -0.093 A  
HETATM   13  C   UNL     1      -7.304   5.171  66.239  1.00  0.00    -0.082 A  
HETATM   14  C   UNL     1      -7.207   6.156  67.229  1.00  0.00    -0.075 A  
HETATM   15  C   UNL     1      -7.989   6.889  64.672  1.00  0.00    -0.112 A  
BRANCH  13  16
HETATM   16  O   UNL     1      -6.975   3.848  66.445  1.00  0.00    -0.057 OA 
BRANCH  16  17
HETATM   17  C   UNL     1      -8.044   2.969  66.089  1.00  0.00    -0.086 C  
BRANCH  17  18
HETATM   18  C   UNL     1      -9.217   2.965  67.070  1.00  0.00    -0.149 C  
BRANCH  18  19
HETATM   19  N   UNL     1      -8.693   3.009  68.444  1.00  0.00    -0.092 NA 
HETATM   20  C   UNL     1      -8.823   1.743  69.177  1.00  0.00    -0.081 C  
HETATM   21  C   UNL     1      -9.322   4.030  69.271  1.00  0.00    -0.168 C  
HETATM   22  C   UNL     1      -8.837   2.130  70.648  1.00  0.00    -0.131 C  
HETATM   23  C   UNL     1      -8.817   3.651  70.653  1.00  0.00    -0.138 C  
ENDBRANCH  18  19
ENDBRANCH  17  18
ENDBRANCH  16  17
ENDBRANCH  13  16
ENDBRANCH   8  10
ENDBRANCH   5   8
BRANCH   6  24
HETATM   24  N   UNL     1     -11.902  10.684  67.619  1.00  0.00    -0.550 NA 
HETATM   25  H   UNL     1     -12.655  10.029  67.405  1.00  0.00     0.000 HD 
BRANCH  24  26
HETATM   26  C   UNL     1     -12.015  11.272  68.903  1.00  0.00    -0.310 A  
HETATM   27  C   UNL     1     -12.456  10.604  70.049  1.00  0.00    -0.294 A  
HETATM   28  C   UNL     1     -11.823  12.662  69.014  1.00  0.00    -0.341 A  
HETATM   29  C   UNL     1     -12.708  11.284  71.254  1.00  0.00    -0.510 A  
HETATM   30  C   UNL     1     -12.574  12.669  71.326  1.00  0.00    -0.339 A  
HETATM   31  C   UNL     1     -12.153  13.359  70.191  1.00  0.00    -0.344 A  
BRANCH  31  32
HETATM   32  S   UNL     1     -11.993  15.126  70.249  1.00  0.00    -0.346 S  
HETATM   33  O   UNL     1     -13.304  15.661  70.552  1.00  0.00    -0.426 OA 
HETATM   34  O   UNL     1     -10.853  15.449  71.079  1.00  0.00    -0.317 OA 
BRANCH  32  35
HETATM   35  N   UNL     1     -11.678  15.595  68.666  1.00  0.00    -0.427 N  
HETATM   36  C   UNL     1     -10.607  16.474  66.655  1.00  0.00    -0.216 C  
HETATM   37  C   UNL     1     -10.296  17.666  68.804  1.00  0.00    -0.348 C  
HETATM   38  C   UNL     1      -9.211  15.417  68.418  1.00  0.00    -0.192 C  
HETATM   39  C   UNL     1     -10.452  16.276  68.180  1.00  0.00    -0.289 C  
HETATM   40  H   UNL     1     -12.399  15.392  67.973  1.00  0.00     0.000 HD 
ENDBRANCH  32  35
ENDBRANCH  31  32
ENDBRANCH  24  26
ENDBRANCH   6  24
TORSDOF 10
ENDMDL
MODEL      164
REMARK 921   NORMALIZED FREE ENERGY PREDICTED BY IDOCK:   -5.34 KCAL/MOL
REMARK 922        TOTAL FREE ENERGY PREDICTED BY IDOCK:   -9.80 KCAL/MOL
REMARK 923 INTER-LIGAND FREE ENERGY PREDICTED BY IDOCK:   -8.63 KCAL/MOL
REMARK 924 INTRA-LIGAND FREE ENERGY PREDICTED BY IDOCK:   -1.17 KCAL/MOL
REMARK 927      BINDING AFFINITY PREDICTED BY RF-SCORE:    0.00 PKD
ROOT
HETATM    1  C   UNL     1      -5.554   8.313  68.131  1.00  0.00    -0.034 C  
HETATM    2  C   UNL     1      -6.651   8.583  67.152  1.00  0.00    -0.058 A  
HETATM    3  C   UNL     1      -6.803   9.866  66.657  1.00  0.00    -0.084 A  
HETATM    4  N   UNL     1      -7.744  10.231  65.777  1.00  0.00    -0.137 NA 
HETATM    5  C   UNL     1      -8.596   9.278  65.397  1.00  0.00    -0.157 A  
HETATM    6  C   UNL     1      -7.535   7.626  66.655  1.00  0.00    -0.093 A  
HETATM    7  N   UNL     1      -8.507   7.995  65.802  1.00  0.00    -0.140 NA 
ENDROOT
BRANCH   5   8
HETATM    8  N   UNL     1      -9.608   9.707  64.535  1.00  0.00    -0.431 NA 
HETATM    9  H   UNL     1      -9.820   9.074  63.764  1.00  0.00     0.000 HD 
BRANCH   8  10
HETATM   10  C   UNL     1     -10.377  10.878  64.575  1.00  0.00    -0.348 A  
HETATM   11  C   UNL     1     -10.686  11.584  63.419  1.00  0.00    -0.444 A  
HETATM   12  C   UNL     1     -11.415  12.670  65.873  1.00  0.00    -0.407 A  
HETATM   13  C   UNL     1     -11.663  13.390  64.707  1.00  0.00    -0.361 A  
HETATM   14  C   UNL     1     -11.322  12.819  63.476  1.00  0.00    -0.480 A  
HETATM   15  C   UNL     1     -10.773  11.421  65.807  1.00  0.00    -0.309 A  
BRANCH  13  16
HETATM   16  O   UNL     1     -12.213  14.647  64.838  1.00  0.00    -0.401 OA 
BRANCH  16  17
HETATM   17  C   UNL     1     -11.328  15.670  64.376  1.00  0.00    -0.263 C  
BRANCH  17  18
HETATM   18  C   UNL     1     -10.194  16.013  65.342  1.00  0.00    -0.302 C  
BRANCH  18  19
HETATM   19  N   UNL     1     -10.759  16.671  66.531  1.00  0.00    -0.196 NA 
HETATM   20  C   UNL     1     -10.341  18.069  66.699  1.00  0.00    -0.371 C  
HETATM   21  C   UNL     1     -10.434  15.992  67.778  1.00  0.00    -0.298 C  
HETATM   22  C   UNL     1     -10.475  18.352  68.188  1.00  0.00    -0.355 C  
HETATM   23  C   UNL     1     -10.875  17.021  68.805  1.00  0.00    -0.258 C  
ENDBRANCH  18  19
ENDBRANCH  17  18
ENDBRANCH  16  17
ENDBRANCH  13  16
ENDBRANCH   8  10
ENDBRANCH   5   8
BRANCH   6  24
HETATM   24  N   UNL     1      -7.462   6.294  67.141  1.00  0.00    -0.083 NA 
HETATM   25  H   UNL     1      -6.763   5.726  66.661  1.00  0.00     0.000 HD 
BRANCH  24  26
HETATM   26  C   UNL     1      -8.160   5.592  68.155  1.00  0.00    -0.097 A  
HETATM   27  C   UNL     1      -8.345   4.207  68.181  1.00  0.00    -0.099 A  
HETATM   28  C   UNL     1      -8.851   6.343  69.123  1.00  0.00    -0.126 A  
HETATM   29  C   UNL     1      -9.189   3.588  69.120  1.00  0.00    -0.225 A  
HETATM   30  C   UNL     1      -9.915   4.354  70.030  1.00  0.00    -0.245 A  
HETATM   31  C   UNL     1      -9.761   5.739  70.011  1.00  0.00    -0.169 A  
BRANCH  31  32
HETATM   32  S   UNL     1     -10.689   6.739  71.146  1.00  0.00    -0.235 S  
HETATM   33  O   UNL     1     -11.420   7.709  70.358  1.00  0.00    -0.259 OA 
HETATM   34  O   UNL     1     -11.381   5.860  72.062  1.00  0.00    -0.276 OA 
BRANCH  32  35
HETATM   35  N   UNL     1      -9.542   7.630  71.991  1.00  0.00    -0.153 N  
HETATM   36  C   UNL     1      -7.795   8.309  73.558  1.00  0.00    -0.206 C  
HETATM   37  C   UNL     1      -9.601   6.807  74.345  1.00  0.00    -0.296 C  
HETATM   38  C   UNL     1      -7.849   5.966  72.731  1.00  0.00    -0.104 C  
HETATM   39  C   UNL     1      -8.726   7.150  73.135  1.00  0.00    -0.128 C  
HETATM   40  H   UNL     1      -9.391   8.593  71.689  1.00  0.00     0.000 HD 
ENDBRANCH  32  35
ENDBRANCH  31  32
ENDBRANCH  24  26
ENDBRANCH   6  24
TORSDOF 10
ENDMDL
MODEL      165
REMARK 921   NORMALIZED FREE ENERGY PREDICTED BY IDOCK:   -5.32 KCAL/MOL
REMARK 922        TOTAL FREE ENERGY PREDICTED BY IDOCK:   -9.77 KCAL/MOL
REMARK 923 INTER-LIGAND FREE ENERGY PREDICTED BY IDOCK:   -7.97 KCAL/MOL
REMARK 924 INTRA-LIGAND FREE ENERGY PREDICTED BY IDOCK:   -1.80 KCAL/MOL
REMARK 927      BINDING AFFINITY PREDICTED BY RF-SCORE:    0.00 PKD
ROOT
HETATM    1  C   UNL     1      -9.507   7.244  73.093  1.00  0.00    -0.228 C  
HETATM    2  C   UNL     1      -8.513   8.152  72.443  1.00  0.00    -0.238 A  
HETATM    3  C   UNL     1      -7.297   8.367  73.068  1.00  0.00    -0.059 A  
HETATM    4  N   UNL     1      -6.327   9.155  72.586  1.00  0.00    -0.307 NA 
HETATM    5  C   UNL     1      -6.594   9.784  71.441  1.00  0.00     0.239 A  
HETATM    6  C   UNL     1      -8.691   8.789  71.216  1.00  0.00    -0.215 A  
HETATM    7  N   UNL     1      -7.736   9.613  70.746  1.00  0.00    -0.311 NA 
ENDROOT
BRANCH   5   8
HETATM    8  N   UNL     1      -5.593  10.654  71.003  1.00  0.00    -0.218 NA 
HETATM    9  H   UNL     1      -4.673  10.501  71.418  1.00  0.00     0.000 HD 
BRANCH   8  10
HETATM   10  C   UNL     1      -5.664  11.703  70.078  1.00  0.00    -0.128 A  
HETATM   11  C   UNL     1      -5.605  11.471  68.709  1.00  0.00    -0.042 A  
HETATM   12  C   UNL     1      -5.624  14.102  69.610  1.00  0.00    -0.097 A  
HETATM   13  C   UNL     1      -5.505  13.849  68.246  1.00  0.00    -0.111 A  
HETATM   14  C   UNL     1      -5.530  12.522  67.802  1.00  0.00    -0.103 A  
HETATM   15  C   UNL     1      -5.701  13.035  70.521  1.00  0.00    -0.173 A  
BRANCH  13  16
HETATM   16  O   UNL     1      -5.342  14.931  67.408  1.00  0.00    -0.339 OA 
BRANCH  16  17
HETATM   17  C   UNL     1      -5.936  16.116  67.941  1.00  0.00    -0.132 C  
BRANCH  17  18
HETATM   18  C   UNL     1      -7.066  16.698  67.091  1.00  0.00    -0.186 C  
BRANCH  18  19
HETATM   19  N   UNL     1      -7.445  18.013  67.632  1.00  0.00    -0.210 NA 
HETATM   20  C   UNL     1      -8.636  17.988  68.490  1.00  0.00    -0.297 C  
HETATM   21  C   UNL     1      -7.701  19.011  66.602  1.00  0.00    -0.247 C  
HETATM   22  C   UNL     1      -9.209  19.396  68.423  1.00  0.00    -0.415 C  
HETATM   23  C   UNL     1      -8.336  20.127  67.415  1.00  0.00    -0.390 C  
ENDBRANCH  18  19
ENDBRANCH  17  18
ENDBRANCH  16  17
ENDBRANCH  13  16
ENDBRANCH   8  10
ENDBRANCH   5   8
BRANCH   6  24
HETATM   24  N   UNL     1      -9.925   8.642  70.530  1.00  0.00    -0.183 NA 
HETATM   25  H   UNL     1     -10.712   8.447  71.149  1.00  0.00     0.000 HD 
BRANCH  24  26
HETATM   26  C   UNL     1     -10.288   8.711  69.162  1.00  0.00    -0.217 A  
HETATM   27  C   UNL     1     -10.268   7.628  68.277  1.00  0.00    -0.229 A  
HETATM   28  C   UNL     1     -10.537   9.979  68.606  1.00  0.00    -0.239 A  
HETATM   29  C   UNL     1     -10.475   7.794  66.897  1.00  0.00    -0.388 A  
HETATM   30  C   UNL     1     -10.656   9.066  66.356  1.00  0.00     0.043 A  
HETATM   31  C   UNL     1     -10.662  10.162  67.216  1.00  0.00    -0.254 A  
BRANCH  31  32
HETATM   32  S   UNL     1     -10.872  11.795  66.552  1.00  0.00    -0.293 S  
HETATM   33  O   UNL     1     -10.143  11.841  65.302  1.00  0.00    -0.246 OA 
HETATM   34  O   UNL     1     -12.279  12.125  66.600  1.00  0.00    -0.566 OA 
BRANCH  32  35
HETATM   35  N   UNL     1     -10.027  12.809  67.594  1.00  0.00    -0.213 N  
HETATM   36  C   UNL     1      -9.409  14.640  69.086  1.00  0.00    -0.051 C  
HETATM   37  C   UNL     1     -10.773  15.131  67.078  1.00  0.00    -0.307 C  
HETATM   38  C   UNL     1     -11.768  13.863  69.022  1.00  0.00    -0.378 C  
HETATM   39  C   UNL     1     -10.521  14.085  68.168  1.00  0.00    -0.243 C  
HETATM   40  H   UNL     1      -9.085  12.519  67.857  1.00  0.00     0.000 HD 
ENDBRANCH  32  35
ENDBRANCH  31  32
ENDBRANCH  24  26
ENDBRANCH   6  24
TORSDOF 10
ENDMDL
MODEL      166
REMARK 921   NORMALIZED FREE ENERGY PREDICTED BY IDOCK:   -5.29 KCAL/MOL
REMARK 922        TOTAL FREE ENERGY PREDICTED BY IDOCK:   -9.74 KCAL/MOL
REMARK 923 INTER-LIGAND FREE ENERGY PREDICTED BY IDOCK:   -8.78 KCAL/MOL
REMARK 924 INTRA-LIGAND FREE ENERGY PREDICTED BY IDOCK:   -0.95 KCAL/MOL
REMARK 927      BINDING AFFINITY PREDICTED BY RF-SCORE:    0.00 PKD
ROOT
HETATM    1  C   UNL     1     -10.986  15.000  67.032  1.00  0.00    -0.318 C  
HETATM    2  C   UNL     1     -10.884  13.534  67.310  1.00  0.00    -0.285 A  
HETATM    3  C   UNL     1     -11.781  12.676  66.700  1.00  0.00    -0.398 A  
HETATM    4  N   UNL     1     -11.790  11.347  66.867  1.00  0.00    -0.410 NA 
HETATM    5  C   UNL     1     -10.881  10.853  67.708  1.00  0.00    -0.259 A  
HETATM    6  C   UNL     1      -9.920  12.937  68.121  1.00  0.00    -0.234 A  
HETATM    7  N   UNL     1      -9.948  11.608  68.324  1.00  0.00    -0.195 NA 
ENDROOT
BRANCH   5   8
HETATM    8  N   UNL     1     -10.963   9.475  67.916  1.00  0.00    -0.503 NA 
HETATM    9  H   UNL     1     -11.525   9.189  68.718  1.00  0.00     0.000 HD 
BRANCH   8  10
HETATM   10  C   UNL     1     -10.387   8.426  67.187  1.00  0.00    -0.311 A  
HETATM   11  C   UNL     1     -10.848   7.121  67.303  1.00  0.00    -0.382 A  
HETATM   12  C   UNL     1      -8.579   7.596  65.767  1.00  0.00    -0.156 A  
HETATM   13  C   UNL     1      -9.022   6.287  65.944  1.00  0.00    -0.109 A  
HETATM   14  C   UNL     1     -10.184   6.064  66.691  1.00  0.00    -0.246 A  
HETATM   15  C   UNL     1      -9.257   8.659  66.387  1.00  0.00    -0.245 A  
BRANCH  13  16
HETATM   16  O   UNL     1      -8.267   5.277  65.387  1.00  0.00    -0.115 OA 
BRANCH  16  17
HETATM   17  C   UNL     1      -8.464   4.030  66.056  1.00  0.00    -0.109 C  
BRANCH  17  18
HETATM   18  C   UNL     1      -7.375   3.672  67.067  1.00  0.00    -0.068 C  
BRANCH  18  19
HETATM   19  N   UNL     1      -7.932   3.765  68.426  1.00  0.00    -0.071 NA 
HETATM   20  C   UNL     1      -9.382   3.547  68.495  1.00  0.00    -0.166 C  
HETATM   21  C   UNL     1      -7.677   5.047  69.070  1.00  0.00    -0.080 C  
HETATM   22  C   UNL     1      -9.837   4.269  69.756  1.00  0.00    -0.258 C  
HETATM   23  C   UNL     1      -8.589   4.961  70.282  1.00  0.00    -0.111 C  
ENDBRANCH  18  19
ENDBRANCH  17  18
ENDBRANCH  16  17
ENDBRANCH  13  16
ENDBRANCH   8  10
ENDBRANCH   5   8
BRANCH   6  24
HETATM   24  N   UNL     1      -8.985  13.756  68.806  1.00  0.00    -0.374 NA 
HETATM   25  H   UNL     1      -9.191  13.864  69.800  1.00  0.00     0.000 HD 
BRANCH  24  26
HETATM   26  C   UNL     1      -7.823  14.456  68.394  1.00  0.00    -0.138 A  
HETATM   27  C   UNL     1      -6.527  13.933  68.423  1.00  0.00    -0.103 A  
HETATM   28  C   UNL     1      -7.949  15.822  68.081  1.00  0.00    -0.136 A  
HETATM   29  C   UNL     1      -5.399  14.731  68.162  1.00  0.00    -0.122 A  
HETATM   30  C   UNL     1      -5.540  16.096  67.917  1.00  0.00    -0.142 A  
HETATM   31  C   UNL     1      -6.821  16.643  67.902  1.00  0.00    -0.144 A  
BRANCH  31  32
HETATM   32  S   UNL     1      -7.027  18.382  67.611  1.00  0.00    -0.209 S  
HETATM   33  O   UNL     1      -7.335  18.992  68.888  1.00  0.00    -0.316 OA 
HETATM   34  O   UNL     1      -5.906  18.845  66.823  1.00  0.00    -0.161 OA 
BRANCH  32  35
HETATM   35  N   UNL     1      -8.436  18.516  66.705  1.00  0.00    -0.273 N  
HETATM   36  C   UNL     1     -10.685  19.093  65.949  1.00  0.00    -0.435 C  
HETATM   37  C   UNL     1     -10.324  18.536  68.335  1.00  0.00    -0.359 C  
HETATM   38  C   UNL     1      -9.430  20.694  67.375  1.00  0.00    -0.516 C  
HETATM   39  C   UNL     1      -9.682  19.209  67.118  1.00  0.00    -0.327 C  
HETATM   40  H   UNL     1      -8.436  18.079  65.784  1.00  0.00     0.000 HD 
ENDBRANCH  32  35
ENDBRANCH  31  32
ENDBRANCH  24  26
ENDBRANCH   6  24
TORSDOF 10
ENDMDL
MODEL      167
REMARK 921   NORMALIZED FREE ENERGY PREDICTED BY IDOCK:   -5.29 KCAL/MOL
REMARK 922        TOTAL FREE ENERGY PREDICTED BY IDOCK:   -9.73 KCAL/MOL
REMARK 923 INTER-LIGAND FREE ENERGY PREDICTED BY IDOCK:   -7.83 KCAL/MOL
REMARK 924 INTRA-LIGAND FREE ENERGY PREDICTED BY IDOCK:   -1.91 KCAL/MOL
REMARK 927      BINDING AFFINITY PREDICTED BY RF-SCORE:    0.00 PKD
ROOT
HETATM    1  C   UNL     1      -7.468  10.716  65.351  1.00  0.00    -0.028 C  
HETATM    2  C   UNL     1      -7.613   9.327  65.884  1.00  0.00    -0.098 A  
HETATM    3  C   UNL     1      -7.440   8.260  65.021  1.00  0.00    -0.090 A  
HETATM    4  N   UNL     1      -7.541   6.973  65.378  1.00  0.00    -0.091 NA 
HETATM    5  C   UNL     1      -7.864   6.739  66.651  1.00  0.00    -0.107 A  
HETATM    6  C   UNL     1      -7.880   9.002  67.213  1.00  0.00    -0.099 A  
HETATM    7  N   UNL     1      -8.022   7.713  67.570  1.00  0.00    -0.118 NA 
ENDROOT
BRANCH   5   8
HETATM    8  N   UNL     1      -8.034   5.391  66.974  1.00  0.00    -0.101 NA 
HETATM    9  H   UNL     1      -8.048   4.752  66.179  1.00  0.00     0.000 HD 
BRANCH   8  10
HETATM   10  C   UNL     1      -8.187   4.787  68.229  1.00  0.00    -0.088 A  
HETATM   11  C   UNL     1      -9.395   4.225  68.622  1.00  0.00    -0.213 A  
HETATM   12  C   UNL     1      -7.325   4.354  70.474  1.00  0.00    -0.049 A  
HETATM   13  C   UNL     1      -8.562   3.849  70.867  1.00  0.00    -0.072 A  
HETATM   14  C   UNL     1      -9.586   3.758  69.917  1.00  0.00    -0.255 A  
HETATM   15  C   UNL     1      -7.140   4.822  69.163  1.00  0.00    -0.052 A  
BRANCH  13  16
HETATM   16  O   UNL     1      -8.714   3.488  72.189  1.00  0.00    -0.085 OA 
BRANCH  16  17
HETATM   17  C   UNL     1      -9.904   4.035  72.761  1.00  0.00    -0.147 C  
BRANCH  17  18
HETATM   18  C   UNL     1      -9.704   5.365  73.490  1.00  0.00    -0.148 C  
BRANCH  18  19
HETATM   19  N   UNL     1     -10.836   6.254  73.183  1.00  0.00    -0.260 NA 
HETATM   20  C   UNL     1     -11.487   5.973  71.897  1.00  0.00    -0.269 C  
HETATM   21  C   UNL     1     -10.474   7.665  73.162  1.00  0.00    -0.374 C  
HETATM   22  C   UNL     1     -12.142   7.284  71.485  1.00  0.00    -0.365 C  
HETATM   23  C   UNL     1     -11.718   8.285  72.547  1.00  0.00    -0.451 C  
ENDBRANCH  18  19
ENDBRANCH  17  18
ENDBRANCH  16  17
ENDBRANCH  13  16
ENDBRANCH   8  10
ENDBRANCH   5   8
BRANCH   6  24
HETATM   24  N   UNL     1      -8.102  10.043  68.152  1.00  0.00    -0.107 NA 
HETATM   25  H   UNL     1      -7.245  10.394  68.579  1.00  0.00     0.000 HD 
BRANCH  24  26
HETATM   26  C   UNL     1      -9.271  10.697  68.616  1.00  0.00    -0.181 A  
HETATM   27  C   UNL     1     -10.299  10.076  69.332  1.00  0.00    -0.245 A  
HETATM   28  C   UNL     1      -9.498  12.022  68.202  1.00  0.00    -0.200 A  
HETATM   29  C   UNL     1     -11.508  10.734  69.616  1.00  0.00    -0.376 A  
HETATM   30  C   UNL     1     -11.739  12.024  69.142  1.00  0.00    -0.389 A  
HETATM   31  C   UNL     1     -10.736  12.657  68.411  1.00  0.00    -0.242 A  
BRANCH  31  32
HETATM   32  S   UNL     1     -11.012  14.292  67.778  1.00  0.00    -0.272 S  
HETATM   33  O   UNL     1     -11.974  14.929  68.653  1.00  0.00    -0.302 OA 
HETATM   34  O   UNL     1      -9.725  14.903  67.526  1.00  0.00    -0.211 OA 
BRANCH  32  35
HETATM   35  N   UNL     1     -11.818  14.073  66.320  1.00  0.00    -0.391 N  
HETATM   36  C   UNL     1     -12.367  13.966  63.943  1.00  0.00    -0.323 C  
HETATM   37  C   UNL     1     -10.975  15.839  64.774  1.00  0.00    -0.410 C  
HETATM   38  C   UNL     1     -10.041  13.494  64.680  1.00  0.00    -0.246 C  
HETATM   39  C   UNL     1     -11.275  14.349  64.966  1.00  0.00    -0.375 C  
HETATM   40  H   UNL     1     -12.772  13.716  66.369  1.00  0.00     0.000 HD 
ENDBRANCH  32  35
ENDBRANCH  31  32
ENDBRANCH  24  26
ENDBRANCH   6  24
TORSDOF 10
ENDMDL
MODEL      168
REMARK 921   NORMALIZED FREE ENERGY PREDICTED BY IDOCK:   -5.27 KCAL/MOL
REMARK 922        TOTAL FREE ENERGY PREDICTED BY IDOCK:   -9.69 KCAL/MOL
REMARK 923 INTER-LIGAND FREE ENERGY PREDICTED BY IDOCK:   -8.22 KCAL/MOL
REMARK 924 INTRA-LIGAND FREE ENERGY PREDICTED BY IDOCK:   -1.48 KCAL/MOL
REMARK 927      BINDING AFFINITY PREDICTED BY RF-SCORE:    0.00 PKD
ROOT
HETATM    1  C   UNL     1     -11.433  10.535  67.911  1.00  0.00    -0.190 C  
HETATM    2  C   UNL     1     -10.239  11.430  67.815  1.00  0.00    -0.202 A  
HETATM    3  C   UNL     1     -10.197  12.379  66.809  1.00  0.00    -0.219 A  
HETATM    4  N   UNL     1      -9.186  13.238  66.622  1.00  0.00    -0.242 NA 
HETATM    5  C   UNL     1      -8.153  13.122  67.456  1.00  0.00    -0.181 A  
HETATM    6  C   UNL     1      -9.154  11.416  68.690  1.00  0.00    -0.135 A  
HETATM    7  N   UNL     1      -8.118  12.248  68.482  1.00  0.00    -0.133 NA 
ENDROOT
BRANCH   5   8
HETATM    8  N   UNL     1      -7.085  13.982  67.188  1.00  0.00    -0.386 NA 
HETATM    9  H   UNL     1      -6.363  13.601  66.577  1.00  0.00     0.000 HD 
BRANCH   8  10
HETATM   10  C   UNL     1      -6.859  15.290  67.636  1.00  0.00    -0.180 A  
HETATM   11  C   UNL     1      -5.685  15.969  67.333  1.00  0.00    -0.120 A  
HETATM   12  C   UNL     1      -7.503  17.165  69.066  1.00  0.00    -0.203 A  
HETATM   13  C   UNL     1      -6.295  17.804  68.797  1.00  0.00    -0.212 A  
HETATM   14  C   UNL     1      -5.402  17.208  67.898  1.00  0.00    -0.123 A  
HETATM   15  C   UNL     1      -7.782  15.914  68.490  1.00  0.00    -0.147 A  
BRANCH  13  16
HETATM   16  O   UNL     1      -6.035  18.984  69.459  1.00  0.00    -0.240 OA 
BRANCH  16  17
HETATM   17  C   UNL     1      -7.074  19.947  69.266  1.00  0.00    -0.246 C  
BRANCH  17  18
HETATM   18  C   UNL     1      -7.169  20.501  67.844  1.00  0.00    -0.252 C  
BRANCH  18  19
HETATM   19  N   UNL     1      -8.552  20.355  67.364  1.00  0.00    -0.342 NA 
HETATM   20  C   UNL     1      -9.499  19.902  68.390  1.00  0.00    -0.272 C  
HETATM   21  C   UNL     1      -8.682  19.430  66.246  1.00  0.00    -0.346 C  
HETATM   22  C   UNL     1     -10.632  19.234  67.624  1.00  0.00    -0.553 C  
HETATM   23  C   UNL     1     -10.190  19.260  66.170  1.00  0.00    -0.549 C  
ENDBRANCH  18  19
ENDBRANCH  17  18
ENDBRANCH  16  17
ENDBRANCH  13  16
ENDBRANCH   8  10
ENDBRANCH   5   8
BRANCH   6  24
HETATM   24  N   UNL     1      -9.111  10.448  69.727  1.00  0.00    -0.404 NA 
HETATM   25  H   UNL     1      -9.627  10.725  70.562  1.00  0.00     0.000 HD 
BRANCH  24  26
HETATM   26  C   UNL     1      -8.497   9.175  69.841  1.00  0.00    -0.147 A  
HETATM   27  C   UNL     1      -7.127   8.936  69.699  1.00  0.00    -0.054 A  
HETATM   28  C   UNL     1      -9.331   8.046  69.947  1.00  0.00    -0.156 A  
HETATM   29  C   UNL     1      -6.602   7.633  69.654  1.00  0.00    -0.035 A  
HETATM   30  C   UNL     1      -7.450   6.527  69.696  1.00  0.00    -0.093 A  
HETATM   31  C   UNL     1      -8.821   6.741  69.819  1.00  0.00    -0.141 A  
BRANCH  31  32
HETATM   32  S   UNL     1      -9.925   5.351  69.856  1.00  0.00    -0.246 S  
HETATM   33  O   UNL     1     -11.028   5.661  68.971  1.00  0.00    -0.256 OA 
HETATM   34  O   UNL     1      -9.143   4.148  69.669  1.00  0.00    -0.096 OA 
BRANCH  32  35
HETATM   35  N   UNL     1     -10.584   5.350  71.402  1.00  0.00    -0.232 N  
HETATM   36  C   UNL     1     -10.984   4.934  73.774  1.00  0.00    -0.361 C  
HETATM   37  C   UNL     1     -10.158   3.084  72.350  1.00  0.00    -0.229 C  
HETATM   38  C   UNL     1      -8.650   5.025  72.929  1.00  0.00    -0.118 C  
HETATM   39  C   UNL     1     -10.072   4.597  72.573  1.00  0.00    -0.174 C  
HETATM   40  H   UNL     1     -11.416   5.922  71.549  1.00  0.00     0.000 HD 
ENDBRANCH  32  35
ENDBRANCH  31  32
ENDBRANCH  24  26
ENDBRANCH   6  24
TORSDOF 10
ENDMDL
MODEL      169
REMARK 921   NORMALIZED FREE ENERGY PREDICTED BY IDOCK:   -5.24 KCAL/MOL
REMARK 922        TOTAL FREE ENERGY PREDICTED BY IDOCK:   -9.64 KCAL/MOL
REMARK 923 INTER-LIGAND FREE ENERGY PREDICTED BY IDOCK:   -8.54 KCAL/MOL
REMARK 924 INTRA-LIGAND FREE ENERGY PREDICTED BY IDOCK:   -1.10 KCAL/MOL
REMARK 927      BINDING AFFINITY PREDICTED BY RF-SCORE:    0.00 PKD
ROOT
HETATM    1  C   UNL     1     -11.082  12.091  63.308  1.00  0.00    -0.400 C  
HETATM    2  C   UNL     1     -11.052  12.136  64.803  1.00  0.00    -0.364 A  
HETATM    3  C   UNL     1     -12.177  12.575  65.479  1.00  0.00    -0.377 A  
HETATM    4  N   UNL     1     -12.274  12.659  66.812  1.00  0.00    -0.476 NA 
HETATM    5  C   UNL     1     -11.185  12.321  67.504  1.00  0.00    -0.297 A  
HETATM    6  C   UNL     1      -9.979  11.735  65.597  1.00  0.00    -0.240 A  
HETATM    7  N   UNL     1     -10.056  11.855  66.934  1.00  0.00    -0.206 NA 
ENDROOT
BRANCH   5   8
HETATM    8  N   UNL     1     -11.294  12.489  68.886  1.00  0.00    -0.277 NA 
HETATM    9  H   UNL     1     -11.229  13.453  69.213  1.00  0.00     0.000 HD 
BRANCH   8  10
HETATM   10  C   UNL     1     -11.480  11.529  69.889  1.00  0.00    -0.260 A  
HETATM   11  C   UNL     1     -10.692  10.386  69.957  1.00  0.00    -0.321 A  
HETATM   12  C   UNL     1     -12.832  10.630  71.716  1.00  0.00    -0.549 A  
HETATM   13  C   UNL     1     -12.067   9.466  71.729  1.00  0.00    -0.382 A  
HETATM   14  C   UNL     1     -10.973   9.369  70.862  1.00  0.00    -0.391 A  
HETATM   15  C   UNL     1     -12.541  11.654  70.799  1.00  0.00    -0.365 A  
BRANCH  13  16
HETATM   16  O   UNL     1     -12.453   8.458  72.586  1.00  0.00    -0.349 OA 
BRANCH  16  17
HETATM   17  C   UNL     1     -11.364   7.596  72.925  1.00  0.00    -0.341 C  
BRANCH  17  18
HETATM   18  C   UNL     1     -11.580   6.127  72.558  1.00  0.00    -0.250 C  
BRANCH  18  19
HETATM   19  N   UNL     1     -10.432   5.340  73.037  1.00  0.00    -0.195 NA 
HETATM   20  C   UNL     1      -9.234   5.454  72.197  1.00  0.00    -0.143 C  
HETATM   21  C   UNL     1     -10.717   3.916  73.158  1.00  0.00    -0.181 C  
HETATM   22  C   UNL     1      -8.443   4.179  72.450  1.00  0.00    -0.105 C  
HETATM   23  C   UNL     1      -9.323   3.348  73.371  1.00  0.00    -0.117 C  
ENDBRANCH  18  19
ENDBRANCH  17  18
ENDBRANCH  16  17
ENDBRANCH  13  16
ENDBRANCH   8  10
ENDBRANCH   5   8
BRANCH   6  24
HETATM   24  N   UNL     1      -8.778  11.303  64.974  1.00  0.00    -0.389 NA 
HETATM   25  H   UNL     1      -8.092  12.049  64.855  1.00  0.00     0.000 HD 
BRANCH  24  26
HETATM   26  C   UNL     1      -8.337  10.049  64.483  1.00  0.00    -0.167 A  
HETATM   27  C   UNL     1      -7.969   9.797  63.159  1.00  0.00    -0.145 A  
HETATM   28  C   UNL     1      -8.419   8.937  65.341  1.00  0.00    -0.176 A  
HETATM   29  C   UNL     1      -7.703   8.496  62.697  1.00  0.00    -0.124 A  
HETATM   30  C   UNL     1      -7.852   7.401  63.545  1.00  0.00    -0.111 A  
HETATM   31  C   UNL     1      -8.236   7.626  64.865  1.00  0.00    -0.095 A  
BRANCH  31  32
HETATM   32  S   UNL     1      -8.453   6.246  65.962  1.00  0.00    -0.147 S  
HETATM   33  O   UNL     1      -7.276   6.185  66.804  1.00  0.00    -0.071 OA 
HETATM   34  O   UNL     1      -9.774   6.333  66.543  1.00  0.00    -0.161 OA 
BRANCH  32  35
HETATM   35  N   UNL     1      -8.366   4.884  64.981  1.00  0.00    -0.129 N  
HETATM   36  C   UNL     1      -7.695   2.758  63.984  1.00  0.00    -0.076 C  
HETATM   37  C   UNL     1      -5.944   4.335  64.748  1.00  0.00    -0.022 C  
HETATM   38  C   UNL     1      -7.385   3.112  66.424  1.00  0.00    -0.075 C  
HETATM   39  C   UNL     1      -7.347   3.807  65.064  1.00  0.00    -0.068 C  
HETATM   40  H   UNL     1      -9.081   4.787  64.261  1.00  0.00     0.000 HD 
ENDBRANCH  32  35
ENDBRANCH  31  32
ENDBRANCH  24  26
ENDBRANCH   6  24
TORSDOF 10
ENDMDL
MODEL      170
REMARK 921   NORMALIZED FREE ENERGY PREDICTED BY IDOCK:   -5.23 KCAL/MOL
REMARK 922        TOTAL FREE ENERGY PREDICTED BY IDOCK:   -9.63 KCAL/MOL
REMARK 923 INTER-LIGAND FREE ENERGY PREDICTED BY IDOCK:   -8.44 KCAL/MOL
REMARK 924 INTRA-LIGAND FREE ENERGY PREDICTED BY IDOCK:   -1.19 KCAL/MOL
REMARK 927      BINDING AFFINITY PREDICTED BY RF-SCORE:    0.00 PKD
ROOT
HETATM    1  C   UNL     1      -8.031  12.499  68.282  1.00  0.00    -0.153 C  
HETATM    2  C   UNL     1      -8.971  11.361  68.519  1.00  0.00    -0.158 A  
HETATM    3  C   UNL     1      -8.453  10.086  68.663  1.00  0.00    -0.118 A  
HETATM    4  N   UNL     1      -9.190   8.989  68.880  1.00  0.00    -0.139 NA 
HETATM    5  C   UNL     1     -10.510   9.166  68.923  1.00  0.00    -0.218 A  
HETATM    6  C   UNL     1     -10.355  11.476  68.646  1.00  0.00    -0.210 A  
HETATM    7  N   UNL     1     -11.103  10.373  68.824  1.00  0.00    -0.244 NA 
ENDROOT
BRANCH   5   8
HETATM    8  N   UNL     1     -11.254   7.994  69.078  1.00  0.00    -0.317 NA 
HETATM    9  H   UNL     1     -12.131   7.965  68.559  1.00  0.00     0.000 HD 
BRANCH   8  10
HETATM   10  C   UNL     1     -10.972   6.853  69.840  1.00  0.00    -0.277 A  
HETATM   11  C   UNL     1     -11.482   6.692  71.123  1.00  0.00    -0.370 A  
HETATM   12  C   UNL     1      -9.673   4.809  70.167  1.00  0.00    -0.288 A  
HETATM   13  C   UNL     1     -10.149   4.697  71.471  1.00  0.00    -0.185 A  
HETATM   14  C   UNL     1     -11.085   5.632  71.930  1.00  0.00    -0.278 A  
HETATM   15  C   UNL     1     -10.081   5.883  69.357  1.00  0.00    -0.260 A  
BRANCH  13  16
HETATM   16  O   UNL     1      -9.646   3.677  72.249  1.00  0.00    -0.128 OA 
BRANCH  16  17
HETATM   17  C   UNL     1      -8.889   4.170  73.356  1.00  0.00    -0.097 C  
BRANCH  17  18
HETATM   18  C   UNL     1      -7.454   3.646  73.427  1.00  0.00    -0.061 C  
BRANCH  18  19
HETATM   19  N   UNL     1      -6.550   4.641  72.829  1.00  0.00    -0.048 NA 
HETATM   20  C   UNL     1      -7.047   6.022  72.900  1.00  0.00    -0.077 C  
HETATM   21  C   UNL     1      -6.251   4.383  71.426  1.00  0.00    -0.018 C  
HETATM   22  C   UNL     1      -6.362   6.754  71.755  1.00  0.00    -0.042 C  
HETATM   23  C   UNL     1      -5.574   5.681  71.019  1.00  0.00    -0.013 C  
ENDBRANCH  18  19
ENDBRANCH  17  18
ENDBRANCH  16  17
ENDBRANCH  13  16
ENDBRANCH   8  10
ENDBRANCH   5   8
BRANCH   6  24
HETATM   24  N   UNL     1     -10.964  12.748  68.478  1.00  0.00    -0.247 NA 
HETATM   25  H   UNL     1     -11.394  13.107  69.331  1.00  0.00     0.000 HD 
BRANCH  24  26
HETATM   26  C   UNL     1     -11.096  13.621  67.369  1.00  0.00    -0.282 A  
HETATM   27  C   UNL     1     -11.314  13.207  66.052  1.00  0.00    -0.337 A  
HETATM   28  C   UNL     1     -10.837  14.989  67.570  1.00  0.00    -0.297 A  
HETATM   29  C   UNL     1     -11.267  14.108  64.974  1.00  0.00    -0.356 A  
HETATM   30  C   UNL     1     -10.945  15.447  65.185  1.00  0.00    -0.430 A  
HETATM   31  C   UNL     1     -10.706  15.879  66.488  1.00  0.00    -0.258 A  
BRANCH  31  32
HETATM   32  S   UNL     1     -10.275  17.576  66.783  1.00  0.00    -0.321 S  
HETATM   33  O   UNL     1     -10.521  18.296  65.551  1.00  0.00    -0.616 OA 
HETATM   34  O   UNL     1     -10.899  17.993  68.020  1.00  0.00    -0.336 OA 
BRANCH  32  35
HETATM   35  N   UNL     1      -8.605  17.583  66.974  1.00  0.00    -0.228 N  
HETATM   36  C   UNL     1      -6.287  18.291  67.267  1.00  0.00    -0.190 C  
HETATM   37  C   UNL     1      -7.765  19.598  65.770  1.00  0.00    -0.245 C  
HETATM   38  C   UNL     1      -8.112  19.645  68.272  1.00  0.00    -0.357 C  
HETATM   39  C   UNL     1      -7.738  18.783  67.067  1.00  0.00    -0.235 C  
HETATM   40  H   UNL     1      -8.144  16.675  67.031  1.00  0.00     0.000 HD 
ENDBRANCH  32  35
ENDBRANCH  31  32
ENDBRANCH  24  26
ENDBRANCH   6  24
TORSDOF 10
ENDMDL
MODEL      171
REMARK 921   NORMALIZED FREE ENERGY PREDICTED BY IDOCK:   -5.22 KCAL/MOL
REMARK 922        TOTAL FREE ENERGY PREDICTED BY IDOCK:   -9.62 KCAL/MOL
REMARK 923 INTER-LIGAND FREE ENERGY PREDICTED BY IDOCK:   -7.60 KCAL/MOL
REMARK 924 INTRA-LIGAND FREE ENERGY PREDICTED BY IDOCK:   -2.02 KCAL/MOL
REMARK 927      BINDING AFFINITY PREDICTED BY RF-SCORE:    0.00 PKD
ROOT
HETATM    1  C   UNL     1     -11.862  13.536  66.851  1.00  0.00    -0.452 C  
HETATM    2  C   UNL     1     -11.927  12.696  68.086  1.00  0.00    -0.274 A  
HETATM    3  C   UNL     1     -12.154  11.337  67.958  1.00  0.00     0.129 A  
HETATM    4  N   UNL     1     -12.231  10.482  68.986  1.00  0.00    -0.228 NA 
HETATM    5  C   UNL     1     -12.108  11.012  70.203  1.00  0.00    -0.356 A  
HETATM    6  C   UNL     1     -11.739  13.165  69.386  1.00  0.00    -0.327 A  
HETATM    7  N   UNL     1     -11.854  12.318  70.424  1.00  0.00    -0.257 NA 
ENDROOT
BRANCH   5   8
HETATM    8  N   UNL     1     -12.265  10.107  71.255  1.00  0.00    -0.369 NA 
HETATM    9  H   UNL     1     -13.094  10.252  71.832  1.00  0.00     0.000 HD 
BRANCH   8  10
HETATM   10  C   UNL     1     -11.453   9.031  71.635  1.00  0.00    -0.361 A  
HETATM   11  C   UNL     1     -10.068   9.094  71.534  1.00  0.00    -0.381 A  
HETATM   12  C   UNL     1     -11.237   6.683  72.279  1.00  0.00    -0.303 A  
HETATM   13  C   UNL     1      -9.855   6.750  72.116  1.00  0.00    -0.148 A  
HETATM   14  C   UNL     1      -9.276   7.977  71.773  1.00  0.00    -0.212 A  
HETATM   15  C   UNL     1     -12.031   7.817  72.038  1.00  0.00    -0.350 A  
BRANCH  13  16
HETATM   16  O   UNL     1      -9.136   5.586  72.278  1.00  0.00    -0.142 OA 
BRANCH  16  17
HETATM   17  C   UNL     1      -8.722   5.033  71.027  1.00  0.00    -0.127 C  
BRANCH  17  18
HETATM   18  C   UNL     1      -7.222   5.144  70.748  1.00  0.00    -0.064 C  
BRANCH  18  19
HETATM   19  N   UNL     1      -7.024   5.757  69.425  1.00  0.00    -0.061 NA 
HETATM   20  C   UNL     1      -6.447   7.106  69.469  1.00  0.00    -0.040 C  
HETATM   21  C   UNL     1      -8.251   5.859  68.645  1.00  0.00    -0.109 C  
HETATM   22  C   UNL     1      -6.891   7.775  68.176  1.00  0.00    -0.068 C  
HETATM   23  C   UNL     1      -7.809   6.764  67.507  1.00  0.00    -0.111 C  
ENDBRANCH  18  19
ENDBRANCH  17  18
ENDBRANCH  16  17
ENDBRANCH  13  16
ENDBRANCH   8  10
ENDBRANCH   5   8
BRANCH   6  24
HETATM   24  N   UNL     1     -11.532  14.553  69.600  1.00  0.00    -0.275 NA 
HETATM   25  H   UNL     1     -12.319  15.014  70.059  1.00  0.00     0.000 HD 
BRANCH  24  26
HETATM   26  C   UNL     1     -10.459  15.430  69.307  1.00  0.00    -0.251 A  
HETATM   27  C   UNL     1     -10.590  16.805  69.091  1.00  0.00    -0.343 A  
HETATM   28  C   UNL     1      -9.193  14.867  69.060  1.00  0.00    -0.176 A  
HETATM   29  C   UNL     1      -9.516  17.591  68.638  1.00  0.00    -0.278 A  
HETATM   30  C   UNL     1      -8.288  17.004  68.337  1.00  0.00    -0.241 A  
HETATM   31  C   UNL     1      -8.139  15.632  68.528  1.00  0.00    -0.147 A  
BRANCH  31  32
HETATM   32  S   UNL     1      -6.591  14.856  68.135  1.00  0.00    -0.145 S  
HETATM   33  O   UNL     1      -5.905  15.726  67.202  1.00  0.00    -0.334 OA 
HETATM   34  O   UNL     1      -5.959  14.455  69.372  1.00  0.00    -0.094 OA 
BRANCH  32  35
HETATM   35  N   UNL     1      -6.994  13.487  67.248  1.00  0.00    -0.318 N  
HETATM   36  C   UNL     1      -7.301  11.175  66.523  1.00  0.00    -0.129 C  
HETATM   37  C   UNL     1      -5.215  11.800  67.704  1.00  0.00    -0.065 C  
HETATM   38  C   UNL     1      -7.414  11.719  68.945  1.00  0.00    -0.080 C  
HETATM   39  C   UNL     1      -6.720  12.080  67.632  1.00  0.00    -0.109 C  
HETATM   40  H   UNL     1      -7.474  13.637  66.360  1.00  0.00     0.000 HD 
ENDBRANCH  32  35
ENDBRANCH  31  32
ENDBRANCH  24  26
ENDBRANCH   6  24
TORSDOF 10
ENDMDL
MODEL      172
REMARK 921   NORMALIZED FREE ENERGY PREDICTED BY IDOCK:   -5.22 KCAL/MOL
REMARK 922        TOTAL FREE ENERGY PREDICTED BY IDOCK:   -9.62 KCAL/MOL
REMARK 923 INTER-LIGAND FREE ENERGY PREDICTED BY IDOCK:   -8.47 KCAL/MOL
REMARK 924 INTRA-LIGAND FREE ENERGY PREDICTED BY IDOCK:   -1.15 KCAL/MOL
REMARK 927      BINDING AFFINITY PREDICTED BY RF-SCORE:    0.00 PKD
ROOT
HETATM    1  C   UNL     1      -7.847   7.324  71.190  1.00  0.00    -0.093 C  
HETATM    2  C   UNL     1      -8.897   8.228  70.629  1.00  0.00    -0.151 A  
HETATM    3  C   UNL     1      -9.867   8.731  71.478  1.00  0.00    -0.301 A  
HETATM    4  N   UNL     1     -10.856   9.549  71.097  1.00  0.00    -0.340 NA 
HETATM    5  C   UNL     1     -10.900   9.855  69.800  1.00  0.00    -0.269 A  
HETATM    6  C   UNL     1      -8.969   8.649  69.301  1.00  0.00    -0.145 A  
HETATM    7  N   UNL     1      -9.983   9.438  68.905  1.00  0.00    -0.174 NA 
ENDROOT
BRANCH   5   8
HETATM    8  N   UNL     1     -11.985  10.650  69.422  1.00  0.00    -0.490 NA 
HETATM    9  H   UNL     1     -12.872  10.157  69.326  1.00  0.00     0.000 HD 
BRANCH   8  10
HETATM   10  C   UNL     1     -12.033  12.025  69.155  1.00  0.00    -0.268 A  
HETATM   11  C   UNL     1     -11.751  12.531  67.892  1.00  0.00    -0.416 A  
HETATM   12  C   UNL     1     -12.181  14.323  69.974  1.00  0.00    -0.417 A  
HETATM   13  C   UNL     1     -11.838  14.810  68.715  1.00  0.00    -0.296 A  
HETATM   14  C   UNL     1     -11.657  13.899  67.667  1.00  0.00    -0.381 A  
HETATM   15  C   UNL     1     -12.275  12.938  70.193  1.00  0.00    -0.336 A  
BRANCH  13  16
HETATM   16  O   UNL     1     -11.672  16.171  68.580  1.00  0.00    -0.348 OA 
BRANCH  16  17
HETATM   17  C   UNL     1     -10.577  16.495  67.720  1.00  0.00    -0.332 C  
BRANCH  17  18
HETATM   18  C   UNL     1      -9.342  17.038  68.442  1.00  0.00    -0.266 C  
BRANCH  18  19
HETATM   19  N   UNL     1      -8.668  18.012  67.570  1.00  0.00    -0.246 NA 
HETATM   20  C   UNL     1      -7.948  19.068  68.295  1.00  0.00    -0.315 C  
HETATM   21  C   UNL     1      -9.572  18.688  66.649  1.00  0.00    -0.333 C  
HETATM   22  C   UNL     1      -7.880  20.242  67.329  1.00  0.00    -0.362 C  
HETATM   23  C   UNL     1      -8.683  19.799  66.116  1.00  0.00    -0.368 C  
ENDBRANCH  18  19
ENDBRANCH  17  18
ENDBRANCH  16  17
ENDBRANCH  13  16
ENDBRANCH   8  10
ENDBRANCH   5   8
BRANCH   6  24
HETATM   24  N   UNL     1      -8.027   8.149  68.364  1.00  0.00    -0.121 NA 
HETATM   25  H   UNL     1      -7.175   8.708  68.307  1.00  0.00     0.000 HD 
BRANCH  24  26
HETATM   26  C   UNL     1      -8.027   7.033  67.490  1.00  0.00    -0.113 A  
HETATM   27  C   UNL     1      -8.254   7.101  66.112  1.00  0.00    -0.128 A  
HETATM   28  C   UNL     1      -7.950   5.748  68.058  1.00  0.00    -0.101 A  
HETATM   29  C   UNL     1      -8.410   5.944  65.328  1.00  0.00    -0.146 A  
HETATM   30  C   UNL     1      -8.395   4.682  65.919  1.00  0.00    -0.115 A  
HETATM   31  C   UNL     1      -8.188   4.591  67.294  1.00  0.00    -0.101 A  
BRANCH  31  32
HETATM   32  S   UNL     1      -8.183   2.997  68.075  1.00  0.00    -0.079 S  
HETATM   33  O   UNL     1      -9.533   2.479  67.992  1.00  0.00    -0.212 OA 
HETATM   34  O   UNL     1      -7.068   2.240  67.550  1.00  0.00    -0.046 OA 
BRANCH  32  35
HETATM   35  N   UNL     1      -7.926   3.304  69.707  1.00  0.00    -0.049 N  
HETATM   36  C   UNL     1      -8.244   3.604  72.110  1.00  0.00    -0.072 C  
HETATM   37  C   UNL     1     -10.000   4.399  70.555  1.00  0.00    -0.256 C  
HETATM   38  C   UNL     1      -9.619   1.926  70.898  1.00  0.00    -0.182 C  
HETATM   39  C   UNL     1      -8.958   3.298  70.774  1.00  0.00    -0.097 C  
HETATM   40  H   UNL     1      -6.970   3.514  69.992  1.00  0.00     0.000 HD 
ENDBRANCH  32  35
ENDBRANCH  31  32
ENDBRANCH  24  26
ENDBRANCH   6  24
TORSDOF 10
ENDMDL
MODEL      173
REMARK 921   NORMALIZED FREE ENERGY PREDICTED BY IDOCK:   -5.20 KCAL/MOL
REMARK 922        TOTAL FREE ENERGY PREDICTED BY IDOCK:   -9.58 KCAL/MOL
REMARK 923 INTER-LIGAND FREE ENERGY PREDICTED BY IDOCK:   -8.51 KCAL/MOL
REMARK 924 INTRA-LIGAND FREE ENERGY PREDICTED BY IDOCK:   -1.07 KCAL/MOL
REMARK 927      BINDING AFFINITY PREDICTED BY RF-SCORE:    0.00 PKD
ROOT
HETATM    1  C   UNL     1     -12.104  11.957  64.362  1.00  0.00    -0.305 C  
HETATM    2  C   UNL     1     -11.684  13.090  65.242  1.00  0.00    -0.388 A  
HETATM    3  C   UNL     1     -12.145  14.363  64.956  1.00  0.00    -0.415 A  
HETATM    4  N   UNL     1     -11.843  15.455  65.669  1.00  0.00     0.143 NA 
HETATM    5  C   UNL     1     -11.013  15.276  66.697  1.00  0.00    -0.297 A  
HETATM    6  C   UNL     1     -10.877  12.971  66.373  1.00  0.00    -0.278 A  
HETATM    7  N   UNL     1     -10.537  14.071  67.069  1.00  0.00    -0.278 NA 
ENDROOT
BRANCH   5   8
HETATM    8  N   UNL     1     -10.659  16.445  67.375  1.00  0.00    -0.317 NA 
HETATM    9  H   UNL     1     -11.205  16.643  68.213  1.00  0.00     0.000 HD 
BRANCH   8  10
HETATM   10  C   UNL     1      -9.665  17.385  67.074  1.00  0.00    -0.276 A  
HETATM   11  C   UNL     1      -9.916  18.751  67.125  1.00  0.00    -0.376 A  
HETATM   12  C   UNL     1      -7.452  17.890  66.168  1.00  0.00    -0.315 A  
HETATM   13  C   UNL     1      -7.744  19.251  66.171  1.00  0.00    -0.290 A  
HETATM   14  C   UNL     1      -8.975  19.675  66.686  1.00  0.00    -0.419 A  
HETATM   15  C   UNL     1      -8.408  16.962  66.614  1.00  0.00    -0.289 A  
BRANCH  13  16
HETATM   16  O   UNL     1      -6.805  20.107  65.638  1.00  0.00    -0.260 OA 
BRANCH  16  17
HETATM   17  C   UNL     1      -6.362  21.077  66.591  1.00  0.00    -0.296 C  
BRANCH  17  18
HETATM   18  C   UNL     1      -5.174  20.631  67.444  1.00  0.00    -0.185 C  
BRANCH  18  19
HETATM   19  N   UNL     1      -5.658  20.256  68.782  1.00  0.00    -0.247 NA 
HETATM   20  C   UNL     1      -5.189  21.137  69.859  1.00  0.00    -0.248 C  
HETATM   21  C   UNL     1      -5.293  18.900  69.170  1.00  0.00    -0.200 C  
HETATM   22  C   UNL     1      -5.240  20.289  71.122  1.00  0.00    -0.314 C  
HETATM   23  C   UNL     1      -5.651  18.904  70.647  1.00  0.00    -0.207 C  
ENDBRANCH  18  19
ENDBRANCH  17  18
ENDBRANCH  16  17
ENDBRANCH  13  16
ENDBRANCH   8  10
ENDBRANCH   5   8
BRANCH   6  24
HETATM   24  N   UNL     1     -10.339  11.702  66.711  1.00  0.00    -0.217 NA 
HETATM   25  H   UNL     1      -9.894  11.228  65.925  1.00  0.00     0.000 HD 
BRANCH  24  26
HETATM   26  C   UNL     1     -10.292  10.959  67.917  1.00  0.00    -0.187 A  
HETATM   27  C   UNL     1     -11.270  10.998  68.915  1.00  0.00    -0.326 A  
HETATM   28  C   UNL     1      -9.113  10.251  68.213  1.00  0.00    -0.139 A  
HETATM   29  C   UNL     1     -11.086  10.371  70.160  1.00  0.00    -0.383 A  
HETATM   30  C   UNL     1      -9.886   9.729  70.458  1.00  0.00    -0.228 A  
HETATM   31  C   UNL     1      -8.888   9.693  69.485  1.00  0.00    -0.190 A  
BRANCH  31  32
HETATM   32  S   UNL     1      -7.342   8.899  69.845  1.00  0.00    -0.058 S  
HETATM   33  O   UNL     1      -6.789   8.455  68.583  1.00  0.00    -0.061 OA 
HETATM   34  O   UNL     1      -6.583   9.763  70.721  1.00  0.00    -0.116 OA 
BRANCH  32  35
HETATM   35  N   UNL     1      -7.749   7.492  70.669  1.00  0.00    -0.089 N  
HETATM   36  C   UNL     1      -8.050   5.801  72.406  1.00  0.00    -0.107 C  
HETATM   37  C   UNL     1      -5.953   7.119  72.359  1.00  0.00    -0.041 C  
HETATM   38  C   UNL     1      -8.135   8.208  73.019  1.00  0.00    -0.230 C  
HETATM   39  C   UNL     1      -7.460   7.195  72.095  1.00  0.00    -0.085 C  
HETATM   40  H   UNL     1      -8.242   6.773  70.139  1.00  0.00     0.000 HD 
ENDBRANCH  32  35
ENDBRANCH  31  32
ENDBRANCH  24  26
ENDBRANCH   6  24
TORSDOF 10
ENDMDL
MODEL      174
REMARK 921   NORMALIZED FREE ENERGY PREDICTED BY IDOCK:   -5.16 KCAL/MOL
REMARK 922        TOTAL FREE ENERGY PREDICTED BY IDOCK:   -9.52 KCAL/MOL
REMARK 923 INTER-LIGAND FREE ENERGY PREDICTED BY IDOCK:   -9.30 KCAL/MOL
REMARK 924 INTRA-LIGAND FREE ENERGY PREDICTED BY IDOCK:   -0.23 KCAL/MOL
REMARK 927      BINDING AFFINITY PREDICTED BY RF-SCORE:    0.00 PKD
ROOT
HETATM    1  C   UNL     1     -12.308  15.583  71.534  1.00  0.00    -0.465 C  
HETATM    2  C   UNL     1     -12.455  14.135  71.194  1.00  0.00    -0.445 A  
HETATM    3  C   UNL     1     -13.428  13.394  71.842  1.00  0.00    -0.441 A  
HETATM    4  N   UNL     1     -13.659  12.093  71.624  1.00  0.00     0.024 NA 
HETATM    5  C   UNL     1     -12.859  11.493  70.742  1.00  0.00    -0.134 A  
HETATM    6  C   UNL     1     -11.706  13.455  70.235  1.00  0.00    -0.159 A  
HETATM    7  N   UNL     1     -11.906  12.139  70.041  1.00  0.00    -0.330 NA 
ENDROOT
BRANCH   5   8
HETATM    8  N   UNL     1     -13.077  10.121  70.591  1.00  0.00    -0.585 NA 
HETATM    9  H   UNL     1     -13.904   9.870  70.049  1.00  0.00     0.000 HD 
BRANCH   8  10
HETATM   10  C   UNL     1     -12.328   9.041  71.074  1.00  0.00    -0.193 A  
HETATM   11  C   UNL     1     -11.879   8.032  70.229  1.00  0.00     0.178 A  
HETATM   12  C   UNL     1     -11.473   7.751  72.966  1.00  0.00    -0.263 A  
HETATM   13  C   UNL     1     -11.084   6.724  72.109  1.00  0.00    -0.250 A  
HETATM   14  C   UNL     1     -11.264   6.891  70.731  1.00  0.00    -0.338 A  
HETATM   15  C   UNL     1     -12.094   8.902  72.451  1.00  0.00    -0.344 A  
BRANCH  13  16
HETATM   16  O   UNL     1     -10.564   5.581  72.677  1.00  0.00    -0.203 OA 
BRANCH  16  17
HETATM   17  C   UNL     1      -9.185   5.733  73.021  1.00  0.00    -0.140 C  
BRANCH  17  18
HETATM   18  C   UNL     1      -8.271   6.076  71.843  1.00  0.00    -0.115 C  
BRANCH  18  19
HETATM   19  N   UNL     1      -8.172   4.906  70.957  1.00  0.00    -0.101 NA 
HETATM   20  C   UNL     1      -9.190   4.866  69.899  1.00  0.00    -0.124 C  
HETATM   21  C   UNL     1      -8.263   3.635  71.664  1.00  0.00    -0.066 C  
HETATM   22  C   UNL     1      -9.329   3.396  69.532  1.00  0.00    -0.240 C  
HETATM   23  C   UNL     1      -8.427   2.660  70.510  1.00  0.00    -0.090 C  
ENDBRANCH  18  19
ENDBRANCH  17  18
ENDBRANCH  16  17
ENDBRANCH  13  16
ENDBRANCH   8  10
ENDBRANCH   5   8
BRANCH   6  24
HETATM   24  N   UNL     1     -10.667  14.140  69.552  1.00  0.00    -0.437 NA 
HETATM   25  H   UNL     1      -9.786  14.156  70.065  1.00  0.00     0.000 HD 
BRANCH  24  26
HETATM   26  C   UNL     1     -10.604  14.808  68.303  1.00  0.00    -0.241 A  
HETATM   27  C   UNL     1     -10.620  14.171  67.059  1.00  0.00    -0.276 A  
HETATM   28  C   UNL     1     -10.349  16.192  68.305  1.00  0.00    -0.266 A  
HETATM   29  C   UNL     1     -10.383  14.872  65.864  1.00  0.00    -0.330 A  
HETATM   30  C   UNL     1     -10.069  16.230  65.890  1.00  0.00    -0.381 A  
HETATM   31  C   UNL     1     -10.029  16.882  67.121  1.00  0.00    -0.276 A  
BRANCH  31  32
HETATM   32  S   UNL     1      -9.613  18.607  67.186  1.00  0.00    -0.307 S  
HETATM   33  O   UNL     1     -10.721  19.332  66.600  1.00  0.00    -0.432 OA 
HETATM   34  O   UNL     1      -9.154  18.912  68.522  1.00  0.00    -0.330 OA 
BRANCH  32  35
HETATM   35  N   UNL     1      -8.340  18.796  66.104  1.00  0.00    -0.236 N  
HETATM   36  C   UNL     1      -6.112  18.960  65.120  1.00  0.00    -0.317 C  
HETATM   37  C   UNL     1      -6.516  19.948  67.355  1.00  0.00    -0.227 C  
HETATM   38  C   UNL     1      -6.483  17.441  67.050  1.00  0.00    -0.204 C  
HETATM   39  C   UNL     1      -6.894  18.779  66.439  1.00  0.00    -0.213 C  
HETATM   40  H   UNL     1      -8.585  18.935  65.124  1.00  0.00     0.000 HD 
ENDBRANCH  32  35
ENDBRANCH  31  32
ENDBRANCH  24  26
ENDBRANCH   6  24
TORSDOF 10
ENDMDL
MODEL      175
REMARK 921   NORMALIZED FREE ENERGY PREDICTED BY IDOCK:   -5.16 KCAL/MOL
REMARK 922        TOTAL FREE ENERGY PREDICTED BY IDOCK:   -9.52 KCAL/MOL
REMARK 923 INTER-LIGAND FREE ENERGY PREDICTED BY IDOCK:   -7.85 KCAL/MOL
REMARK 924 INTRA-LIGAND FREE ENERGY PREDICTED BY IDOCK:   -1.67 KCAL/MOL
REMARK 927      BINDING AFFINITY PREDICTED BY RF-SCORE:    0.00 PKD
ROOT
HETATM    1  C   UNL     1      -9.411   3.098  68.470  1.00  0.00    -0.240 C  
HETATM    2  C   UNL     1      -9.197   4.390  67.749  1.00  0.00    -0.166 A  
HETATM    3  C   UNL     1     -10.104   4.768  66.775  1.00  0.00    -0.229 A  
HETATM    4  N   UNL     1     -10.023   5.899  66.063  1.00  0.00     0.021 NA 
HETATM    5  C   UNL     1      -8.968   6.676  66.310  1.00  0.00    -0.152 A  
HETATM    6  C   UNL     1      -8.159   5.287  67.999  1.00  0.00    -0.099 A  
HETATM    7  N   UNL     1      -8.050   6.405  67.260  1.00  0.00    -0.112 NA 
ENDROOT
BRANCH   5   8
HETATM    8  N   UNL     1      -8.873   7.810  65.501  1.00  0.00    -0.356 NA 
HETATM    9  H   UNL     1      -8.528   7.642  64.556  1.00  0.00     0.000 HD 
BRANCH   8  10
HETATM   10  C   UNL     1      -9.182   9.145  65.796  1.00  0.00    -0.234 A  
HETATM   11  C   UNL     1      -9.804   9.969  64.867  1.00  0.00    -0.352 A  
HETATM   12  C   UNL     1      -8.947  11.083  67.266  1.00  0.00    -0.138 A  
HETATM   13  C   UNL     1      -9.519  11.905  66.298  1.00  0.00    -0.227 A  
HETATM   14  C   UNL     1      -9.977  11.327  65.108  1.00  0.00    -0.312 A  
HETATM   15  C   UNL     1      -8.777   9.711  67.015  1.00  0.00    -0.135 A  
BRANCH  13  16
HETATM   16  O   UNL     1      -9.578  13.256  66.562  1.00  0.00    -0.258 OA 
BRANCH  16  17
HETATM   17  C   UNL     1     -10.645  13.894  65.857  1.00  0.00    -0.293 C  
BRANCH  17  18
HETATM   18  C   UNL     1     -11.717  14.514  66.754  1.00  0.00    -0.377 C  
BRANCH  18  19
HETATM   19  N   UNL     1     -11.380  14.245  68.161  1.00  0.00    -0.273 NA 
HETATM   20  C   UNL     1     -12.091  13.098  68.739  1.00  0.00    -0.191 C  
HETATM   21  C   UNL     1     -11.636  15.376  69.044  1.00  0.00    -0.347 C  
HETATM   22  C   UNL     1     -12.115  13.356  70.239  1.00  0.00    -0.419 C  
HETATM   23  C   UNL     1     -11.486  14.729  70.411  1.00  0.00    -0.303 C  
ENDBRANCH  18  19
ENDBRANCH  17  18
ENDBRANCH  16  17
ENDBRANCH  13  16
ENDBRANCH   8  10
ENDBRANCH   5   8
BRANCH   6  24
HETATM   24  N   UNL     1      -7.171   4.953  68.962  1.00  0.00    -0.053 NA 
HETATM   25  H   UNL     1      -6.429   4.358  68.592  1.00  0.00     0.000 HD 
BRANCH  24  26
HETATM   26  C   UNL     1      -7.003   5.277  70.331  1.00  0.00    -0.056 A  
HETATM   27  C   UNL     1      -6.123   4.626  71.201  1.00  0.00    -0.018 A  
HETATM   28  C   UNL     1      -7.887   6.210  70.904  1.00  0.00    -0.107 A  
HETATM   29  C   UNL     1      -6.124   4.879  72.584  1.00  0.00    -0.029 A  
HETATM   30  C   UNL     1      -7.050   5.759  73.141  1.00  0.00    -0.085 A  
HETATM   31  C   UNL     1      -7.950   6.406  72.296  1.00  0.00    -0.103 A  
BRANCH  31  32
HETATM   32  S   UNL     1      -9.153   7.516  72.982  1.00  0.00    -0.194 S  
HETATM   33  O   UNL     1      -9.232   7.233  74.400  1.00  0.00    -0.217 OA 
HETATM   34  O   UNL     1      -8.856   8.851  72.511  1.00  0.00    -0.381 OA 
BRANCH  32  35
HETATM   35  N   UNL     1     -10.627   7.019  72.348  1.00  0.00    -0.215 N  
HETATM   36  C   UNL     1     -12.754   6.946  71.150  1.00  0.00    -0.331 C  
HETATM   37  C   UNL     1     -12.096   9.034  72.308  1.00  0.00    -0.358 C  
HETATM   38  C   UNL     1     -10.879   8.288  70.225  1.00  0.00    -0.241 C  
HETATM   39  C   UNL     1     -11.549   7.838  71.522  1.00  0.00    -0.270 C  
HETATM   40  H   UNL     1     -10.917   6.062  72.549  1.00  0.00     0.000 HD 
ENDBRANCH  32  35
ENDBRANCH  31  32
ENDBRANCH  24  26
ENDBRANCH   6  24
TORSDOF 10
ENDMDL
MODEL      176
REMARK 921   NORMALIZED FREE ENERGY PREDICTED BY IDOCK:   -5.15 KCAL/MOL
REMARK 922        TOTAL FREE ENERGY PREDICTED BY IDOCK:   -9.51 KCAL/MOL
REMARK 923 INTER-LIGAND FREE ENERGY PREDICTED BY IDOCK:   -7.84 KCAL/MOL
REMARK 924 INTRA-LIGAND FREE ENERGY PREDICTED BY IDOCK:   -1.67 KCAL/MOL
REMARK 927      BINDING AFFINITY PREDICTED BY RF-SCORE:    0.00 PKD
ROOT
HETATM    1  C   UNL     1     -11.859  16.801  72.581  1.00  0.00    -0.092 C  
HETATM    2  C   UNL     1     -11.956  15.868  71.416  1.00  0.00    -0.515 A  
HETATM    3  C   UNL     1     -12.464  14.597  71.620  1.00  0.00    -0.345 A  
HETATM    4  N   UNL     1     -12.602  13.675  70.660  1.00  0.00    -0.319 NA 
HETATM    5  C   UNL     1     -12.183  14.024  69.443  1.00  0.00    -0.292 A  
HETATM    6  C   UNL     1     -11.604  16.183  70.105  1.00  0.00    -0.243 A  
HETATM    7  N   UNL     1     -11.703  15.248  69.144  1.00  0.00    -0.320 NA 
ENDROOT
BRANCH   5   8
HETATM    8  N   UNL     1     -12.272  13.016  68.481  1.00  0.00    -0.131 NA 
HETATM    9  H   UNL     1     -12.817  12.199  68.757  1.00  0.00     0.000 HD 
BRANCH   8  10
HETATM   10  C   UNL     1     -11.725  12.962  67.192  1.00  0.00    -0.377 A  
HETATM   11  C   UNL     1     -12.301  13.645  66.128  1.00  0.00    -0.476 A  
HETATM   12  C   UNL     1     -10.159  11.949  65.612  1.00  0.00    -0.274 A  
HETATM   13  C   UNL     1     -10.787  12.597  64.551  1.00  0.00    -0.336 A  
HETATM   14  C   UNL     1     -11.843  13.473  64.827  1.00  0.00    -0.412 A  
HETATM   15  C   UNL     1     -10.627  12.129  66.925  1.00  0.00    -0.257 A  
BRANCH  13  16
HETATM   16  O   UNL     1     -10.344  12.313  63.278  1.00  0.00    -0.413 OA 
BRANCH  16  17
HETATM   17  C   UNL     1      -9.140  11.543  63.288  1.00  0.00    -0.034 C  
BRANCH  17  18
HETATM   18  C   UNL     1      -9.201  10.259  62.460  1.00  0.00    -0.300 C  
BRANCH  18  19
HETATM   19  N   UNL     1      -8.158   9.334  62.932  1.00  0.00    -0.145 NA 
HETATM   20  C   UNL     1      -8.283   8.961  64.347  1.00  0.00    -0.164 C  
HETATM   21  C   UNL     1      -6.806   9.850  62.760  1.00  0.00    -0.120 C  
HETATM   22  C   UNL     1      -6.878   8.570  64.784  1.00  0.00    -0.072 C  
HETATM   23  C   UNL     1      -5.999   8.855  63.577  1.00  0.00    -0.080 C  
ENDBRANCH  18  19
ENDBRANCH  17  18
ENDBRANCH  16  17
ENDBRANCH  13  16
ENDBRANCH   8  10
ENDBRANCH   5   8
BRANCH   6  24
HETATM   24  N   UNL     1     -11.045  17.458  69.823  1.00  0.00     0.034 NA 
HETATM   25  H   UNL     1     -11.614  18.234  70.162  1.00  0.00     0.000 HD 
BRANCH  24  26
HETATM   26  C   UNL     1      -9.858  17.873  69.169  1.00  0.00    -0.153 A  
HETATM   27  C   UNL     1      -9.709  19.081  68.481  1.00  0.00    -0.458 A  
HETATM   28  C   UNL     1      -8.803  16.948  69.063  1.00  0.00    -0.159 A  
HETATM   29  C   UNL     1      -8.567  19.359  67.710  1.00  0.00    -0.349 A  
HETATM   30  C   UNL     1      -7.561  18.406  67.566  1.00  0.00    -0.226 A  
HETATM   31  C   UNL     1      -7.696  17.187  68.227  1.00  0.00    -0.220 A  
BRANCH  31  32
HETATM   32  S   UNL     1      -6.439  15.947  68.045  1.00  0.00    -0.146 S  
HETATM   33  O   UNL     1      -6.086  15.904  66.641  1.00  0.00    -0.128 OA 
HETATM   34  O   UNL     1      -5.428  16.176  69.054  1.00  0.00    -0.108 OA 
BRANCH  32  35
HETATM   35  N   UNL     1      -7.210  14.486  68.352  1.00  0.00    -0.107 N  
HETATM   36  C   UNL     1      -7.664  12.126  68.789  1.00  0.00    -0.034 C  
HETATM   37  C   UNL     1      -5.901  12.732  67.157  1.00  0.00     0.121 C  
HETATM   38  C   UNL     1      -5.554  13.137  69.626  1.00  0.00    -0.097 C  
HETATM   39  C   UNL     1      -6.558  13.158  68.474  1.00  0.00    -0.088 C  
HETATM   40  H   UNL     1      -8.223  14.514  68.467  1.00  0.00     0.000 HD 
ENDBRANCH  32  35
ENDBRANCH  31  32
ENDBRANCH  24  26
ENDBRANCH   6  24
TORSDOF 10
ENDMDL
MODEL      177
REMARK 921   NORMALIZED FREE ENERGY PREDICTED BY IDOCK:   -5.13 KCAL/MOL
REMARK 922        TOTAL FREE ENERGY PREDICTED BY IDOCK:   -9.48 KCAL/MOL
REMARK 923 INTER-LIGAND FREE ENERGY PREDICTED BY IDOCK:   -7.70 KCAL/MOL
REMARK 924 INTRA-LIGAND FREE ENERGY PREDICTED BY IDOCK:   -1.78 KCAL/MOL
REMARK 927      BINDING AFFINITY PREDICTED BY RF-SCORE:    0.00 PKD
ROOT
HETATM    1  C   UNL     1     -10.382  17.631  68.735  1.00  0.00    -0.348 C  
HETATM    2  C   UNL     1      -9.966  16.260  68.306  1.00  0.00    -0.236 A  
HETATM    3  C   UNL     1      -9.337  16.106  67.084  1.00  0.00    -0.215 A  
HETATM    4  N   UNL     1      -8.916  14.934  66.592  1.00  0.00    -0.270 NA 
HETATM    5  C   UNL     1      -9.165  13.858  67.339  1.00  0.00    -0.224 A  
HETATM    6  C   UNL     1     -10.128  15.100  69.062  1.00  0.00    -0.244 A  
HETATM    7  N   UNL     1      -9.744  13.914  68.555  1.00  0.00    -0.220 NA 
ENDROOT
BRANCH   5   8
HETATM    8  N   UNL     1      -8.780  12.644  66.766  1.00  0.00    -0.349 NA 
HETATM    9  H   UNL     1      -9.211  12.433  65.866  1.00  0.00     0.000 HD 
BRANCH   8  10
HETATM   10  C   UNL     1      -7.889  11.674  67.244  1.00  0.00    -0.157 A  
HETATM   11  C   UNL     1      -7.741  10.448  66.609  1.00  0.00    -0.117 A  
HETATM   12  C   UNL     1      -6.409  10.867  69.014  1.00  0.00    -0.049 A  
HETATM   13  C   UNL     1      -6.320   9.624  68.393  1.00  0.00    -0.051 A  
HETATM   14  C   UNL     1      -6.968   9.435  67.166  1.00  0.00    -0.085 A  
HETATM   15  C   UNL     1      -7.191  11.886  68.443  1.00  0.00    -0.091 A  
BRANCH  13  16
HETATM   16  O   UNL     1      -5.613   8.635  69.042  1.00  0.00    -0.038 OA 
BRANCH  16  17
HETATM   17  C   UNL     1      -6.474   7.647  69.612  1.00  0.00    -0.031 C  
BRANCH  17  18
HETATM   18  C   UNL     1      -5.970   6.210  69.475  1.00  0.00    -0.025 C  
BRANCH  18  19
HETATM   19  N   UNL     1      -7.115   5.321  69.225  1.00  0.00    -0.055 NA 
HETATM   20  C   UNL     1      -8.295   6.003  68.677  1.00  0.00    -0.113 C  
HETATM   21  C   UNL     1      -7.566   4.610  70.414  1.00  0.00    -0.054 C  
HETATM   22  C   UNL     1      -9.480   5.133  69.072  1.00  0.00    -0.186 C  
HETATM   23  C   UNL     1      -8.888   4.032  69.936  1.00  0.00    -0.138 C  
ENDBRANCH  18  19
ENDBRANCH  17  18
ENDBRANCH  16  17
ENDBRANCH  13  16
ENDBRANCH   8  10
ENDBRANCH   5   8
BRANCH   6  24
HETATM   24  N   UNL     1     -10.795  15.174  70.313  1.00  0.00    -0.413 NA 
HETATM   25  H   UNL     1     -10.358  15.823  70.968  1.00  0.00     0.000 HD 
BRANCH  24  26
HETATM   26  C   UNL     1     -11.942  14.531  70.840  1.00  0.00    -0.325 A  
HETATM   27  C   UNL     1     -12.895  15.146  71.657  1.00  0.00    -0.439 A  
HETATM   28  C   UNL     1     -12.060  13.139  70.665  1.00  0.00    -0.346 A  
HETATM   29  C   UNL     1     -13.917  14.413  72.286  1.00  0.00    -0.610 A  
HETATM   30  C   UNL     1     -13.979  13.027  72.152  1.00  0.00    -0.335 A  
HETATM   31  C   UNL     1     -13.029  12.390  71.357  1.00  0.00    -0.250 A  
BRANCH  31  32
HETATM   32  S   UNL     1     -13.074  10.624  71.185  1.00  0.00    -0.251 S  
HETATM   33  O   UNL     1     -13.764  10.102  72.346  1.00  0.00    -0.252 OA 
HETATM   34  O   UNL     1     -13.534  10.311  69.850  1.00  0.00     0.170 OA 
BRANCH  32  35
HETATM   35  N   UNL     1     -11.479  10.122  71.355  1.00  0.00    -0.266 N  
HETATM   36  C   UNL     1      -9.322   9.026  71.019  1.00  0.00    -0.339 C  
HETATM   37  C   UNL     1     -11.401   7.747  70.598  1.00  0.00    -0.275 C  
HETATM   38  C   UNL     1     -10.711   9.615  69.045  1.00  0.00    -0.232 C  
HETATM   39  C   UNL     1     -10.772   9.140  70.496  1.00  0.00    -0.238 C  
HETATM   40  H   UNL     1     -10.946  10.531  72.122  1.00  0.00     0.000 HD 
ENDBRANCH  32  35
ENDBRANCH  31  32
ENDBRANCH  24  26
ENDBRANCH   6  24
TORSDOF 10
ENDMDL
MODEL      178
REMARK 921   NORMALIZED FREE ENERGY PREDICTED BY IDOCK:   -5.12 KCAL/MOL
REMARK 922        TOTAL FREE ENERGY PREDICTED BY IDOCK:   -9.46 KCAL/MOL
REMARK 923 INTER-LIGAND FREE ENERGY PREDICTED BY IDOCK:   -8.79 KCAL/MOL
REMARK 924 INTRA-LIGAND FREE ENERGY PREDICTED BY IDOCK:   -0.67 KCAL/MOL
REMARK 927      BINDING AFFINITY PREDICTED BY RF-SCORE:    0.00 PKD
ROOT
HETATM    1  C   UNL     1     -10.474   7.721  67.154  1.00  0.00    -0.413 C  
HETATM    2  C   UNL     1     -10.526   9.087  67.760  1.00  0.00    -0.305 A  
HETATM    3  C   UNL     1     -10.138  10.172  66.994  1.00  0.00    -0.223 A  
HETATM    4  N   UNL     1     -10.143  11.441  67.422  1.00  0.00    -0.182 NA 
HETATM    5  C   UNL     1     -10.521  11.635  68.686  1.00  0.00    -0.213 A  
HETATM    6  C   UNL     1     -10.975   9.377  69.048  1.00  0.00    -0.067 A  
HETATM    7  N   UNL     1     -10.944  10.644  69.497  1.00  0.00    -0.254 NA 
ENDROOT
BRANCH   5   8
HETATM    8  N   UNL     1     -10.446  12.959  69.124  1.00  0.00    -0.433 NA 
HETATM    9  H   UNL     1     -10.685  13.106  70.104  1.00  0.00     0.000 HD 
BRANCH   8  10
HETATM   10  C   UNL     1     -10.089  14.114  68.415  1.00  0.00    -0.238 A  
HETATM   11  C   UNL     1     -11.038  15.057  68.038  1.00  0.00    -0.304 A  
HETATM   12  C   UNL     1      -8.423  15.373  67.145  1.00  0.00    -0.241 A  
HETATM   13  C   UNL     1      -9.400  16.275  66.729  1.00  0.00    -0.237 A  
HETATM   14  C   UNL     1     -10.705  16.124  67.212  1.00  0.00    -0.277 A  
HETATM   15  C   UNL     1      -8.767  14.297  67.981  1.00  0.00    -0.177 A  
BRANCH  13  16
HETATM   16  O   UNL     1      -9.024  17.256  65.838  1.00  0.00    -0.519 OA 
BRANCH  16  17
HETATM   17  C   UNL     1      -8.102  18.182  66.417  1.00  0.00    -0.261 C  
BRANCH  17  18
HETATM   18  C   UNL     1      -8.494  18.685  67.807  1.00  0.00    -0.275 C  
BRANCH  18  19
HETATM   19  N   UNL     1      -7.671  19.856  68.143  1.00  0.00    -0.299 NA 
HETATM   20  C   UNL     1      -7.034  20.495  66.984  1.00  0.00    -0.293 C  
HETATM   21  C   UNL     1      -6.602  19.561  69.089  1.00  0.00    -0.327 C  
HETATM   22  C   UNL     1      -5.811  21.210  67.541  1.00  0.00    -0.400 C  
HETATM   23  C   UNL     1      -5.774  20.833  69.014  1.00  0.00    -0.401 C  
ENDBRANCH  18  19
ENDBRANCH  17  18
ENDBRANCH  16  17
ENDBRANCH  13  16
ENDBRANCH   8  10
ENDBRANCH   5   8
BRANCH   6  24
HETATM   24  N   UNL     1     -11.360   8.312  69.905  1.00  0.00    -0.454 NA 
HETATM   25  H   UNL     1     -12.210   7.835  69.604  1.00  0.00     0.000 HD 
BRANCH  24  26
HETATM   26  C   UNL     1     -10.804   7.775  71.093  1.00  0.00    -0.235 A  
HETATM   27  C   UNL     1     -11.411   7.830  72.351  1.00  0.00    -0.418 A  
HETATM   28  C   UNL     1      -9.484   7.291  71.047  1.00  0.00    -0.158 A  
HETATM   29  C   UNL     1     -10.736   7.432  73.519  1.00  0.00    -0.347 A  
HETATM   30  C   UNL     1      -9.408   7.016  73.461  1.00  0.00    -0.211 A  
HETATM   31  C   UNL     1      -8.776   6.971  72.219  1.00  0.00    -0.125 A  
BRANCH  31  32
HETATM   32  S   UNL     1      -7.078   6.463  72.120  1.00  0.00    -0.079 S  
HETATM   33  O   UNL     1      -6.375   7.478  71.364  1.00  0.00    -0.036 OA 
HETATM   34  O   UNL     1      -6.638   6.092  73.446  1.00  0.00    -0.071 OA 
BRANCH  32  35
HETATM   35  N   UNL     1      -7.080   5.101  71.134  1.00  0.00    -0.061 N  
HETATM   36  C   UNL     1      -7.345   2.825  70.289  1.00  0.00    -0.040 C  
HETATM   37  C   UNL     1      -6.543   3.162  72.608  1.00  0.00    -0.022 C  
HETATM   38  C   UNL     1      -8.936   3.686  71.993  1.00  0.00    -0.145 C  
HETATM   39  C   UNL     1      -7.479   3.729  71.535  1.00  0.00    -0.052 C  
HETATM   40  H   UNL     1      -6.779   5.230  70.168  1.00  0.00     0.000 HD 
ENDBRANCH  32  35
ENDBRANCH  31  32
ENDBRANCH  24  26
ENDBRANCH   6  24
TORSDOF 10
ENDMDL
MODEL      179
REMARK 921   NORMALIZED FREE ENERGY PREDICTED BY IDOCK:   -5.12 KCAL/MOL
REMARK 922        TOTAL FREE ENERGY PREDICTED BY IDOCK:   -9.46 KCAL/MOL
REMARK 923 INTER-LIGAND FREE ENERGY PREDICTED BY IDOCK:   -7.61 KCAL/MOL
REMARK 924 INTRA-LIGAND FREE ENERGY PREDICTED BY IDOCK:   -1.85 KCAL/MOL
REMARK 927      BINDING AFFINITY PREDICTED BY RF-SCORE:    0.00 PKD
ROOT
HETATM    1  C   UNL     1      -9.505   4.363  63.902  1.00  0.00    -0.077 C  
HETATM    2  C   UNL     1      -9.436   4.103  65.373  1.00  0.00    -0.173 A  
HETATM    3  C   UNL     1      -9.140   2.824  65.811  1.00  0.00    -0.125 A  
HETATM    4  N   UNL     1      -9.048   2.467  67.098  1.00  0.00    -0.155 NA 
HETATM    5  C   UNL     1      -9.296   3.424  67.994  1.00  0.00    -0.187 A  
HETATM    6  C   UNL     1      -9.614   5.064  66.367  1.00  0.00    -0.164 A  
HETATM    7  N   UNL     1      -9.563   4.703  67.662  1.00  0.00    -0.153 NA 
ENDROOT
BRANCH   5   8
HETATM    8  N   UNL     1      -9.264   3.003  69.325  1.00  0.00    -0.139 NA 
HETATM    9  H   UNL     1      -9.380   2.000  69.466  1.00  0.00     0.000 HD 
BRANCH   8  10
HETATM   10  C   UNL     1      -9.096   3.756  70.495  1.00  0.00    -0.119 A  
HETATM   11  C   UNL     1      -7.868   4.312  70.831  1.00  0.00    -0.063 A  
HETATM   12  C   UNL     1      -9.959   4.509  72.654  1.00  0.00    -0.217 A  
HETATM   13  C   UNL     1      -8.705   5.007  72.998  1.00  0.00    -0.113 A  
HETATM   14  C   UNL     1      -7.669   4.932  72.059  1.00  0.00    -0.100 A  
HETATM   15  C   UNL     1     -10.153   3.885  71.410  1.00  0.00    -0.124 A  
BRANCH  13  16
HETATM   16  O   UNL     1      -8.550   5.528  74.264  1.00  0.00    -0.118 OA 
BRANCH  16  17
HETATM   17  C   UNL     1      -8.223   6.919  74.237  1.00  0.00    -0.138 C  
BRANCH  17  18
HETATM   18  C   UNL     1      -9.365   7.830  73.785  1.00  0.00    -0.225 C  
BRANCH  18  19
HETATM   19  N   UNL     1      -9.263   8.043  72.333  1.00  0.00    -0.179 NA 
HETATM   20  C   UNL     1      -7.999   8.653  71.903  1.00  0.00    -0.076 C  
HETATM   21  C   UNL     1     -10.328   8.880  71.794  1.00  0.00    -0.356 C  
HETATM   22  C   UNL     1      -8.313   9.341  70.582  1.00  0.00    -0.245 C  
HETATM   23  C   UNL     1      -9.811   9.159  70.392  1.00  0.00    -0.263 C  
ENDBRANCH  18  19
ENDBRANCH  17  18
ENDBRANCH  16  17
ENDBRANCH  13  16
ENDBRANCH   8  10
ENDBRANCH   5   8
BRANCH   6  24
HETATM   24  N   UNL     1      -9.953   6.392  65.996  1.00  0.00    -0.391 NA 
HETATM   25  H   UNL     1     -10.829   6.457  65.478  1.00  0.00     0.000 HD 
BRANCH  24  26
HETATM   26  C   UNL     1      -9.324   7.646  66.198  1.00  0.00    -0.080 A  
HETATM   27  C   UNL     1      -7.954   7.824  66.411  1.00  0.00    -0.099 A  
HETATM   28  C   UNL     1     -10.143   8.779  66.354  1.00  0.00    -0.313 A  
HETATM   29  C   UNL     1      -7.415   9.071  66.774  1.00  0.00    -0.086 A  
HETATM   30  C   UNL     1      -8.249  10.167  66.986  1.00  0.00    -0.118 A  
HETATM   31  C   UNL     1      -9.621  10.008  66.798  1.00  0.00    -0.181 A  
BRANCH  31  32
HETATM   32  S   UNL     1     -10.708  11.383  67.080  1.00  0.00    -0.263 S  
HETATM   33  O   UNL     1     -11.713  10.942  68.025  1.00  0.00    -0.540 OA 
HETATM   34  O   UNL     1      -9.899  12.551  67.353  1.00  0.00    -0.197 OA 
BRANCH  32  35
HETATM   35  N   UNL     1     -11.530  11.602  65.631  1.00  0.00    -0.189 N  
HETATM   36  C   UNL     1     -12.105  12.203  63.335  1.00  0.00    -0.608 C  
HETATM   37  C   UNL     1     -10.708  13.752  64.671  1.00  0.00    -0.427 C  
HETATM   38  C   UNL     1      -9.770  11.546  63.875  1.00  0.00    -0.279 C  
HETATM   39  C   UNL     1     -11.002  12.271  64.415  1.00  0.00    -0.329 C  
HETATM   40  H   UNL     1     -12.483  11.242  65.582  1.00  0.00     0.000 HD 
ENDBRANCH  32  35
ENDBRANCH  31  32
ENDBRANCH  24  26
ENDBRANCH   6  24
TORSDOF 10
ENDMDL
MODEL      180
REMARK 921   NORMALIZED FREE ENERGY PREDICTED BY IDOCK:   -5.11 KCAL/MOL
REMARK 922        TOTAL FREE ENERGY PREDICTED BY IDOCK:   -9.45 KCAL/MOL
REMARK 923 INTER-LIGAND FREE ENERGY PREDICTED BY IDOCK:   -8.34 KCAL/MOL
REMARK 924 INTRA-LIGAND FREE ENERGY PREDICTED BY IDOCK:   -1.11 KCAL/MOL
REMARK 927      BINDING AFFINITY PREDICTED BY RF-SCORE:    0.00 PKD
ROOT
HETATM    1  C   UNL     1      -6.377  10.336  64.631  1.00  0.00    -0.108 C  
HETATM    2  C   UNL     1      -7.488   9.512  65.199  1.00  0.00    -0.109 A  
HETATM    3  C   UNL     1      -7.302   8.147  65.338  1.00  0.00    -0.069 A  
HETATM    4  N   UNL     1      -8.218   7.306  65.834  1.00  0.00    -0.125 NA 
HETATM    5  C   UNL     1      -9.388   7.845  66.177  1.00  0.00    -0.125 A  
HETATM    6  C   UNL     1      -8.711  10.011  65.645  1.00  0.00    -0.155 A  
HETATM    7  N   UNL     1      -9.649   9.166  66.106  1.00  0.00    -0.246 NA 
ENDROOT
BRANCH   5   8
HETATM    8  N   UNL     1     -10.346   6.931  66.622  1.00  0.00    -0.452 NA 
HETATM    9  H   UNL     1     -11.121   6.766  65.979  1.00  0.00     0.000 HD 
BRANCH   8  10
HETATM   10  C   UNL     1     -10.400   6.207  67.820  1.00  0.00    -0.198 A  
HETATM   11  C   UNL     1     -10.999   6.731  68.960  1.00  0.00    -0.281 A  
HETATM   12  C   UNL     1      -9.675   4.293  69.157  1.00  0.00    -0.226 A  
HETATM   13  C   UNL     1     -10.230   4.862  70.300  1.00  0.00    -0.229 A  
HETATM   14  C   UNL     1     -10.923   6.073  70.182  1.00  0.00    -0.429 A  
HETATM   15  C   UNL     1      -9.758   4.963  67.924  1.00  0.00    -0.202 A  
BRANCH  13  16
HETATM   16  O   UNL     1     -10.041   4.205  71.497  1.00  0.00    -0.179 OA 
BRANCH  16  17
HETATM   17  C   UNL     1      -9.421   5.042  72.475  1.00  0.00    -0.142 C  
BRANCH  17  18
HETATM   18  C   UNL     1      -8.111   4.493  73.041  1.00  0.00    -0.096 C  
BRANCH  18  19
HETATM   19  N   UNL     1      -7.103   5.564  73.044  1.00  0.00    -0.084 NA 
HETATM   20  C   UNL     1      -7.013   6.300  74.312  1.00  0.00    -0.086 C  
HETATM   21  C   UNL     1      -7.315   6.562  72.004  1.00  0.00    -0.091 C  
HETATM   22  C   UNL     1      -6.446   7.664  73.945  1.00  0.00    -0.087 C  
HETATM   23  C   UNL     1      -6.344   7.651  72.428  1.00  0.00    -0.051 C  
ENDBRANCH  18  19
ENDBRANCH  17  18
ENDBRANCH  16  17
ENDBRANCH  13  16
ENDBRANCH   8  10
ENDBRANCH   5   8
BRANCH   6  24
HETATM   24  N   UNL     1      -8.987  11.397  65.505  1.00  0.00    -0.367 NA 
HETATM   25  H   UNL     1      -8.263  11.905  64.997  1.00  0.00     0.000 HD 
BRANCH  24  26
HETATM   26  C   UNL     1     -10.062  12.218  65.926  1.00  0.00    -0.251 A  
HETATM   27  C   UNL     1     -11.338  12.215  65.355  1.00  0.00    -0.388 A  
HETATM   28  C   UNL     1      -9.795  13.220  66.878  1.00  0.00    -0.247 A  
HETATM   29  C   UNL     1     -12.309  13.170  65.703  1.00  0.00    -0.519 A  
HETATM   30  C   UNL     1     -12.005  14.193  66.600  1.00  0.00    -0.470 A  
HETATM   31  C   UNL     1     -10.733  14.228  67.168  1.00  0.00    -0.282 A  
BRANCH  31  32
HETATM   32  S   UNL     1     -10.315  15.531  68.299  1.00  0.00    -0.239 S  
HETATM   33  O   UNL     1     -11.555  16.008  68.875  1.00  0.00    -0.372 OA 
HETATM   34  O   UNL     1      -9.238  15.067  69.145  1.00  0.00    -0.203 OA 
BRANCH  32  35
HETATM   35  N   UNL     1      -9.761  16.792  67.336  1.00  0.00    -0.242 N  
HETATM   36  C   UNL     1      -8.353  18.484  66.278  1.00  0.00    -0.235 C  
HETATM   37  C   UNL     1      -8.090  18.042  68.701  1.00  0.00    -0.293 C  
HETATM   38  C   UNL     1      -7.340  16.332  66.999  1.00  0.00    -0.264 C  
HETATM   39  C   UNL     1      -8.397  17.377  67.355  1.00  0.00    -0.205 C  
HETATM   40  H   UNL     1     -10.425  17.193  66.674  1.00  0.00     0.000 HD 
ENDBRANCH  32  35
ENDBRANCH  31  32
ENDBRANCH  24  26
ENDBRANCH   6  24
TORSDOF 10
ENDMDL
MODEL      181
REMARK 921   NORMALIZED FREE ENERGY PREDICTED BY IDOCK:   -5.11 KCAL/MOL
REMARK 922        TOTAL FREE ENERGY PREDICTED BY IDOCK:   -9.44 KCAL/MOL
REMARK 923 INTER-LIGAND FREE ENERGY PREDICTED BY IDOCK:   -8.23 KCAL/MOL
REMARK 924 INTRA-LIGAND FREE ENERGY PREDICTED BY IDOCK:   -1.21 KCAL/MOL
REMARK 927      BINDING AFFINITY PREDICTED BY RF-SCORE:    0.00 PKD
ROOT
HETATM    1  C   UNL     1     -13.896   9.066  72.365  1.00  0.00    -0.540 C  
HETATM    2  C   UNL     1     -12.481   8.848  71.934  1.00  0.00    -0.445 A  
HETATM    3  C   UNL     1     -11.836   7.687  72.323  1.00  0.00    -0.308 A  
HETATM    4  N   UNL     1     -10.574   7.377  72.000  1.00  0.00    -0.205 NA 
HETATM    5  C   UNL     1      -9.911   8.284  71.282  1.00  0.00    -0.175 A  
HETATM    6  C   UNL     1     -11.745   9.715  71.128  1.00  0.00    -0.372 A  
HETATM    7  N   UNL     1     -10.464   9.428  70.833  1.00  0.00    -0.288 NA 
ENDROOT
BRANCH   5   8
HETATM    8  N   UNL     1      -8.576   7.965  71.024  1.00  0.00    -0.128 NA 
HETATM    9  H   UNL     1      -7.964   7.964  71.840  1.00  0.00     0.000 HD 
BRANCH   8  10
HETATM   10  C   UNL     1      -7.954   7.645  69.810  1.00  0.00    -0.116 A  
HETATM   11  C   UNL     1      -6.589   7.396  69.736  1.00  0.00    -0.039 A  
HETATM   12  C   UNL     1      -8.051   7.491  67.372  1.00  0.00    -0.116 A  
HETATM   13  C   UNL     1      -6.673   7.302  67.314  1.00  0.00    -0.068 A  
HETATM   14  C   UNL     1      -5.952   7.223  68.512  1.00  0.00    -0.027 A  
HETATM   15  C   UNL     1      -8.688   7.664  68.613  1.00  0.00    -0.128 A  
BRANCH  13  16
HETATM   16  O   UNL     1      -6.090   7.229  66.068  1.00  0.00    -0.036 OA 
BRANCH  16  17
HETATM   17  C   UNL     1      -6.836   6.399  65.175  1.00  0.00    -0.047 C  
BRANCH  17  18
HETATM   18  C   UNL     1      -6.415   4.929  65.174  1.00  0.00    -0.036 C  
BRANCH  18  19
HETATM   19  N   UNL     1      -7.580   4.097  65.517  1.00  0.00    -0.084 NA 
HETATM   20  C   UNL     1      -8.860   4.627  65.029  1.00  0.00    -0.150 C  
HETATM   21  C   UNL     1      -7.740   3.888  66.950  1.00  0.00    -0.085 C  
HETATM   22  C   UNL     1      -9.915   4.043  65.958  1.00  0.00    -0.138 C  
HETATM   23  C   UNL     1      -9.130   3.278  67.011  1.00  0.00    -0.196 C  
ENDBRANCH  18  19
ENDBRANCH  17  18
ENDBRANCH  16  17
ENDBRANCH  13  16
ENDBRANCH   8  10
ENDBRANCH   5   8
BRANCH   6  24
HETATM   24  N   UNL     1     -12.328  10.942  70.716  1.00  0.00    -0.357 NA 
HETATM   25  H   UNL     1     -13.062  11.273  71.343  1.00  0.00     0.000 HD 
BRANCH  24  26
HETATM   26  C   UNL     1     -12.099  11.803  69.613  1.00  0.00    -0.258 A  
HETATM   27  C   UNL     1     -11.849  11.373  68.307  1.00  0.00    -0.320 A  
HETATM   28  C   UNL     1     -11.957  13.180  69.866  1.00  0.00    -0.387 A  
HETATM   29  C   UNL     1     -11.462  12.267  67.293  1.00  0.00    -0.426 A  
HETATM   30  C   UNL     1     -11.264  13.617  67.578  1.00  0.00    -0.316 A  
HETATM   31  C   UNL     1     -11.490  14.065  68.878  1.00  0.00    -0.294 A  
BRANCH  31  32
HETATM   32  S   UNL     1     -11.227  15.776  69.272  1.00  0.00    -0.352 S  
HETATM   33  O   UNL     1     -11.569  16.541  68.091  1.00  0.00    -0.170 OA 
HETATM   34  O   UNL     1     -11.865  16.051  70.541  1.00  0.00    -0.359 OA 
BRANCH  32  35
HETATM   35  N   UNL     1      -9.563  15.941  69.439  1.00  0.00    -0.266 N  
HETATM   36  C   UNL     1      -7.231  16.588  69.111  1.00  0.00    -0.226 C  
HETATM   37  C   UNL     1      -8.632  16.086  67.130  1.00  0.00    -0.219 C  
HETATM   38  C   UNL     1      -9.037  18.177  68.488  1.00  0.00    -0.318 C  
HETATM   39  C   UNL     1      -8.661  16.697  68.535  1.00  0.00    -0.234 C  
HETATM   40  H   UNL     1      -9.132  15.477  70.239  1.00  0.00     0.000 HD 
ENDBRANCH  32  35
ENDBRANCH  31  32
ENDBRANCH  24  26
ENDBRANCH   6  24
TORSDOF 10
ENDMDL
MODEL      182
REMARK 921   NORMALIZED FREE ENERGY PREDICTED BY IDOCK:   -5.10 KCAL/MOL
REMARK 922        TOTAL FREE ENERGY PREDICTED BY IDOCK:   -9.43 KCAL/MOL
REMARK 923 INTER-LIGAND FREE ENERGY PREDICTED BY IDOCK:   -9.00 KCAL/MOL
REMARK 924 INTRA-LIGAND FREE ENERGY PREDICTED BY IDOCK:   -0.43 KCAL/MOL
REMARK 927      BINDING AFFINITY PREDICTED BY RF-SCORE:    0.00 PKD
ROOT
HETATM    1  C   UNL     1      -6.744   7.470  70.760  1.00  0.00    -0.043 C  
HETATM    2  C   UNL     1      -7.970   8.208  70.325  1.00  0.00    -0.103 A  
HETATM    3  C   UNL     1      -8.916   8.547  71.275  1.00  0.00    -0.192 A  
HETATM    4  N   UNL     1     -10.051   9.208  71.011  1.00  0.00    -0.278 NA 
HETATM    5  C   UNL     1     -10.268   9.517  69.733  1.00  0.00    -0.228 A  
HETATM    6  C   UNL     1      -8.234   8.626  69.022  1.00  0.00    -0.122 A  
HETATM    7  N   UNL     1      -9.390   9.255  68.744  1.00  0.00    -0.138 NA 
ENDROOT
BRANCH   5   8
HETATM    8  N   UNL     1     -11.492  10.141  69.480  1.00  0.00    -0.395 NA 
HETATM    9  H   UNL     1     -12.293   9.513  69.410  1.00  0.00     0.000 HD 
BRANCH   8  10
HETATM   10  C   UNL     1     -11.782  11.501  69.310  1.00  0.00    -0.330 A  
HETATM   11  C   UNL     1     -11.642  12.125  68.077  1.00  0.00    -0.411 A  
HETATM   12  C   UNL     1     -12.281  13.685  70.289  1.00  0.00    -0.423 A  
HETATM   13  C   UNL     1     -12.078  14.300  69.056  1.00  0.00    -0.285 A  
HETATM   14  C   UNL     1     -11.789  13.501  67.943  1.00  0.00    -0.397 A  
HETATM   15  C   UNL     1     -12.131  12.293  70.415  1.00  0.00    -0.385 A  
BRANCH  13  16
HETATM   16  O   UNL     1     -12.149  15.675  69.010  1.00  0.00    -0.337 OA 
BRANCH  16  17
HETATM   17  C   UNL     1     -11.103  16.240  68.216  1.00  0.00    -0.346 C  
BRANCH  17  18
HETATM   18  C   UNL     1     -10.230  17.259  68.948  1.00  0.00    -0.349 C  
BRANCH  18  19
HETATM   19  N   UNL     1     -10.308  18.550  68.246  1.00  0.00    -0.366 NA 
HETATM   20  C   UNL     1     -10.725  18.444  66.842  1.00  0.00    -0.266 C  
HETATM   21  C   UNL     1      -9.050  19.287  68.247  1.00  0.00    -0.345 C  
HETATM   22  C   UNL     1     -10.160  19.683  66.161  1.00  0.00    -0.574 C  
HETATM   23  C   UNL     1      -9.343  20.382  67.236  1.00  0.00    -0.547 C  
ENDBRANCH  18  19
ENDBRANCH  17  18
ENDBRANCH  16  17
ENDBRANCH  13  16
ENDBRANCH   8  10
ENDBRANCH   5   8
BRANCH   6  24
HETATM   24  N   UNL     1      -7.325   8.287  67.986  1.00  0.00    -0.094 NA 
HETATM   25  H   UNL     1      -6.648   9.023  67.782  1.00  0.00     0.000 HD 
BRANCH  24  26
HETATM   26  C   UNL     1      -7.163   7.135  67.177  1.00  0.00    -0.085 A  
HETATM   27  C   UNL     1      -6.027   6.852  66.412  1.00  0.00    -0.034 A  
HETATM   28  C   UNL     1      -8.274   6.290  66.999  1.00  0.00    -0.109 A  
HETATM   29  C   UNL     1      -5.994   5.782  65.500  1.00  0.00    -0.028 A  
HETATM   30  C   UNL     1      -7.125   4.996  65.291  1.00  0.00    -0.063 A  
HETATM   31  C   UNL     1      -8.276   5.271  66.028  1.00  0.00    -0.115 A  
BRANCH  31  32
HETATM   32  S   UNL     1      -9.737   4.297  65.767  1.00  0.00    -0.220 S  
HETATM   33  O   UNL     1     -10.847   5.040  66.326  1.00  0.00    -0.285 OA 
HETATM   34  O   UNL     1      -9.754   3.869  64.386  1.00  0.00    -0.160 OA 
BRANCH  32  35
HETATM   35  N   UNL     1      -9.557   2.955  66.763  1.00  0.00    -0.408 N  
HETATM   36  C   UNL     1      -9.002   1.487  68.634  1.00  0.00    -0.151 C  
HETATM   37  C   UNL     1      -7.401   3.260  67.978  1.00  0.00    -0.054 C  
HETATM   38  C   UNL     1      -9.595   3.858  69.078  1.00  0.00    -0.209 C  
HETATM   39  C   UNL     1      -8.893   2.929  68.089  1.00  0.00    -0.127 C  
HETATM   40  H   UNL     1      -9.942   2.073  66.422  1.00  0.00     0.000 HD 
ENDBRANCH  32  35
ENDBRANCH  31  32
ENDBRANCH  24  26
ENDBRANCH   6  24
TORSDOF 10
ENDMDL
MODEL      183
REMARK 921   NORMALIZED FREE ENERGY PREDICTED BY IDOCK:   -5.08 KCAL/MOL
REMARK 922        TOTAL FREE ENERGY PREDICTED BY IDOCK:   -9.40 KCAL/MOL
REMARK 923 INTER-LIGAND FREE ENERGY PREDICTED BY IDOCK:   -7.82 KCAL/MOL
REMARK 924 INTRA-LIGAND FREE ENERGY PREDICTED BY IDOCK:   -1.57 KCAL/MOL
REMARK 927      BINDING AFFINITY PREDICTED BY RF-SCORE:    0.00 PKD
ROOT
HETATM    1  C   UNL     1      -5.284  13.136  73.066  1.00  0.00     0.154 C  
HETATM    2  C   UNL     1      -5.251  14.096  71.920  1.00  0.00    -0.195 A  
HETATM    3  C   UNL     1      -5.186  15.452  72.187  1.00  0.00     0.094 A  
HETATM    4  N   UNL     1      -5.149  16.408  71.249  1.00  0.00    -0.248 NA 
HETATM    5  C   UNL     1      -5.214  15.993  69.984  1.00  0.00    -0.137 A  
HETATM    6  C   UNL     1      -5.245  13.737  70.573  1.00  0.00    -0.111 A  
HETATM    7  N   UNL     1      -5.248  14.694  69.627  1.00  0.00    -0.092 NA 
ENDROOT
BRANCH   5   8
HETATM    8  N   UNL     1      -5.247  17.016  69.033  1.00  0.00    -0.133 NA 
HETATM    9  H   UNL     1      -4.380  17.543  68.932  1.00  0.00     0.000 HD 
BRANCH   8  10
HETATM   10  C   UNL     1      -6.295  17.424  68.198  1.00  0.00    -0.167 A  
HETATM   11  C   UNL     1      -7.343  18.202  68.674  1.00  0.00    -0.295 A  
HETATM   12  C   UNL     1      -7.478  17.246  66.066  1.00  0.00    -0.232 A  
HETATM   13  C   UNL     1      -8.545  17.978  66.580  1.00  0.00    -0.263 A  
HETATM   14  C   UNL     1      -8.452  18.482  67.883  1.00  0.00    -0.292 A  
HETATM   15  C   UNL     1      -6.360  16.968  66.872  1.00  0.00    -0.242 A  
BRANCH  13  16
HETATM   16  O   UNL     1      -9.653  18.142  65.777  1.00  0.00    -0.492 OA 
BRANCH  16  17
HETATM   17  C   UNL     1     -10.662  17.167  66.047  1.00  0.00    -0.113 C  
BRANCH  17  18
HETATM   18  C   UNL     1     -11.004  16.262  64.863  1.00  0.00    -0.307 C  
BRANCH  18  19
HETATM   19  N   UNL     1     -11.400  14.939  65.370  1.00  0.00    -0.349 NA 
HETATM   20  C   UNL     1     -11.468  14.852  66.834  1.00  0.00    -0.313 C  
HETATM   21  C   UNL     1     -10.518  13.864  64.935  1.00  0.00    -0.426 C  
HETATM   22  C   UNL     1     -11.263  13.380  67.159  1.00  0.00    -0.325 C  
HETATM   23  C   UNL     1     -10.979  12.718  65.820  1.00  0.00    -0.306 C  
ENDBRANCH  18  19
ENDBRANCH  17  18
ENDBRANCH  16  17
ENDBRANCH  13  16
ENDBRANCH   8  10
ENDBRANCH   5   8
BRANCH   6  24
HETATM   24  N   UNL     1      -5.342  12.366  70.219  1.00  0.00    -0.109 NA 
HETATM   25  H   UNL     1      -4.540  11.811  70.520  1.00  0.00     0.000 HD 
BRANCH  24  26
HETATM   26  C   UNL     1      -6.325  11.608  69.535  1.00  0.00    -0.122 A  
HETATM   27  C   UNL     1      -6.935  11.992  68.337  1.00  0.00    -0.080 A  
HETATM   28  C   UNL     1      -6.845  10.467  70.174  1.00  0.00    -0.145 A  
HETATM   29  C   UNL     1      -8.022  11.282  67.797  1.00  0.00    -0.117 A  
HETATM   30  C   UNL     1      -8.563  10.193  68.477  1.00  0.00    -0.118 A  
HETATM   31  C   UNL     1      -7.984   9.804  69.683  1.00  0.00    -0.150 A  
BRANCH  31  32
HETATM   32  S   UNL     1      -8.666   8.431  70.580  1.00  0.00    -0.155 S  
HETATM   33  O   UNL     1      -8.928   7.383  69.616  1.00  0.00    -0.141 OA 
HETATM   34  O   UNL     1      -7.829   8.183  71.732  1.00  0.00    -0.094 OA 
BRANCH  32  35
HETATM   35  N   UNL     1     -10.181   8.948  71.094  1.00  0.00    -0.240 N  
HETATM   36  C   UNL     1     -12.425   9.024  72.054  1.00  0.00    -0.460 C  
HETATM   37  C   UNL     1     -11.728   7.017  70.781  1.00  0.00    -0.394 C  
HETATM   38  C   UNL     1     -10.725   7.508  73.046  1.00  0.00    -0.438 C  
HETATM   39  C   UNL     1     -11.224   8.107  71.732  1.00  0.00    -0.272 C  
HETATM   40  H   UNL     1     -10.405   9.933  70.953  1.00  0.00     0.000 HD 
ENDBRANCH  32  35
ENDBRANCH  31  32
ENDBRANCH  24  26
ENDBRANCH   6  24
TORSDOF 10
ENDMDL
MODEL      184
REMARK 921   NORMALIZED FREE ENERGY PREDICTED BY IDOCK:   -5.08 KCAL/MOL
REMARK 922        TOTAL FREE ENERGY PREDICTED BY IDOCK:   -9.39 KCAL/MOL
REMARK 923 INTER-LIGAND FREE ENERGY PREDICTED BY IDOCK:   -7.79 KCAL/MOL
REMARK 924 INTRA-LIGAND FREE ENERGY PREDICTED BY IDOCK:   -1.60 KCAL/MOL
REMARK 927      BINDING AFFINITY PREDICTED BY RF-SCORE:    0.00 PKD
ROOT
HETATM    1  C   UNL     1      -7.611   3.651  67.497  1.00  0.00    -0.070 C  
HETATM    2  C   UNL     1      -7.810   5.111  67.244  1.00  0.00    -0.096 A  
HETATM    3  C   UNL     1      -8.470   5.503  66.092  1.00  0.00    -0.122 A  
HETATM    4  N   UNL     1      -8.711   6.777  65.756  1.00  0.00    -0.141 NA 
HETATM    5  C   UNL     1      -8.243   7.706  66.590  1.00  0.00    -0.124 A  
HETATM    6  C   UNL     1      -7.413   6.136  68.101  1.00  0.00    -0.090 A  
HETATM    7  N   UNL     1      -7.617   7.418  67.749  1.00  0.00    -0.104 NA 
ENDROOT
BRANCH   5   8
HETATM    8  N   UNL     1      -8.447   9.023  66.175  1.00  0.00    -0.123 NA 
HETATM    9  H   UNL     1      -8.031   9.264  65.275  1.00  0.00     0.000 HD 
BRANCH   8  10
HETATM   10  C   UNL     1      -9.138  10.063  66.811  1.00  0.00    -0.139 A  
HETATM   11  C   UNL     1      -8.489  10.960  67.651  1.00  0.00    -0.123 A  
HETATM   12  C   UNL     1     -11.258  11.106  67.437  1.00  0.00    -0.363 A  
HETATM   13  C   UNL     1     -10.596  11.957  68.318  1.00  0.00    -0.213 A  
HETATM   14  C   UNL     1      -9.199  11.897  68.392  1.00  0.00    -0.173 A  
HETATM   15  C   UNL     1     -10.533  10.163  66.689  1.00  0.00    -0.254 A  
BRANCH  13  16
HETATM   16  O   UNL     1     -11.365  12.800  69.091  1.00  0.00    -0.267 OA 
BRANCH  16  17
HETATM   17  C   UNL     1     -12.014  13.804  68.307  1.00  0.00    -0.357 C  
BRANCH  17  18
HETATM   18  C   UNL     1     -11.713  15.240  68.739  1.00  0.00    -0.353 C  
BRANCH  18  19
HETATM   19  N   UNL     1     -10.563  15.740  67.970  1.00  0.00    -0.270 NA 
HETATM   20  C   UNL     1     -10.558  17.196  67.779  1.00  0.00    -0.360 C  
HETATM   21  C   UNL     1     -10.452  15.150  66.643  1.00  0.00    -0.287 C  
HETATM   22  C   UNL     1      -9.734  17.432  66.521  1.00  0.00    -0.302 C  
HETATM   23  C   UNL     1      -9.401  16.042  66.004  1.00  0.00    -0.380 C  
ENDBRANCH  18  19
ENDBRANCH  17  18
ENDBRANCH  16  17
ENDBRANCH  13  16
ENDBRANCH   8  10
ENDBRANCH   5   8
BRANCH   6  24
HETATM   24  N   UNL     1      -6.702   5.812  69.287  1.00  0.00    -0.057 NA 
HETATM   25  H   UNL     1      -5.693   5.753  69.151  1.00  0.00     0.000 HD 
BRANCH  24  26
HETATM   26  C   UNL     1      -7.107   5.555  70.620  1.00  0.00    -0.062 A  
HETATM   27  C   UNL     1      -7.045   4.306  71.244  1.00  0.00    -0.039 A  
HETATM   28  C   UNL     1      -7.763   6.583  71.323  1.00  0.00    -0.095 A  
HETATM   29  C   UNL     1      -7.618   4.078  72.508  1.00  0.00    -0.073 A  
HETATM   30  C   UNL     1      -8.319   5.091  73.159  1.00  0.00    -0.108 A  
HETATM   31  C   UNL     1      -8.410   6.340  72.548  1.00  0.00    -0.113 A  
BRANCH  31  32
HETATM   32  S   UNL     1      -9.314   7.642  73.348  1.00  0.00    -0.287 S  
HETATM   33  O   UNL     1     -10.430   7.025  74.034  1.00  0.00    -0.366 OA 
HETATM   34  O   UNL     1      -8.372   8.471  74.066  1.00  0.00    -0.329 OA 
BRANCH  32  35
HETATM   35  N   UNL     1     -10.001   8.535  72.100  1.00  0.00    -0.299 N  
HETATM   36  C   UNL     1     -11.546   9.403  70.420  1.00  0.00    -0.241 C  
HETATM   37  C   UNL     1     -11.452   6.960  70.822  1.00  0.00    -0.381 C  
HETATM   38  C   UNL     1     -12.445   8.506  72.556  1.00  0.00    -0.358 C  
HETATM   39  C   UNL     1     -11.347   8.325  71.510  1.00  0.00    -0.268 C  
HETATM   40  H   UNL     1      -9.440   9.293  71.712  1.00  0.00     0.000 HD 
ENDBRANCH  32  35
ENDBRANCH  31  32
ENDBRANCH  24  26
ENDBRANCH   6  24
TORSDOF 10
ENDMDL
MODEL      185
REMARK 921   NORMALIZED FREE ENERGY PREDICTED BY IDOCK:   -5.07 KCAL/MOL
REMARK 922        TOTAL FREE ENERGY PREDICTED BY IDOCK:   -9.38 KCAL/MOL
REMARK 923 INTER-LIGAND FREE ENERGY PREDICTED BY IDOCK:   -8.41 KCAL/MOL
REMARK 924 INTRA-LIGAND FREE ENERGY PREDICTED BY IDOCK:   -0.97 KCAL/MOL
REMARK 927      BINDING AFFINITY PREDICTED BY RF-SCORE:    0.00 PKD
ROOT
HETATM    1  C   UNL     1     -10.910  15.214  66.716  1.00  0.00    -0.322 C  
HETATM    2  C   UNL     1     -10.996  13.840  67.298  1.00  0.00    -0.302 A  
HETATM    3  C   UNL     1     -11.761  12.887  66.648  1.00  0.00    -0.390 A  
HETATM    4  N   UNL     1     -11.914  11.624  67.067  1.00  0.00    -0.539 NA 
HETATM    5  C   UNL     1     -11.303  11.305  68.209  1.00  0.00    -0.289 A  
HETATM    6  C   UNL     1     -10.332  13.411  68.446  1.00  0.00    -0.251 A  
HETATM    7  N   UNL     1     -10.514  12.156  68.895  1.00  0.00    -0.164 NA 
ENDROOT
BRANCH   5   8
HETATM    8  N   UNL     1     -11.542  10.004  68.657  1.00  0.00    -0.510 NA 
HETATM    9  H   UNL     1     -12.523   9.770  68.808  1.00  0.00     0.000 HD 
BRANCH   8  10
HETATM   10  C   UNL     1     -10.633   8.973  68.929  1.00  0.00    -0.180 A  
HETATM   11  C   UNL     1      -9.262   9.201  68.955  1.00  0.00    -0.139 A  
HETATM   12  C   UNL     1     -10.179   6.588  69.214  1.00  0.00    -0.216 A  
HETATM   13  C   UNL     1      -8.808   6.830  69.177  1.00  0.00    -0.134 A  
HETATM   14  C   UNL     1      -8.359   8.152  69.080  1.00  0.00    -0.128 A  
HETATM   15  C   UNL     1     -11.086   7.654  69.088  1.00  0.00     0.108 A  
BRANCH  13  16
HETATM   16  O   UNL     1      -7.967   5.739  69.214  1.00  0.00    -0.097 OA 
BRANCH  16  17
HETATM   17  C   UNL     1      -8.169   4.944  70.385  1.00  0.00    -0.088 C  
BRANCH  17  18
HETATM   18  C   UNL     1      -8.056   5.714  71.702  1.00  0.00    -0.118 C  
BRANCH  18  19
HETATM   19  N   UNL     1      -8.952   5.100  72.694  1.00  0.00    -0.125 NA 
HETATM   20  C   UNL     1      -9.333   3.716  72.384  1.00  0.00    -0.119 C  
HETATM   21  C   UNL     1     -10.195   5.836  72.886  1.00  0.00    -0.190 C  
HETATM   22  C   UNL     1     -10.659   3.495  73.098  1.00  0.00    -0.269 C  
HETATM   23  C   UNL     1     -11.008   4.845  73.703  1.00  0.00    -0.387 C  
ENDBRANCH  18  19
ENDBRANCH  17  18
ENDBRANCH  16  17
ENDBRANCH  13  16
ENDBRANCH   8  10
ENDBRANCH   5   8
BRANCH   6  24
HETATM   24  N   UNL     1      -9.555  14.341  69.186  1.00  0.00    -0.410 NA 
HETATM   25  H   UNL     1     -10.057  14.754  69.973  1.00  0.00     0.000 HD 
BRANCH  24  26
HETATM   26  C   UNL     1      -8.225  14.813  69.056  1.00  0.00    -0.141 A  
HETATM   27  C   UNL     1      -7.083  14.015  69.164  1.00  0.00    -0.085 A  
HETATM   28  C   UNL     1      -8.022  16.203  68.969  1.00  0.00    -0.236 A  
HETATM   29  C   UNL     1      -5.791  14.569  69.195  1.00  0.00    -0.092 A  
HETATM   30  C   UNL     1      -5.613  15.950  69.172  1.00  0.00    -0.111 A  
HETATM   31  C   UNL     1      -6.738  16.767  69.084  1.00  0.00    -0.223 A  
BRANCH  31  32
HETATM   32  S   UNL     1      -6.541  18.532  69.072  1.00  0.00    -0.263 S  
HETATM   33  O   UNL     1      -6.199  18.929  70.422  1.00  0.00    -0.106 OA 
HETATM   34  O   UNL     1      -5.686  18.884  67.960  1.00  0.00    -0.191 OA 
BRANCH  32  35
HETATM   35  N   UNL     1      -8.082  19.148  68.806  1.00  0.00    -0.361 N  
HETATM   36  C   UNL     1     -10.081  20.076  67.755  1.00  0.00    -0.563 C  
HETATM   37  C   UNL     1      -7.854  20.872  67.019  1.00  0.00    -0.177 C  
HETATM   38  C   UNL     1      -8.627  18.533  66.459  1.00  0.00    -0.289 C  
HETATM   39  C   UNL     1      -8.619  19.640  67.513  1.00  0.00    -0.311 C  
HETATM   40  H   UNL     1      -8.708  19.187  69.610  1.00  0.00     0.000 HD 
ENDBRANCH  32  35
ENDBRANCH  31  32
ENDBRANCH  24  26
ENDBRANCH   6  24
TORSDOF 10
ENDMDL
MODEL      186
REMARK 921   NORMALIZED FREE ENERGY PREDICTED BY IDOCK:   -5.06 KCAL/MOL
REMARK 922        TOTAL FREE ENERGY PREDICTED BY IDOCK:   -9.37 KCAL/MOL
REMARK 923 INTER-LIGAND FREE ENERGY PREDICTED BY IDOCK:   -8.98 KCAL/MOL
REMARK 924 INTRA-LIGAND FREE ENERGY PREDICTED BY IDOCK:   -0.40 KCAL/MOL
REMARK 927      BINDING AFFINITY PREDICTED BY RF-SCORE:    0.00 PKD
ROOT
HETATM    1  C   UNL     1     -13.137   9.036  72.682  1.00  0.00    -0.358 C  
HETATM    2  C   UNL     1     -12.029   8.565  71.794  1.00  0.00    -0.393 A  
HETATM    3  C   UNL     1     -11.260   7.489  72.201  1.00  0.00    -0.270 A  
HETATM    4  N   UNL     1     -10.244   6.975  71.496  1.00  0.00    -0.198 NA 
HETATM    5  C   UNL     1      -9.960   7.583  70.343  1.00  0.00    -0.184 A  
HETATM    6  C   UNL     1     -11.717   9.103  70.547  1.00  0.00    -0.152 A  
HETATM    7  N   UNL     1     -10.673   8.617  69.852  1.00  0.00    -0.229 NA 
ENDROOT
BRANCH   5   8
HETATM    8  N   UNL     1      -8.852   7.070  69.667  1.00  0.00    -0.141 NA 
HETATM    9  H   UNL     1      -8.691   6.070  69.792  1.00  0.00     0.000 HD 
BRANCH   8  10
HETATM   10  C   UNL     1      -7.927   7.725  68.843  1.00  0.00    -0.124 A  
HETATM   11  C   UNL     1      -7.884   9.111  68.757  1.00  0.00    -0.096 A  
HETATM   12  C   UNL     1      -6.254   7.625  67.064  1.00  0.00    -0.053 A  
HETATM   13  C   UNL     1      -6.268   9.013  66.953  1.00  0.00    -0.059 A  
HETATM   14  C   UNL     1      -7.068   9.752  67.833  1.00  0.00    -0.083 A  
HETATM   15  C   UNL     1      -7.081   6.985  68.003  1.00  0.00    -0.086 A  
BRANCH  13  16
HETATM   16  O   UNL     1      -5.506   9.582  65.955  1.00  0.00    -0.039 OA 
BRANCH  16  17
HETATM   17  C   UNL     1      -6.288   9.916  64.807  1.00  0.00    -0.115 C  
BRANCH  17  18
HETATM   18  C   UNL     1      -7.321   8.859  64.413  1.00  0.00    -0.099 C  
BRANCH  18  19
HETATM   19  N   UNL     1      -8.531   9.533  63.918  1.00  0.00    -0.177 NA 
HETATM   20  C   UNL     1      -8.263  10.731  63.111  1.00  0.00    -0.013 C  
HETATM   21  C   UNL     1      -9.439   9.947  64.979  1.00  0.00    -0.280 C  
HETATM   22  C   UNL     1      -9.516  11.586  63.234  1.00  0.00    -0.303 C  
HETATM   23  C   UNL     1     -10.404  10.842  64.219  1.00  0.00    -0.401 C  
ENDBRANCH  18  19
ENDBRANCH  17  18
ENDBRANCH  16  17
ENDBRANCH  13  16
ENDBRANCH   8  10
ENDBRANCH   5   8
BRANCH   6  24
HETATM   24  N   UNL     1     -12.441  10.230  70.076  1.00  0.00    -0.533 NA 
HETATM   25  H   UNL     1     -13.377  10.307  70.477  1.00  0.00     0.000 HD 
BRANCH  24  26
HETATM   26  C   UNL     1     -12.132  11.269  69.163  1.00  0.00    -0.279 A  
HETATM   27  C   UNL     1     -11.683  11.072  67.854  1.00  0.00    -0.216 A  
HETATM   28  C   UNL     1     -12.124  12.591  69.644  1.00  0.00    -0.272 A  
HETATM   29  C   UNL     1     -11.231  12.138  67.056  1.00  0.00    -0.370 A  
HETATM   30  C   UNL     1     -11.170  13.431  67.572  1.00  0.00    -0.309 A  
HETATM   31  C   UNL     1     -11.596  13.649  68.881  1.00  0.00    -0.322 A  
BRANCH  31  32
HETATM   32  S   UNL     1     -11.510  15.283  69.569  1.00  0.00    -0.330 S  
HETATM   33  O   UNL     1     -10.393  15.297  70.491  1.00  0.00    -0.199 OA 
HETATM   34  O   UNL     1     -11.583  16.235  68.484  1.00  0.00    -0.346 OA 
BRANCH  32  35
HETATM   35  N   UNL     1     -12.879  15.430  70.532  1.00  0.00    -0.601 N  
HETATM   36  C   UNL     1     -14.385  15.620  72.445  1.00  0.00    -0.420 C  
HETATM   37  C   UNL     1     -12.448  14.082  72.585  1.00  0.00    -0.100 C  
HETATM   38  C   UNL     1     -12.100  16.584  72.592  1.00  0.00    -0.425 C  
HETATM   39  C   UNL     1     -12.913  15.426  72.016  1.00  0.00    -0.401 C  
HETATM   40  H   UNL     1     -13.773  15.533  70.050  1.00  0.00     0.000 HD 
ENDBRANCH  32  35
ENDBRANCH  31  32
ENDBRANCH  24  26
ENDBRANCH   6  24
TORSDOF 10
ENDMDL
MODEL      187
REMARK 921   NORMALIZED FREE ENERGY PREDICTED BY IDOCK:   -5.06 KCAL/MOL
REMARK 922        TOTAL FREE ENERGY PREDICTED BY IDOCK:   -9.37 KCAL/MOL
REMARK 923 INTER-LIGAND FREE ENERGY PREDICTED BY IDOCK:   -9.60 KCAL/MOL
REMARK 924 INTRA-LIGAND FREE ENERGY PREDICTED BY IDOCK:    0.23 KCAL/MOL
REMARK 927      BINDING AFFINITY PREDICTED BY RF-SCORE:    0.00 PKD
ROOT
HETATM    1  C   UNL     1      -8.338   7.769  65.507  1.00  0.00    -0.151 C  
HETATM    2  C   UNL     1      -9.230   8.938  65.775  1.00  0.00    -0.283 A  
HETATM    3  C   UNL     1      -9.382   9.900  64.791  1.00  0.00    -0.278 A  
HETATM    4  N   UNL     1     -10.152  10.989  64.910  1.00  0.00    -0.278 NA 
HETATM    5  C   UNL     1     -10.777  11.144  66.078  1.00  0.00    -0.211 A  
HETATM    6  C   UNL     1      -9.969   9.134  66.941  1.00  0.00    -0.238 A  
HETATM    7  N   UNL     1     -10.713  10.246  67.081  1.00  0.00    -0.257 NA 
ENDROOT
BRANCH   5   8
HETATM    8  N   UNL     1     -11.513  12.325  66.196  1.00  0.00    -0.357 NA 
HETATM    9  H   UNL     1     -12.472  12.207  66.524  1.00  0.00     0.000 HD 
BRANCH   8  10
HETATM   10  C   UNL     1     -11.130  13.646  65.932  1.00  0.00    -0.284 A  
HETATM   11  C   UNL     1     -10.071  14.244  66.604  1.00  0.00    -0.274 A  
HETATM   12  C   UNL     1     -11.595  15.801  64.877  1.00  0.00    -0.104 A  
HETATM   13  C   UNL     1     -10.567  16.396  65.604  1.00  0.00    -0.323 A  
HETATM   14  C   UNL     1      -9.786  15.595  66.446  1.00  0.00    -0.295 A  
HETATM   15  C   UNL     1     -11.876  14.434  65.042  1.00  0.00    -0.400 A  
BRANCH  13  16
HETATM   16  O   UNL     1     -10.395  17.757  65.471  1.00  0.00    -0.623 OA 
BRANCH  16  17
HETATM   17  C   UNL     1     -10.368  18.420  66.736  1.00  0.00    -0.394 C  
BRANCH  17  18
HETATM   18  C   UNL     1      -9.846  19.857  66.688  1.00  0.00    -0.435 C  
BRANCH  18  19
HETATM   19  N   UNL     1      -8.851  20.041  67.757  1.00  0.00    -0.320 NA 
HETATM   20  C   UNL     1      -7.617  20.706  67.319  1.00  0.00    -0.333 C  
HETATM   21  C   UNL     1      -8.445  18.794  68.391  1.00  0.00    -0.342 C  
HETATM   22  C   UNL     1      -6.548  20.254  68.303  1.00  0.00    -0.335 C  
HETATM   23  C   UNL     1      -7.244  19.248  69.205  1.00  0.00    -0.360 C  
ENDBRANCH  18  19
ENDBRANCH  17  18
ENDBRANCH  16  17
ENDBRANCH  13  16
ENDBRANCH   8  10
ENDBRANCH   5   8
BRANCH   6  24
HETATM   24  N   UNL     1      -9.840   8.206  68.007  1.00  0.00    -0.162 NA 
HETATM   25  H   UNL     1      -9.845   8.644  68.929  1.00  0.00     0.000 HD 
BRANCH  24  26
HETATM   26  C   UNL     1      -9.706   6.796  68.055  1.00  0.00    -0.124 A  
HETATM   27  C   UNL     1     -10.085   5.925  67.029  1.00  0.00    -0.221 A  
HETATM   28  C   UNL     1      -9.313   6.210  69.272  1.00  0.00    -0.142 A  
HETATM   29  C   UNL     1     -10.085   4.530  67.203  1.00  0.00    -0.160 A  
HETATM   30  C   UNL     1      -9.754   3.971  68.435  1.00  0.00    -0.135 A  
HETATM   31  C   UNL     1      -9.391   4.820  69.479  1.00  0.00    -0.133 A  
BRANCH  31  32
HETATM   32  S   UNL     1      -8.984   4.135  71.065  1.00  0.00    -0.117 S  
HETATM   33  O   UNL     1     -10.056   3.231  71.425  1.00  0.00    -0.114 OA 
HETATM   34  O   UNL     1      -7.614   3.675  71.020  1.00  0.00    -0.046 OA 
BRANCH  32  35
HETATM   35  N   UNL     1      -9.104   5.417  72.145  1.00  0.00    -0.136 N  
HETATM   36  C   UNL     1      -9.910   6.984  73.836  1.00  0.00    -0.354 C  
HETATM   37  C   UNL     1     -11.495   6.125  72.137  1.00  0.00    -0.361 C  
HETATM   38  C   UNL     1     -10.610   4.603  73.948  1.00  0.00    -0.337 C  
HETATM   39  C   UNL     1     -10.280   5.745  72.989  1.00  0.00    -0.187 C  
HETATM   40  H   UNL     1      -8.291   6.027  72.229  1.00  0.00     0.000 HD 
ENDBRANCH  32  35
ENDBRANCH  31  32
ENDBRANCH  24  26
ENDBRANCH   6  24
TORSDOF 10
ENDMDL
MODEL      188
REMARK 921   NORMALIZED FREE ENERGY PREDICTED BY IDOCK:   -5.06 KCAL/MOL
REMARK 922        TOTAL FREE ENERGY PREDICTED BY IDOCK:   -9.36 KCAL/MOL
REMARK 923 INTER-LIGAND FREE ENERGY PREDICTED BY IDOCK:   -7.54 KCAL/MOL
REMARK 924 INTRA-LIGAND FREE ENERGY PREDICTED BY IDOCK:   -1.82 KCAL/MOL
REMARK 927      BINDING AFFINITY PREDICTED BY RF-SCORE:    0.00 PKD
ROOT
HETATM    1  C   UNL     1     -11.888  11.242  67.544  1.00  0.00    -0.030 C  
HETATM    2  C   UNL     1     -10.598  11.998  67.521  1.00  0.00    -0.250 A  
HETATM    3  C   UNL     1     -10.406  12.959  66.544  1.00  0.00    -0.264 A  
HETATM    4  N   UNL     1      -9.298  13.702  66.421  1.00  0.00    -0.230 NA 
HETATM    5  C   UNL     1      -8.321  13.451  67.293  1.00  0.00    -0.176 A  
HETATM    6  C   UNL     1      -9.560  11.842  68.439  1.00  0.00    -0.196 A  
HETATM    7  N   UNL     1      -8.429  12.557  68.296  1.00  0.00    -0.173 NA 
ENDROOT
BRANCH   5   8
HETATM    8  N   UNL     1      -7.153  14.190  67.093  1.00  0.00    -0.382 NA 
HETATM    9  H   UNL     1      -6.481  13.774  66.449  1.00  0.00     0.000 HD 
BRANCH   8  10
HETATM   10  C   UNL     1      -6.769  15.420  67.645  1.00  0.00    -0.173 A  
HETATM   11  C   UNL     1      -7.572  16.087  68.562  1.00  0.00    -0.155 A  
HETATM   12  C   UNL     1      -5.276  17.354  67.639  1.00  0.00    -0.129 A  
HETATM   13  C   UNL     1      -6.124  18.030  68.513  1.00  0.00    -0.191 A  
HETATM   14  C   UNL     1      -7.259  17.370  68.996  1.00  0.00    -0.224 A  
HETATM   15  C   UNL     1      -5.598  16.057  67.206  1.00  0.00    -0.038 A  
BRANCH  13  16
HETATM   16  O   UNL     1      -5.805  19.332  68.833  1.00  0.00    -0.209 OA 
BRANCH  16  17
HETATM   17  C   UNL     1      -6.941  20.197  68.758  1.00  0.00    -0.220 C  
BRANCH  17  18
HETATM   18  C   UNL     1      -7.297  20.656  67.343  1.00  0.00    -0.336 C  
BRANCH  18  19
HETATM   19  N   UNL     1      -8.693  20.290  67.057  1.00  0.00    -0.336 NA 
HETATM   20  C   UNL     1      -9.517  20.085  68.256  1.00  0.00    -0.236 C  
HETATM   21  C   UNL     1      -8.822  19.080  66.257  1.00  0.00    -0.277 C  
HETATM   22  C   UNL     1     -10.639  19.155  67.817  1.00  0.00    -0.498 C  
HETATM   23  C   UNL     1     -10.311  18.798  66.376  1.00  0.00    -0.489 C  
ENDBRANCH  18  19
ENDBRANCH  17  18
ENDBRANCH  16  17
ENDBRANCH  13  16
ENDBRANCH   8  10
ENDBRANCH   5   8
BRANCH   6  24
HETATM   24  N   UNL     1      -9.671  10.853  69.450  1.00  0.00    -0.425 NA 
HETATM   25  H   UNL     1     -10.092  11.199  70.312  1.00  0.00     0.000 HD 
BRANCH  24  26
HETATM   26  C   UNL     1      -9.316   9.482  69.508  1.00  0.00    -0.190 A  
HETATM   27  C   UNL     1      -9.076   8.771  70.688  1.00  0.00    -0.221 A  
HETATM   28  C   UNL     1      -9.031   8.820  68.300  1.00  0.00    -0.141 A  
HETATM   29  C   UNL     1      -8.563   7.462  70.674  1.00  0.00    -0.141 A  
HETATM   30  C   UNL     1      -8.227   6.847  69.469  1.00  0.00    -0.131 A  
HETATM   31  C   UNL     1      -8.440   7.543  68.281  1.00  0.00    -0.125 A  
BRANCH  31  32
HETATM   32  S   UNL     1      -8.002   6.791  66.734  1.00  0.00    -0.110 S  
HETATM   33  O   UNL     1      -6.991   5.794  67.019  1.00  0.00    -0.062 OA 
HETATM   34  O   UNL     1      -9.221   6.430  66.045  1.00  0.00    -0.143 OA 
BRANCH  32  35
HETATM   35  N   UNL     1      -7.208   7.992  65.867  1.00  0.00    -0.064 N  
HETATM   36  C   UNL     1      -6.635   9.687  64.205  1.00  0.00    -0.111 C  
HETATM   37  C   UNL     1      -7.753   7.605  63.464  1.00  0.00    -0.130 C  
HETATM   38  C   UNL     1      -9.019   9.328  64.809  1.00  0.00    -0.217 C  
HETATM   39  C   UNL     1      -7.679   8.621  64.608  1.00  0.00    -0.121 C  
HETATM   40  H   UNL     1      -6.318   8.320  66.242  1.00  0.00     0.000 HD 
ENDBRANCH  32  35
ENDBRANCH  31  32
ENDBRANCH  24  26
ENDBRANCH   6  24
TORSDOF 10
ENDMDL
MODEL      189
REMARK 921   NORMALIZED FREE ENERGY PREDICTED BY IDOCK:   -5.04 KCAL/MOL
REMARK 922        TOTAL FREE ENERGY PREDICTED BY IDOCK:   -9.33 KCAL/MOL
REMARK 923 INTER-LIGAND FREE ENERGY PREDICTED BY IDOCK:   -7.67 KCAL/MOL
REMARK 924 INTRA-LIGAND FREE ENERGY PREDICTED BY IDOCK:   -1.66 KCAL/MOL
REMARK 927      BINDING AFFINITY PREDICTED BY RF-SCORE:    0.00 PKD
ROOT
HETATM    1  C   UNL     1      -5.927   3.568  67.210  1.00  0.00    -0.024 C  
HETATM    2  C   UNL     1      -6.088   4.972  66.722  1.00  0.00    -0.031 A  
HETATM    3  C   UNL     1      -6.070   5.210  65.359  1.00  0.00    -0.033 A  
HETATM    4  N   UNL     1      -6.206   6.420  64.800  1.00  0.00    -0.030 NA 
HETATM    5  C   UNL     1      -6.333   7.446  65.641  1.00  0.00    -0.041 A  
HETATM    6  C   UNL     1      -6.295   6.086  67.534  1.00  0.00    -0.041 A  
HETATM    7  N   UNL     1      -6.392   7.308  66.981  1.00  0.00    -0.049 NA 
ENDROOT
BRANCH   5   8
HETATM    8  N   UNL     1      -6.399   8.700  65.030  1.00  0.00    -0.060 NA 
HETATM    9  H   UNL     1      -5.509   9.068  64.695  1.00  0.00     0.000 HD 
BRANCH   8  10
HETATM   10  C   UNL     1      -7.509   9.527  64.809  1.00  0.00    -0.112 A  
HETATM   11  C   UNL     1      -7.936  10.441  65.764  1.00  0.00    -0.152 A  
HETATM   12  C   UNL     1      -9.475  10.097  63.474  1.00  0.00    -0.310 A  
HETATM   13  C   UNL     1      -9.918  10.964  64.469  1.00  0.00    -0.317 A  
HETATM   14  C   UNL     1      -9.119  11.154  65.603  1.00  0.00    -0.221 A  
HETATM   15  C   UNL     1      -8.278   9.381  63.644  1.00  0.00    -0.169 A  
BRANCH  13  16
HETATM   16  O   UNL     1     -11.142  11.570  64.289  1.00  0.00    -0.342 OA 
BRANCH  16  17
HETATM   17  C   UNL     1     -11.011  12.939  63.898  1.00  0.00    -0.384 C  
BRANCH  17  18
HETATM   18  C   UNL     1     -12.224  13.811  64.222  1.00  0.00    -0.400 C  
BRANCH  18  19
HETATM   19  N   UNL     1     -11.875  14.730  65.317  1.00  0.00    -0.315 NA 
HETATM   20  C   UNL     1     -10.527  15.303  65.213  1.00  0.00    -0.411 C  
HETATM   21  C   UNL     1     -11.961  14.117  66.636  1.00  0.00    -0.444 C  
HETATM   22  C   UNL     1     -10.136  15.668  66.637  1.00  0.00    -0.280 C  
HETATM   23  C   UNL     1     -11.283  15.167  67.500  1.00  0.00    -0.331 C  
ENDBRANCH  18  19
ENDBRANCH  17  18
ENDBRANCH  16  17
ENDBRANCH  13  16
ENDBRANCH   8  10
ENDBRANCH   5   8
BRANCH   6  24
HETATM   24  N   UNL     1      -6.293   5.925  68.945  1.00  0.00    -0.039 NA 
HETATM   25  H   UNL     1      -5.357   5.837  69.342  1.00  0.00     0.000 HD 
BRANCH  24  26
HETATM   26  C   UNL     1      -7.324   5.863  69.915  1.00  0.00    -0.075 A  
HETATM   27  C   UNL     1      -7.229   5.190  71.137  1.00  0.00    -0.068 A  
HETATM   28  C   UNL     1      -8.589   6.376  69.570  1.00  0.00    -0.133 A  
HETATM   29  C   UNL     1      -8.341   5.021  71.980  1.00  0.00    -0.124 A  
HETATM   30  C   UNL     1      -9.598   5.480  71.592  1.00  0.00    -0.187 A  
HETATM   31  C   UNL     1      -9.722   6.137  70.369  1.00  0.00    -0.169 A  
BRANCH  31  32
HETATM   32  S   UNL     1     -11.316   6.714  69.842  1.00  0.00    -0.349 S  
HETATM   33  O   UNL     1     -11.622   6.037  68.599  1.00  0.00     0.049 OA 
HETATM   34  O   UNL     1     -12.220   6.636  70.968  1.00  0.00    -0.367 OA 
BRANCH  32  35
HETATM   35  N   UNL     1     -11.087   8.326  69.424  1.00  0.00    -0.441 N  
HETATM   36  C   UNL     1     -10.729  10.740  69.519  1.00  0.00    -0.268 C  
HETATM   37  C   UNL     1     -12.235   9.680  71.175  1.00  0.00    -0.437 C  
HETATM   38  C   UNL     1      -9.742   9.290  71.279  1.00  0.00    -0.299 C  
HETATM   39  C   UNL     1     -10.953   9.466  70.365  1.00  0.00    -0.266 C  
HETATM   40  H   UNL     1     -11.035   8.541  68.428  1.00  0.00     0.000 HD 
ENDBRANCH  32  35
ENDBRANCH  31  32
ENDBRANCH  24  26
ENDBRANCH   6  24
TORSDOF 10
ENDMDL
MODEL      190
REMARK 921   NORMALIZED FREE ENERGY PREDICTED BY IDOCK:   -5.03 KCAL/MOL
REMARK 922        TOTAL FREE ENERGY PREDICTED BY IDOCK:   -9.32 KCAL/MOL
REMARK 923 INTER-LIGAND FREE ENERGY PREDICTED BY IDOCK:   -8.22 KCAL/MOL
REMARK 924 INTRA-LIGAND FREE ENERGY PREDICTED BY IDOCK:   -1.10 KCAL/MOL
REMARK 927      BINDING AFFINITY PREDICTED BY RF-SCORE:    0.00 PKD
ROOT
HETATM    1  C   UNL     1      -9.787   4.211  68.464  1.00  0.00    -0.085 C  
HETATM    2  C   UNL     1      -9.785   5.543  67.784  1.00  0.00    -0.150 A  
HETATM    3  C   UNL     1      -8.873   5.772  66.769  1.00  0.00    -0.117 A  
HETATM    4  N   UNL     1      -8.775   6.919  66.084  1.00  0.00    -0.142 NA 
HETATM    5  C   UNL     1      -9.603   7.897  66.452  1.00  0.00    -0.181 A  
HETATM    6  C   UNL     1     -10.664   6.588  68.064  1.00  0.00    -0.283 A  
HETATM    7  N   UNL     1     -10.543   7.756  67.408  1.00  0.00    -0.284 NA 
ENDROOT
BRANCH   5   8
HETATM    8  N   UNL     1      -9.426   9.102  65.769  1.00  0.00    -0.288 NA 
HETATM    9  H   UNL     1      -9.531   9.047  64.756  1.00  0.00     0.000 HD 
BRANCH   8  10
HETATM   10  C   UNL     1      -9.126  10.376  66.271  1.00  0.00    -0.158 A  
HETATM   11  C   UNL     1      -7.816  10.777  66.501  1.00  0.00    -0.145 A  
HETATM   12  C   UNL     1      -9.879  12.467  67.288  1.00  0.00    -0.204 A  
HETATM   13  C   UNL     1      -8.561  12.824  67.563  1.00  0.00    -0.187 A  
HETATM   14  C   UNL     1      -7.530  11.981  67.132  1.00  0.00    -0.138 A  
HETATM   15  C   UNL     1     -10.160  11.248  66.647  1.00  0.00    -0.251 A  
BRANCH  13  16
HETATM   16  O   UNL     1      -8.350  13.987  68.273  1.00  0.00    -0.149 OA 
BRANCH  16  17
HETATM   17  C   UNL     1      -9.007  15.107  67.675  1.00  0.00    -0.180 C  
BRANCH  17  18
HETATM   18  C   UNL     1      -8.289  16.443  67.872  1.00  0.00    -0.171 C  
BRANCH  18  19
HETATM   19  N   UNL     1      -9.286  17.485  68.160  1.00  0.00    -0.268 NA 
HETATM   20  C   UNL     1     -10.270  17.686  67.088  1.00  0.00    -0.342 C  
HETATM   21  C   UNL     1      -8.698  18.791  68.427  1.00  0.00    -0.337 C  
HETATM   22  C   UNL     1     -10.764  19.115  67.259  1.00  0.00    -0.585 C  
HETATM   23  C   UNL     1      -9.925  19.687  68.391  1.00  0.00    -0.543 C  
ENDBRANCH  18  19
ENDBRANCH  17  18
ENDBRANCH  16  17
ENDBRANCH  13  16
ENDBRANCH   8  10
ENDBRANCH   5   8
BRANCH   6  24
HETATM   24  N   UNL     1     -11.607   6.440  69.115  1.00  0.00    -0.583 NA 
HETATM   25  H   UNL     1     -12.501   6.058  68.807  1.00  0.00     0.000 HD 
BRANCH  24  26
HETATM   26  C   UNL     1     -11.560   6.713  70.505  1.00  0.00    -0.390 A  
HETATM   27  C   UNL     1     -12.272   7.735  71.140  1.00  0.00    -0.289 A  
HETATM   28  C   UNL     1     -10.619   6.016  71.285  1.00  0.00    -0.302 A  
HETATM   29  C   UNL     1     -12.054   8.063  72.490  1.00  0.00    -0.338 A  
HETATM   30  C   UNL     1     -11.072   7.405  73.228  1.00  0.00    -0.303 A  
HETATM   31  C   UNL     1     -10.337   6.395  72.611  1.00  0.00    -0.195 A  
BRANCH  31  32
HETATM   32  S   UNL     1      -9.067   5.554  73.522  1.00  0.00    -0.127 S  
HETATM   33  O   UNL     1      -8.060   6.540  73.854  1.00  0.00    -0.106 OA 
HETATM   34  O   UNL     1      -9.699   4.767  74.557  1.00  0.00    -0.129 OA 
BRANCH  32  35
HETATM   35  N   UNL     1      -8.332   4.527  72.414  1.00  0.00    -0.108 N  
HETATM   36  C   UNL     1      -6.708   3.448  70.943  1.00  0.00    -0.032 C  
HETATM   37  C   UNL     1      -6.709   5.918  71.130  1.00  0.00    -0.058 C  
HETATM   38  C   UNL     1      -5.932   4.487  73.062  1.00  0.00    -0.013 C  
HETATM   39  C   UNL     1      -6.936   4.624  71.918  1.00  0.00    -0.059 C  
HETATM   40  H   UNL     1      -8.900   3.763  72.046  1.00  0.00     0.000 HD 
ENDBRANCH  32  35
ENDBRANCH  31  32
ENDBRANCH  24  26
ENDBRANCH   6  24
TORSDOF 10
ENDMDL
MODEL      191
REMARK 921   NORMALIZED FREE ENERGY PREDICTED BY IDOCK:   -5.02 KCAL/MOL
REMARK 922        TOTAL FREE ENERGY PREDICTED BY IDOCK:   -9.31 KCAL/MOL
REMARK 923 INTER-LIGAND FREE ENERGY PREDICTED BY IDOCK:   -7.71 KCAL/MOL
REMARK 924 INTRA-LIGAND FREE ENERGY PREDICTED BY IDOCK:   -1.60 KCAL/MOL
REMARK 927      BINDING AFFINITY PREDICTED BY RF-SCORE:    0.00 PKD
ROOT
HETATM    1  C   UNL     1     -11.963  11.334  67.555  1.00  0.00     0.172 C  
HETATM    2  C   UNL     1     -10.669  12.083  67.545  1.00  0.00    -0.262 A  
HETATM    3  C   UNL     1     -10.448  13.019  66.551  1.00  0.00    -0.277 A  
HETATM    4  N   UNL     1      -9.334  13.753  66.437  1.00  0.00    -0.238 NA 
HETATM    5  C   UNL     1      -8.379  13.519  67.338  1.00  0.00    -0.194 A  
HETATM    6  C   UNL     1      -9.654  11.943  68.491  1.00  0.00    -0.157 A  
HETATM    7  N   UNL     1      -8.516  12.649  68.358  1.00  0.00    -0.153 NA 
ENDROOT
BRANCH   5   8
HETATM    8  N   UNL     1      -7.203  14.247  67.148  1.00  0.00    -0.360 NA 
HETATM    9  H   UNL     1      -6.527  13.824  66.512  1.00  0.00     0.000 HD 
BRANCH   8  10
HETATM   10  C   UNL     1      -6.814  15.474  67.703  1.00  0.00    -0.181 A  
HETATM   11  C   UNL     1      -7.617  16.146  68.617  1.00  0.00    -0.183 A  
HETATM   12  C   UNL     1      -5.309  17.400  67.704  1.00  0.00    -0.129 A  
HETATM   13  C   UNL     1      -6.156  18.080  68.574  1.00  0.00    -0.191 A  
HETATM   14  C   UNL     1      -7.298  17.426  69.053  1.00  0.00    -0.204 A  
HETATM   15  C   UNL     1      -5.637  16.104  67.269  1.00  0.00    -0.087 A  
BRANCH  13  16
HETATM   16  O   UNL     1      -5.831  19.380  68.896  1.00  0.00    -0.214 OA 
BRANCH  16  17
HETATM   17  C   UNL     1      -6.951  20.259  68.776  1.00  0.00    -0.153 C  
BRANCH  17  18
HETATM   18  C   UNL     1      -7.261  20.701  67.345  1.00  0.00    -0.342 C  
BRANCH  18  19
HETATM   19  N   UNL     1      -8.651  20.342  67.023  1.00  0.00    -0.331 NA 
HETATM   20  C   UNL     1      -9.491  20.079  68.199  1.00  0.00    -0.276 C  
HETATM   21  C   UNL     1      -8.763  19.168  66.167  1.00  0.00    -0.219 C  
HETATM   22  C   UNL     1     -10.602  19.165  67.702  1.00  0.00    -0.546 C  
HETATM   23  C   UNL     1     -10.251  18.874  66.251  1.00  0.00    -0.491 C  
ENDBRANCH  18  19
ENDBRANCH  17  18
ENDBRANCH  16  17
ENDBRANCH  13  16
ENDBRANCH   8  10
ENDBRANCH   5   8
BRANCH   6  24
HETATM   24  N   UNL     1      -9.795  10.978  69.522  1.00  0.00    -0.428 NA 
HETATM   25  H   UNL     1     -10.337  11.312  70.319  1.00  0.00     0.000 HD 
BRANCH  24  26
HETATM   26  C   UNL     1      -9.336   9.646  69.673  1.00  0.00    -0.211 A  
HETATM   27  C   UNL     1      -8.417   9.224  70.639  1.00  0.00    -0.258 A  
HETATM   28  C   UNL     1      -9.701   8.706  68.692  1.00  0.00    -0.171 A  
HETATM   29  C   UNL     1      -7.873   7.928  70.629  1.00  0.00    -0.095 A  
HETATM   30  C   UNL     1      -8.198   7.032  69.613  1.00  0.00    -0.131 A  
HETATM   31  C   UNL     1      -9.098   7.436  68.629  1.00  0.00    -0.134 A  
BRANCH  31  32
HETATM   32  S   UNL     1      -9.515   6.321  67.312  1.00  0.00    -0.122 S  
HETATM   33  O   UNL     1     -10.869   6.633  66.904  1.00  0.00    -0.341 OA 
HETATM   34  O   UNL     1      -8.433   6.330  66.352  1.00  0.00    -0.116 OA 
BRANCH  32  35
HETATM   35  N   UNL     1      -9.607   4.804  68.029  1.00  0.00    -0.144 N  
HETATM   36  C   UNL     1      -9.265   2.447  68.571  1.00  0.00    -0.242 C  
HETATM   37  C   UNL     1      -9.340   3.137  66.194  1.00  0.00    -0.106 C  
HETATM   38  C   UNL     1      -7.377   3.773  67.651  1.00  0.00    -0.067 C  
HETATM   39  C   UNL     1      -8.891   3.580  67.590  1.00  0.00    -0.125 C  
HETATM   40  H   UNL     1     -10.214   4.715  68.845  1.00  0.00     0.000 HD 
ENDBRANCH  32  35
ENDBRANCH  31  32
ENDBRANCH  24  26
ENDBRANCH   6  24
TORSDOF 10
ENDMDL
MODEL      192
REMARK 921   NORMALIZED FREE ENERGY PREDICTED BY IDOCK:   -5.02 KCAL/MOL
REMARK 922        TOTAL FREE ENERGY PREDICTED BY IDOCK:   -9.30 KCAL/MOL
REMARK 923 INTER-LIGAND FREE ENERGY PREDICTED BY IDOCK:   -8.03 KCAL/MOL
REMARK 924 INTRA-LIGAND FREE ENERGY PREDICTED BY IDOCK:   -1.27 KCAL/MOL
REMARK 927      BINDING AFFINITY PREDICTED BY RF-SCORE:    0.00 PKD
ROOT
HETATM    1  C   UNL     1     -11.900  14.348  66.121  1.00  0.00    -0.391 C  
HETATM    2  C   UNL     1     -11.907  13.754  67.493  1.00  0.00    -0.422 A  
HETATM    3  C   UNL     1     -12.098  12.390  67.627  1.00  0.00    -0.006 A  
HETATM    4  N   UNL     1     -12.123  11.741  68.799  1.00  0.00    -0.388 NA 
HETATM    5  C   UNL     1     -11.983  12.493  69.891  1.00  0.00    -0.301 A  
HETATM    6  C   UNL     1     -11.700  14.462  68.675  1.00  0.00    -0.332 A  
HETATM    7  N   UNL     1     -11.763  13.823  69.857  1.00  0.00    -0.291 NA 
ENDROOT
BRANCH   5   8
HETATM    8  N   UNL     1     -12.086  11.798  71.098  1.00  0.00    -0.260 NA 
HETATM    9  H   UNL     1     -12.156  12.382  71.931  1.00  0.00     0.000 HD 
BRANCH   8  10
HETATM   10  C   UNL     1     -12.109  10.417  71.333  1.00  0.00    -0.327 A  
HETATM   11  C   UNL     1     -10.938   9.692  71.520  1.00  0.00    -0.266 A  
HETATM   12  C   UNL     1     -13.346   8.309  71.372  1.00  0.00    -0.240 A  
HETATM   13  C   UNL     1     -12.157   7.596  71.500  1.00  0.00    -0.310 A  
HETATM   14  C   UNL     1     -10.955   8.305  71.607  1.00  0.00    -0.327 A  
HETATM   15  C   UNL     1     -13.322   9.712  71.286  1.00  0.00    -0.403 A  
BRANCH  13  16
HETATM   16  O   UNL     1     -12.233   6.220  71.489  1.00  0.00    -0.246 OA 
BRANCH  16  17
HETATM   17  C   UNL     1     -10.993   5.612  71.854  1.00  0.00    -0.235 C  
BRANCH  17  18
HETATM   18  C   UNL     1     -10.933   5.109  73.297  1.00  0.00    -0.314 C  
BRANCH  18  19
HETATM   19  N   UNL     1      -9.530   5.083  73.739  1.00  0.00    -0.128 NA 
HETATM   20  C   UNL     1      -8.574   5.548  72.726  1.00  0.00    -0.120 C  
HETATM   21  C   UNL     1      -9.078   3.762  74.155  1.00  0.00    -0.089 C  
HETATM   22  C   UNL     1      -7.252   4.887  73.088  1.00  0.00    -0.085 C  
HETATM   23  C   UNL     1      -7.578   3.977  74.262  1.00  0.00    -0.075 C  
ENDBRANCH  18  19
ENDBRANCH  17  18
ENDBRANCH  16  17
ENDBRANCH  13  16
ENDBRANCH   8  10
ENDBRANCH   5   8
BRANCH   6  24
HETATM   24  N   UNL     1     -11.529  15.870  68.620  1.00  0.00    -0.382 NA 
HETATM   25  H   UNL     1     -12.410  16.386  68.617  1.00  0.00     0.000 HD 
BRANCH  24  26
HETATM   26  C   UNL     1     -10.387  16.708  68.567  1.00  0.00    -0.303 A  
HETATM   27  C   UNL     1     -10.415  18.076  68.281  1.00  0.00    -0.355 A  
HETATM   28  C   UNL     1      -9.119  16.103  68.653  1.00  0.00    -0.218 A  
HETATM   29  C   UNL     1      -9.237  18.815  68.076  1.00  0.00    -0.334 A  
HETATM   30  C   UNL     1      -7.993  18.186  68.101  1.00  0.00    -0.290 A  
HETATM   31  C   UNL     1      -7.942  16.819  68.366  1.00  0.00    -0.224 A  
BRANCH  31  32
HETATM   32  S   UNL     1      -6.373  15.989  68.385  1.00  0.00    -0.114 S  
HETATM   33  O   UNL     1      -5.476  16.757  67.546  1.00  0.00    -0.120 OA 
HETATM   34  O   UNL     1      -6.031  15.698  69.760  1.00  0.00    -0.136 OA 
BRANCH  32  35
HETATM   35  N   UNL     1      -6.624  14.547  67.559  1.00  0.00    -0.147 N  
HETATM   36  C   UNL     1      -6.885  12.183  67.004  1.00  0.00    -0.067 C  
HETATM   37  C   UNL     1      -5.134  12.854  68.622  1.00  0.00    -0.059 C  
HETATM   38  C   UNL     1      -7.578  12.992  69.249  1.00  0.00     0.380 C  
HETATM   39  C   UNL     1      -6.549  13.181  68.135  1.00  0.00    -0.107 C  
HETATM   40  H   UNL     1      -6.851  14.617  66.567  1.00  0.00     0.000 HD 
ENDBRANCH  32  35
ENDBRANCH  31  32
ENDBRANCH  24  26
ENDBRANCH   6  24
TORSDOF 10
ENDMDL
MODEL      193
REMARK 921   NORMALIZED FREE ENERGY PREDICTED BY IDOCK:   -5.01 KCAL/MOL
REMARK 922        TOTAL FREE ENERGY PREDICTED BY IDOCK:   -9.28 KCAL/MOL
REMARK 923 INTER-LIGAND FREE ENERGY PREDICTED BY IDOCK:   -8.32 KCAL/MOL
REMARK 924 INTRA-LIGAND FREE ENERGY PREDICTED BY IDOCK:   -0.96 KCAL/MOL
REMARK 927      BINDING AFFINITY PREDICTED BY RF-SCORE:    0.00 PKD
ROOT
HETATM    1  C   UNL     1      -5.798   8.331  68.164  1.00  0.00    -0.038 C  
HETATM    2  C   UNL     1      -7.129   8.801  67.670  1.00  0.00    -0.079 A  
HETATM    3  C   UNL     1      -7.445  10.144  67.781  1.00  0.00    -0.089 A  
HETATM    4  N   UNL     1      -8.600  10.686  67.375  1.00  0.00    -0.122 NA 
HETATM    5  C   UNL     1      -9.498   9.843  66.863  1.00  0.00    -0.163 A  
HETATM    6  C   UNL     1      -8.090   7.995  67.062  1.00  0.00    -0.116 A  
HETATM    7  N   UNL     1      -9.268   8.526  66.688  1.00  0.00    -0.165 NA 
ENDROOT
BRANCH   5   8
HETATM    8  N   UNL     1     -10.719  10.426  66.517  1.00  0.00    -0.144 NA 
HETATM    9  H   UNL     1     -11.517   9.792  66.510  1.00  0.00     0.000 HD 
BRANCH   8  10
HETATM   10  C   UNL     1     -11.008  11.755  66.178  1.00  0.00    -0.307 A  
HETATM   11  C   UNL     1     -10.484  12.343  65.033  1.00  0.00    -0.324 A  
HETATM   12  C   UNL     1     -11.938  13.929  66.795  1.00  0.00    -0.472 A  
HETATM   13  C   UNL     1     -11.355  14.513  65.673  1.00  0.00    -0.336 A  
HETATM   14  C   UNL     1     -10.654  13.699  64.776  1.00  0.00    -0.436 A  
HETATM   15  C   UNL     1     -11.763  12.558  67.047  1.00  0.00    -0.437 A  
BRANCH  13  16
HETATM   16  O   UNL     1     -11.483  15.877  65.524  1.00  0.00     0.001 OA 
BRANCH  16  17
HETATM   17  C   UNL     1     -10.225  16.511  65.280  1.00  0.00    -0.031 C  
BRANCH  17  18
HETATM   18  C   UNL     1      -9.243  16.445  66.450  1.00  0.00    -0.302 C  
BRANCH  18  19
HETATM   19  N   UNL     1      -9.161  17.771  67.081  1.00  0.00    -0.242 NA 
HETATM   20  C   UNL     1      -9.587  17.794  68.487  1.00  0.00    -0.322 C  
HETATM   21  C   UNL     1      -9.947  18.789  66.396  1.00  0.00    -0.392 C  
HETATM   22  C   UNL     1     -10.023  19.228  68.750  1.00  0.00    -0.511 C  
HETATM   23  C   UNL     1      -9.911  19.926  67.404  1.00  0.00    -0.541 C  
ENDBRANCH  18  19
ENDBRANCH  17  18
ENDBRANCH  16  17
ENDBRANCH  13  16
ENDBRANCH   8  10
ENDBRANCH   5   8
BRANCH   6  24
HETATM   24  N   UNL     1      -7.851   6.601  66.942  1.00  0.00    -0.106 NA 
HETATM   25  H   UNL     1      -7.231   6.360  66.168  1.00  0.00     0.000 HD 
BRANCH  24  26
HETATM   26  C   UNL     1      -8.297   5.474  67.677  1.00  0.00    -0.100 A  
HETATM   27  C   UNL     1      -8.803   4.302  67.108  1.00  0.00    -0.119 A  
HETATM   28  C   UNL     1      -8.388   5.590  69.076  1.00  0.00    -0.102 A  
HETATM   29  C   UNL     1      -9.386   3.289  67.890  1.00  0.00    -0.246 A  
HETATM   30  C   UNL     1      -9.526   3.451  69.267  1.00  0.00    -0.212 A  
HETATM   31  C   UNL     1      -9.045   4.619  69.854  1.00  0.00    -0.106 A  
BRANCH  31  32
HETATM   32  S   UNL     1      -9.227   4.859  71.604  1.00  0.00    -0.145 S  
HETATM   33  O   UNL     1     -10.253   3.941  72.053  1.00  0.00    -0.169 OA 
HETATM   34  O   UNL     1      -7.910   4.845  72.201  1.00  0.00    -0.103 OA 
BRANCH  32  35
HETATM   35  N   UNL     1      -9.898   6.390  71.774  1.00  0.00    -0.164 N  
HETATM   36  C   UNL     1     -11.458   8.268  71.827  1.00  0.00    -0.353 C  
HETATM   37  C   UNL     1     -11.655   6.590  70.016  1.00  0.00    -0.455 C  
HETATM   38  C   UNL     1     -12.273   5.990  72.390  1.00  0.00    -0.099 C  
HETATM   39  C   UNL     1     -11.307   6.766  71.497  1.00  0.00    -0.275 C  
HETATM   40  H   UNL     1      -9.278   7.132  72.098  1.00  0.00     0.000 HD 
ENDBRANCH  32  35
ENDBRANCH  31  32
ENDBRANCH  24  26
ENDBRANCH   6  24
TORSDOF 10
ENDMDL
MODEL      194
REMARK 921   NORMALIZED FREE ENERGY PREDICTED BY IDOCK:   -4.99 KCAL/MOL
REMARK 922        TOTAL FREE ENERGY PREDICTED BY IDOCK:   -9.26 KCAL/MOL
REMARK 923 INTER-LIGAND FREE ENERGY PREDICTED BY IDOCK:   -7.71 KCAL/MOL
REMARK 924 INTRA-LIGAND FREE ENERGY PREDICTED BY IDOCK:   -1.55 KCAL/MOL
REMARK 927      BINDING AFFINITY PREDICTED BY RF-SCORE:    0.00 PKD
ROOT
HETATM    1  C   UNL     1      -9.940   4.413  66.841  1.00  0.00    -0.210 C  
HETATM    2  C   UNL     1      -8.851   5.346  67.263  1.00  0.00    -0.105 A  
HETATM    3  C   UNL     1      -8.290   6.187  66.317  1.00  0.00    -0.124 A  
HETATM    4  N   UNL     1      -7.312   7.066  66.572  1.00  0.00    -0.081 NA 
HETATM    5  C   UNL     1      -6.847   7.084  67.821  1.00  0.00    -0.074 A  
HETATM    6  C   UNL     1      -8.361   5.473  68.562  1.00  0.00    -0.101 A  
HETATM    7  N   UNL     1      -7.351   6.325  68.815  1.00  0.00    -0.084 NA 
ENDROOT
BRANCH   5   8
HETATM    8  N   UNL     1      -5.780   7.959  68.037  1.00  0.00    -0.032 NA 
HETATM    9  H   UNL     1      -4.905   7.515  68.316  1.00  0.00     0.000 HD 
BRANCH   8  10
HETATM   10  C   UNL     1      -5.733   9.355  67.925  1.00  0.00    -0.041 A  
HETATM   11  C   UNL     1      -6.242  10.181  68.919  1.00  0.00    -0.043 A  
HETATM   12  C   UNL     1      -5.337  11.344  66.561  1.00  0.00    -0.132 A  
HETATM   13  C   UNL     1      -5.905  12.149  67.544  1.00  0.00    -0.122 A  
HETATM   14  C   UNL     1      -6.327  11.557  68.740  1.00  0.00    -0.054 A  
HETATM   15  C   UNL     1      -5.253   9.954  66.749  1.00  0.00    -0.041 A  
BRANCH  13  16
HETATM   16  O   UNL     1      -6.043  13.493  67.269  1.00  0.00    -0.327 OA 
BRANCH  16  17
HETATM   17  C   UNL     1      -7.324  13.991  67.658  1.00  0.00    -0.175 C  
BRANCH  17  18
HETATM   18  C   UNL     1      -7.438  15.516  67.662  1.00  0.00    -0.167 C  
BRANCH  18  19
HETATM   19  N   UNL     1      -8.377  15.930  66.607  1.00  0.00    -0.270 NA 
HETATM   20  C   UNL     1      -9.201  17.093  66.960  1.00  0.00    -0.241 C  
HETATM   21  C   UNL     1      -9.301  14.876  66.209  1.00  0.00    -0.296 C  
HETATM   22  C   UNL     1     -10.450  16.975  66.099  1.00  0.00    -0.274 C  
HETATM   23  C   UNL     1     -10.297  15.653  65.364  1.00  0.00    -0.421 C  
ENDBRANCH  18  19
ENDBRANCH  17  18
ENDBRANCH  16  17
ENDBRANCH  13  16
ENDBRANCH   8  10
ENDBRANCH   5   8
BRANCH   6  24
HETATM   24  N   UNL     1      -8.865   4.621  69.580  1.00  0.00    -0.082 NA 
HETATM   25  H   UNL     1      -8.631   3.638  69.438  1.00  0.00     0.000 HD 
BRANCH  24  26
HETATM   26  C   UNL     1      -9.626   4.856  70.752  1.00  0.00    -0.184 A  
HETATM   27  C   UNL     1      -9.734   3.964  71.823  1.00  0.00    -0.243 A  
HETATM   28  C   UNL     1     -10.458   5.990  70.784  1.00  0.00    -0.298 A  
HETATM   29  C   UNL     1     -10.637   4.179  72.879  1.00  0.00    -0.245 A  
HETATM   30  C   UNL     1     -11.498   5.274  72.861  1.00  0.00    -0.339 A  
HETATM   31  C   UNL     1     -11.422   6.167  71.794  1.00  0.00    -0.285 A  
BRANCH  31  32
HETATM   32  S   UNL     1     -12.521   7.560  71.737  1.00  0.00    -0.327 S  
HETATM   33  O   UNL     1     -13.845   7.044  71.461  1.00  0.00    -0.337 OA 
HETATM   34  O   UNL     1     -12.275   8.378  72.904  1.00  0.00    -0.274 OA 
BRANCH  32  35
HETATM   35  N   UNL     1     -12.082   8.414  70.358  1.00  0.00    -0.441 N  
HETATM   36  C   UNL     1     -11.129  10.066  68.833  1.00  0.00    -0.219 C  
HETATM   37  C   UNL     1     -12.078  10.826  70.991  1.00  0.00    -0.452 C  
HETATM   38  C   UNL     1      -9.925   9.507  70.933  1.00  0.00    -0.308 C  
HETATM   39  C   UNL     1     -11.312   9.682  70.318  1.00  0.00    -0.257 C  
HETATM   40  H   UNL     1     -12.372   8.023  69.461  1.00  0.00     0.000 HD 
ENDBRANCH  32  35
ENDBRANCH  31  32
ENDBRANCH  24  26
ENDBRANCH   6  24
TORSDOF 10
ENDMDL
MODEL      195
REMARK 921   NORMALIZED FREE ENERGY PREDICTED BY IDOCK:   -4.99 KCAL/MOL
REMARK 922        TOTAL FREE ENERGY PREDICTED BY IDOCK:   -9.26 KCAL/MOL
REMARK 923 INTER-LIGAND FREE ENERGY PREDICTED BY IDOCK:   -8.08 KCAL/MOL
REMARK 924 INTRA-LIGAND FREE ENERGY PREDICTED BY IDOCK:   -1.17 KCAL/MOL
REMARK 927      BINDING AFFINITY PREDICTED BY RF-SCORE:    0.00 PKD
ROOT
HETATM    1  C   UNL     1     -10.898  15.192  66.682  1.00  0.00    -0.318 C  
HETATM    2  C   UNL     1     -10.916  13.814  67.262  1.00  0.00    -0.302 A  
HETATM    3  C   UNL     1     -11.737  12.860  66.688  1.00  0.00    -0.390 A  
HETATM    4  N   UNL     1     -11.839  11.594  67.114  1.00  0.00    -0.607 NA 
HETATM    5  C   UNL     1     -11.111  11.272  68.184  1.00  0.00    -0.259 A  
HETATM    6  C   UNL     1     -10.134  13.384  68.333  1.00  0.00    -0.244 A  
HETATM    7  N   UNL     1     -10.261  12.125  68.790  1.00  0.00    -0.167 NA 
ENDROOT
BRANCH   5   8
HETATM    8  N   UNL     1     -11.295   9.967  68.647  1.00  0.00    -0.494 NA 
HETATM    9  H   UNL     1     -12.259   9.715  68.865  1.00  0.00     0.000 HD 
BRANCH   8  10
HETATM   10  C   UNL     1     -10.350   8.954  68.855  1.00  0.00    -0.212 A  
HETATM   11  C   UNL     1     -10.537   7.974  69.823  1.00  0.00    -0.238 A  
HETATM   12  C   UNL     1      -8.119   8.042  68.451  1.00  0.00    -0.122 A  
HETATM   13  C   UNL     1      -8.302   7.105  69.465  1.00  0.00    -0.133 A  
HETATM   14  C   UNL     1      -9.535   7.059  70.126  1.00  0.00    -0.162 A  
HETATM   15  C   UNL     1      -9.137   8.962  68.149  1.00  0.00    -0.142 A  
BRANCH  13  16
HETATM   16  O   UNL     1      -7.238   6.287  69.778  1.00  0.00    -0.070 OA 
BRANCH  16  17
HETATM   17  C   UNL     1      -6.923   5.386  68.714  1.00  0.00    -0.060 C  
BRANCH  17  18
HETATM   18  C   UNL     1      -8.025   4.378  68.388  1.00  0.00    -0.078 C  
BRANCH  18  19
HETATM   19  N   UNL     1      -8.171   4.283  66.927  1.00  0.00    -0.101 NA 
HETATM   20  C   UNL     1      -6.905   4.093  66.209  1.00  0.00    -0.054 C  
HETATM   21  C   UNL     1      -8.810   5.449  66.332  1.00  0.00    -0.123 C  
HETATM   22  C   UNL     1      -7.153   4.632  64.808  1.00  0.00    -0.062 C  
HETATM   23  C   UNL     1      -8.559   5.208  64.853  1.00  0.00    -0.151 C  
ENDBRANCH  18  19
ENDBRANCH  17  18
ENDBRANCH  16  17
ENDBRANCH  13  16
ENDBRANCH   8  10
ENDBRANCH   5   8
BRANCH   6  24
HETATM   24  N   UNL     1      -9.290  14.315  68.994  1.00  0.00    -0.396 NA 
HETATM   25  H   UNL     1      -9.749  14.802  69.764  1.00  0.00     0.000 HD 
BRANCH  24  26
HETATM   26  C   UNL     1      -7.941  14.705  68.804  1.00  0.00    -0.151 A  
HETATM   27  C   UNL     1      -6.854  13.827  68.775  1.00  0.00    -0.106 A  
HETATM   28  C   UNL     1      -7.645  16.081  68.800  1.00  0.00    -0.184 A  
HETATM   29  C   UNL     1      -5.527  14.289  68.754  1.00  0.00    -0.087 A  
HETATM   30  C   UNL     1      -5.252  15.654  68.815  1.00  0.00    -0.100 A  
HETATM   31  C   UNL     1      -6.319  16.549  68.863  1.00  0.00    -0.157 A  
BRANCH  31  32
HETATM   32  S   UNL     1      -5.997  18.292  68.960  1.00  0.00    -0.226 S  
HETATM   33  O   UNL     1      -5.609  18.576  70.326  1.00  0.00    -0.225 OA 
HETATM   34  O   UNL     1      -5.137  18.655  67.856  1.00  0.00    -0.164 OA 
BRANCH  32  35
HETATM   35  N   UNL     1      -7.495  19.030  68.764  1.00  0.00    -0.325 N  
HETATM   36  C   UNL     1      -9.432  20.175  67.817  1.00  0.00    -0.479 C  
HETATM   37  C   UNL     1      -7.161  20.878  67.124  1.00  0.00    -0.413 C  
HETATM   38  C   UNL     1      -8.094  18.652  66.381  1.00  0.00    -0.300 C  
HETATM   39  C   UNL     1      -8.005  19.663  67.523  1.00  0.00    -0.281 C  
HETATM   40  H   UNL     1      -8.112  19.044  69.576  1.00  0.00     0.000 HD 
ENDBRANCH  32  35
ENDBRANCH  31  32
ENDBRANCH  24  26
ENDBRANCH   6  24
TORSDOF 10
ENDMDL
MODEL      196
REMARK 921   NORMALIZED FREE ENERGY PREDICTED BY IDOCK:   -4.98 KCAL/MOL
REMARK 922        TOTAL FREE ENERGY PREDICTED BY IDOCK:   -9.23 KCAL/MOL
REMARK 923 INTER-LIGAND FREE ENERGY PREDICTED BY IDOCK:   -7.99 KCAL/MOL
REMARK 924 INTRA-LIGAND FREE ENERGY PREDICTED BY IDOCK:   -1.24 KCAL/MOL
REMARK 927      BINDING AFFINITY PREDICTED BY RF-SCORE:    0.00 PKD
ROOT
HETATM    1  C   UNL     1     -10.084  11.987  63.208  1.00  0.00    -0.379 C  
HETATM    2  C   UNL     1      -9.565  10.649  63.627  1.00  0.00    -0.360 A  
HETATM    3  C   UNL     1      -9.145   9.761  62.652  1.00  0.00    -0.279 A  
HETATM    4  N   UNL     1      -8.660   8.538  62.900  1.00  0.00    -0.090 NA 
HETATM    5  C   UNL     1      -8.623   8.169  64.181  1.00  0.00     0.196 A  
HETATM    6  C   UNL     1      -9.430  10.218  64.946  1.00  0.00    -0.279 A  
HETATM    7  N   UNL     1      -8.981   8.975  65.199  1.00  0.00    -0.192 NA 
ENDROOT
BRANCH   5   8
HETATM    8  N   UNL     1      -8.181   6.862  64.401  1.00  0.00    -0.312 NA 
HETATM    9  H   UNL     1      -7.696   6.429  63.614  1.00  0.00     0.000 HD 
BRANCH   8  10
HETATM   10  C   UNL     1      -8.305   6.059  65.542  1.00  0.00    -0.146 A  
HETATM   11  C   UNL     1      -9.460   5.330  65.796  1.00  0.00    -0.132 A  
HETATM   12  C   UNL     1      -7.462   5.367  67.729  1.00  0.00    -0.080 A  
HETATM   13  C   UNL     1      -8.651   4.691  67.990  1.00  0.00    -0.102 A  
HETATM   14  C   UNL     1      -9.636   4.652  66.997  1.00  0.00    -0.198 A  
HETATM   15  C   UNL     1      -7.291   6.048  66.512  1.00  0.00    -0.081 A  
BRANCH  13  16
HETATM   16  O   UNL     1      -8.799   4.117  69.234  1.00  0.00    -0.084 OA 
BRANCH  16  17
HETATM   17  C   UNL     1      -8.838   5.095  70.276  1.00  0.00    -0.120 C  
BRANCH  17  18
HETATM   18  C   UNL     1     -10.161   5.158  71.040  1.00  0.00    -0.227 C  
BRANCH  18  19
HETATM   19  N   UNL     1     -10.699   6.525  70.956  1.00  0.00    -0.234 NA 
HETATM   20  C   UNL     1     -10.031   7.488  71.842  1.00  0.00    -0.171 C  
HETATM   21  C   UNL     1     -12.122   6.607  71.257  1.00  0.00    -0.341 C  
HETATM   22  C   UNL     1     -11.056   8.586  72.085  1.00  0.00    -0.436 C  
HETATM   23  C   UNL     1     -12.317   8.108  71.382  1.00  0.00    -0.323 C  
ENDBRANCH  18  19
ENDBRANCH  17  18
ENDBRANCH  16  17
ENDBRANCH  13  16
ENDBRANCH   8  10
ENDBRANCH   5   8
BRANCH   6  24
HETATM   24  N   UNL     1      -9.870  11.060  66.000  1.00  0.00    -0.219 NA 
HETATM   25  H   UNL     1     -10.855  10.937  66.234  1.00  0.00     0.000 HD 
BRANCH  24  26
HETATM   26  C   UNL     1      -9.221  12.038  66.794  1.00  0.00    -0.201 A  
HETATM   27  C   UNL     1      -7.927  11.916  67.308  1.00  0.00    -0.171 A  
HETATM   28  C   UNL     1      -9.976  13.142  67.233  1.00  0.00    -0.230 A  
HETATM   29  C   UNL     1      -7.403  12.842  68.228  1.00  0.00    -0.117 A  
HETATM   30  C   UNL     1      -8.188  13.892  68.699  1.00  0.00    -0.088 A  
HETATM   31  C   UNL     1      -9.488  14.023  68.215  1.00  0.00    -0.216 A  
BRANCH  31  32
HETATM   32  S   UNL     1     -10.517  15.341  68.814  1.00  0.00    -0.246 S  
HETATM   33  O   UNL     1     -11.467  15.647  67.765  1.00  0.00    -0.307 OA 
HETATM   34  O   UNL     1     -10.968  14.994  70.143  1.00  0.00    -0.249 OA 
BRANCH  32  35
HETATM   35  N   UNL     1      -9.509  16.683  68.902  1.00  0.00    -0.253 N  
HETATM   36  C   UNL     1      -8.346  18.773  68.407  1.00  0.00    -0.373 C  
HETATM   37  C   UNL     1      -8.765  17.164  66.571  1.00  0.00    -0.293 C  
HETATM   38  C   UNL     1     -10.676  18.454  67.604  1.00  0.00    -0.390 C  
HETATM   39  C   UNL     1      -9.354  17.734  67.865  1.00  0.00    -0.266 C  
HETATM   40  H   UNL     1      -8.951  16.786  69.750  1.00  0.00     0.000 HD 
ENDBRANCH  32  35
ENDBRANCH  31  32
ENDBRANCH  24  26
ENDBRANCH   6  24
TORSDOF 10
ENDMDL
MODEL      197
REMARK 921   NORMALIZED FREE ENERGY PREDICTED BY IDOCK:   -4.93 KCAL/MOL
REMARK 922        TOTAL FREE ENERGY PREDICTED BY IDOCK:   -9.16 KCAL/MOL
REMARK 923 INTER-LIGAND FREE ENERGY PREDICTED BY IDOCK:   -8.10 KCAL/MOL
REMARK 924 INTRA-LIGAND FREE ENERGY PREDICTED BY IDOCK:   -1.07 KCAL/MOL
REMARK 927      BINDING AFFINITY PREDICTED BY RF-SCORE:    0.00 PKD
ROOT
HETATM    1  C   UNL     1      -7.856   6.325  63.463  1.00  0.00    -0.113 C  
HETATM    2  C   UNL     1      -7.940   7.466  64.425  1.00  0.00    -0.109 A  
HETATM    3  C   UNL     1      -7.170   8.592  64.193  1.00  0.00    -0.092 A  
HETATM    4  N   UNL     1      -7.159   9.676  64.979  1.00  0.00    -0.110 NA 
HETATM    5  C   UNL     1      -7.928   9.623  66.066  1.00  0.00    -0.108 A  
HETATM    6  C   UNL     1      -8.771   7.513  65.544  1.00  0.00    -0.035 A  
HETATM    7  N   UNL     1      -8.734   8.583  66.358  1.00  0.00    -0.126 NA 
ENDROOT
BRANCH   5   8
HETATM    8  N   UNL     1      -7.839  10.739  66.902  1.00  0.00    -0.124 NA 
HETATM    9  H   UNL     1      -6.900  10.960  67.233  1.00  0.00     0.000 HD 
BRANCH   8  10
HETATM   10  C   UNL     1      -8.850  11.599  67.352  1.00  0.00    -0.160 A  
HETATM   11  C   UNL     1      -9.723  11.226  68.367  1.00  0.00    -0.194 A  
HETATM   12  C   UNL     1     -10.165  13.638  67.056  1.00  0.00    -0.250 A  
HETATM   13  C   UNL     1     -11.062  13.219  68.035  1.00  0.00    -0.256 A  
HETATM   14  C   UNL     1     -10.811  12.020  68.711  1.00  0.00    -0.267 A  
HETATM   15  C   UNL     1      -9.066  12.831  66.715  1.00  0.00    -0.209 A  
BRANCH  13  16
HETATM   16  O   UNL     1     -12.170  14.007  68.264  1.00  0.00    -0.328 OA 
BRANCH  16  17
HETATM   17  C   UNL     1     -12.358  14.276  69.655  1.00  0.00    -0.266 C  
BRANCH  17  18
HETATM   18  C   UNL     1     -11.320  15.218  70.265  1.00  0.00    -0.292 C  
BRANCH  18  19
HETATM   19  N   UNL     1     -11.514  15.267  71.723  1.00  0.00    -0.418 NA 
HETATM   20  C   UNL     1     -12.470  14.275  72.234  1.00  0.00    -0.188 C  
HETATM   21  C   UNL     1     -11.971  16.564  72.204  1.00  0.00    -0.250 C  
HETATM   22  C   UNL     1     -12.993  14.858  73.539  1.00  0.00    -0.518 C  
HETATM   23  C   UNL     1     -12.357  16.236  73.636  1.00  0.00    -0.637 C  
ENDBRANCH  18  19
ENDBRANCH  17  18
ENDBRANCH  16  17
ENDBRANCH  13  16
ENDBRANCH   8  10
ENDBRANCH   5   8
BRANCH   6  24
HETATM   24  N   UNL     1      -9.566   6.382  65.866  1.00  0.00    -0.389 NA 
HETATM   25  H   UNL     1     -10.461   6.363  65.375  1.00  0.00     0.000 HD 
BRANCH  24  26
HETATM   26  C   UNL     1      -9.373   5.274  66.728  1.00  0.00    -0.134 A  
HETATM   27  C   UNL     1      -9.366   3.938  66.318  1.00  0.00    -0.186 A  
HETATM   28  C   UNL     1      -9.342   5.513  68.115  1.00  0.00    -0.123 A  
HETATM   29  C   UNL     1      -9.340   2.878  67.242  1.00  0.00    -0.176 A  
HETATM   30  C   UNL     1      -9.374   3.133  68.612  1.00  0.00    -0.236 A  
HETATM   31  C   UNL     1      -9.400   4.458  69.044  1.00  0.00    -0.154 A  
BRANCH  31  32
HETATM   32  S   UNL     1      -9.464   4.811  70.783  1.00  0.00    -0.176 S  
HETATM   33  O   UNL     1      -9.783   3.569  71.456  1.00  0.00    -0.156 OA 
HETATM   34  O   UNL     1      -8.278   5.559  71.136  1.00  0.00    -0.116 OA 
BRANCH  32  35
HETATM   35  N   UNL     1     -10.817   5.785  70.988  1.00  0.00    -0.261 N  
HETATM   36  C   UNL     1     -12.601   7.136  71.966  1.00  0.00    -0.253 C  
HETATM   37  C   UNL     1     -11.893   5.061  73.118  1.00  0.00    -0.101 C  
HETATM   38  C   UNL     1     -10.373   7.078  73.064  1.00  0.00    -0.291 C  
HETATM   39  C   UNL     1     -11.383   6.240  72.282  1.00  0.00    -0.294 C  
HETATM   40  H   UNL     1     -11.296   6.094  70.142  1.00  0.00     0.000 HD 
ENDBRANCH  32  35
ENDBRANCH  31  32
ENDBRANCH  24  26
ENDBRANCH   6  24
TORSDOF 10
ENDMDL
MODEL      198
REMARK 921   NORMALIZED FREE ENERGY PREDICTED BY IDOCK:   -4.93 KCAL/MOL
REMARK 922        TOTAL FREE ENERGY PREDICTED BY IDOCK:   -9.15 KCAL/MOL
REMARK 923 INTER-LIGAND FREE ENERGY PREDICTED BY IDOCK:   -7.52 KCAL/MOL
REMARK 924 INTRA-LIGAND FREE ENERGY PREDICTED BY IDOCK:   -1.63 KCAL/MOL
REMARK 927      BINDING AFFINITY PREDICTED BY RF-SCORE:    0.00 PKD
ROOT
HETATM    1  C   UNL     1      -7.893   7.022  62.769  1.00  0.00    -0.118 C  
HETATM    2  C   UNL     1      -7.661   7.919  63.943  1.00  0.00    -0.138 A  
HETATM    3  C   UNL     1      -6.848   9.027  63.784  1.00  0.00    -0.088 A  
HETATM    4  N   UNL     1      -6.566   9.904  64.757  1.00  0.00    -0.114 NA 
HETATM    5  C   UNL     1      -7.094   9.646  65.954  1.00  0.00    -0.098 A  
HETATM    6  C   UNL     1      -8.232   7.754  65.204  1.00  0.00    -0.132 A  
HETATM    7  N   UNL     1      -7.921   8.609  66.195  1.00  0.00    -0.104 NA 
ENDROOT
BRANCH   5   8
HETATM    8  N   UNL     1      -6.723  10.537  66.962  1.00  0.00    -0.079 NA 
HETATM    9  H   UNL     1      -5.763  10.442  67.295  1.00  0.00     0.000 HD 
BRANCH   8  10
HETATM   10  C   UNL     1      -7.473  11.544  67.584  1.00  0.00    -0.110 A  
HETATM   11  C   UNL     1      -8.801  11.344  67.943  1.00  0.00    -0.149 A  
HETATM   12  C   UNL     1      -7.708  13.882  68.258  1.00  0.00    -0.136 A  
HETATM   13  C   UNL     1      -9.053  13.676  68.556  1.00  0.00    -0.112 A  
HETATM   14  C   UNL     1      -9.583  12.387  68.425  1.00  0.00    -0.180 A  
HETATM   15  C   UNL     1      -6.924  12.821  67.772  1.00  0.00    -0.131 A  
BRANCH  13  16
HETATM   16  O   UNL     1      -9.796  14.770  68.942  1.00  0.00    -0.220 OA 
BRANCH  16  17
HETATM   17  C   UNL     1     -10.279  15.513  67.820  1.00  0.00    -0.243 C  
BRANCH  17  18
HETATM   18  C   UNL     1     -11.744  15.251  67.468  1.00  0.00    -0.140 C  
BRANCH  18  19
HETATM   19  N   UNL     1     -11.807  14.523  66.191  1.00  0.00    -0.363 NA 
HETATM   20  C   UNL     1     -12.257  13.131  66.315  1.00  0.00    -0.355 C  
HETATM   21  C   UNL     1     -10.534  14.483  65.484  1.00  0.00    -0.356 C  
HETATM   22  C   UNL     1     -11.679  12.413  65.104  1.00  0.00    -0.430 C  
HETATM   23  C   UNL     1     -10.823  13.455  64.402  1.00  0.00    -0.422 C  
ENDBRANCH  18  19
ENDBRANCH  17  18
ENDBRANCH  16  17
ENDBRANCH  13  16
ENDBRANCH   8  10
ENDBRANCH   5   8
BRANCH   6  24
HETATM   24  N   UNL     1      -9.052   6.622  65.452  1.00  0.00    -0.364 NA 
HETATM   25  H   UNL     1      -9.778   6.485  64.749  1.00  0.00     0.000 HD 
BRANCH  24  26
HETATM   26  C   UNL     1      -9.069   5.642  66.476  1.00  0.00    -0.138 A  
HETATM   27  C   UNL     1      -8.819   4.281  66.280  1.00  0.00    -0.116 A  
HETATM   28  C   UNL     1      -9.519   6.027  67.752  1.00  0.00    -0.112 A  
HETATM   29  C   UNL     1      -9.017   3.335  67.301  1.00  0.00    -0.180 A  
HETATM   30  C   UNL     1      -9.524   3.727  68.539  1.00  0.00    -0.211 A  
HETATM   31  C   UNL     1      -9.798   5.077  68.751  1.00  0.00    -0.168 A  
BRANCH  31  32
HETATM   32  S   UNL     1     -10.464   5.599  70.312  1.00  0.00    -0.301 S  
HETATM   33  O   UNL     1     -11.719   6.267  70.036  1.00  0.00    -0.408 OA 
HETATM   34  O   UNL     1     -10.407   4.480  71.226  1.00  0.00    -0.145 OA 
BRANCH  32  35
HETATM   35  N   UNL     1      -9.429   6.809  70.851  1.00  0.00    -0.158 N  
HETATM   36  C   UNL     1      -8.529   8.820  71.905  1.00  0.00    -0.151 C  
HETATM   37  C   UNL     1     -10.728   8.937  70.771  1.00  0.00    -0.287 C  
HETATM   38  C   UNL     1     -10.471   7.667  72.939  1.00  0.00    -0.394 C  
HETATM   39  C   UNL     1      -9.821   8.027  71.605  1.00  0.00    -0.170 C  
HETATM   40  H   UNL     1      -8.438   6.696  70.641  1.00  0.00     0.000 HD 
ENDBRANCH  32  35
ENDBRANCH  31  32
ENDBRANCH  24  26
ENDBRANCH   6  24
TORSDOF 10
ENDMDL
MODEL      199
REMARK 921   NORMALIZED FREE ENERGY PREDICTED BY IDOCK:   -4.90 KCAL/MOL
REMARK 922        TOTAL FREE ENERGY PREDICTED BY IDOCK:   -9.11 KCAL/MOL
REMARK 923 INTER-LIGAND FREE ENERGY PREDICTED BY IDOCK:   -7.83 KCAL/MOL
REMARK 924 INTRA-LIGAND FREE ENERGY PREDICTED BY IDOCK:   -1.28 KCAL/MOL
REMARK 927      BINDING AFFINITY PREDICTED BY RF-SCORE:    0.00 PKD
ROOT
HETATM    1  C   UNL     1      -8.899   5.624  67.146  1.00  0.00    -0.106 C  
HETATM    2  C   UNL     1      -8.655   7.083  66.925  1.00  0.00    -0.120 A  
HETATM    3  C   UNL     1      -8.611   7.562  65.628  1.00  0.00    -0.114 A  
HETATM    4  N   UNL     1      -8.403   8.844  65.302  1.00  0.00    -0.150 NA 
HETATM    5  C   UNL     1      -8.196   9.684  66.317  1.00  0.00    -0.116 A  
HETATM    6  C   UNL     1      -8.499   8.032  67.934  1.00  0.00    -0.125 A  
HETATM    7  N   UNL     1      -8.250   9.314  67.612  1.00  0.00    -0.114 NA 
ENDROOT
BRANCH   5   8
HETATM    8  N   UNL     1      -7.909  10.998  65.941  1.00  0.00    -0.327 NA 
HETATM    9  H   UNL     1      -7.653  11.124  64.961  1.00  0.00     0.000 HD 
BRANCH   8  10
HETATM   10  C   UNL     1      -7.922  12.169  66.710  1.00  0.00    -0.023 A  
HETATM   11  C   UNL     1      -8.852  13.177  66.485  1.00  0.00     0.005 A  
HETATM   12  C   UNL     1      -6.836  13.624  68.346  1.00  0.00    -0.102 A  
HETATM   13  C   UNL     1      -7.741  14.643  68.064  1.00  0.00    -0.132 A  
HETATM   14  C   UNL     1      -8.772  14.395  67.149  1.00  0.00    -0.243 A  
HETATM   15  C   UNL     1      -6.925  12.394  67.671  1.00  0.00    -0.132 A  
BRANCH  13  16
HETATM   16  O   UNL     1      -7.552  15.857  68.689  1.00  0.00    -0.144 OA 
BRANCH  16  17
HETATM   17  C   UNL     1      -7.238  16.895  67.759  1.00  0.00    -0.145 C  
BRANCH  17  18
HETATM   18  C   UNL     1      -7.333  18.310  68.331  1.00  0.00    -0.275 C  
BRANCH  18  19
HETATM   19  N   UNL     1      -8.423  19.030  67.652  1.00  0.00    -0.284 NA 
HETATM   20  C   UNL     1      -9.587  19.298  68.506  1.00  0.00    -0.403 C  
HETATM   21  C   UNL     1      -8.927  18.338  66.474  1.00  0.00    -0.274 C  
HETATM   22  C   UNL     1     -10.761  19.442  67.548  1.00  0.00    -0.570 C  
HETATM   23  C   UNL     1     -10.187  19.132  66.175  1.00  0.00    -0.535 C  
ENDBRANCH  18  19
ENDBRANCH  17  18
ENDBRANCH  16  17
ENDBRANCH  13  16
ENDBRANCH   8  10
ENDBRANCH   5   8
BRANCH   6  24
HETATM   24  N   UNL     1      -8.501   7.611  69.290  1.00  0.00    -0.137 NA 
HETATM   25  H   UNL     1      -7.649   7.119  69.563  1.00  0.00     0.000 HD 
BRANCH  24  26
HETATM   26  C   UNL     1      -9.442   7.734  70.342  1.00  0.00    -0.164 A  
HETATM   27  C   UNL     1      -9.626   6.792  71.359  1.00  0.00    -0.170 A  
HETATM   28  C   UNL     1     -10.366   8.793  70.283  1.00  0.00    -0.227 A  
HETATM   29  C   UNL     1     -10.688   6.888  72.276  1.00  0.00    -0.253 A  
HETATM   30  C   UNL     1     -11.630   7.908  72.162  1.00  0.00    -0.380 A  
HETATM   31  C   UNL     1     -11.478   8.848  71.144  1.00  0.00    -0.301 A  
BRANCH  31  32
HETATM   32  S   UNL     1     -12.675  10.146  70.965  1.00  0.00    -0.395 S  
HETATM   33  O   UNL     1     -13.982   9.523  70.976  1.00  0.00    -0.168 OA 
HETATM   34  O   UNL     1     -12.349  11.195  71.906  1.00  0.00    -0.061 OA 
BRANCH  32  35
HETATM   35  N   UNL     1     -12.472  10.722  69.399  1.00  0.00    -0.457 N  
HETATM   36  C   UNL     1     -11.752  12.014  67.456  1.00  0.00    -0.351 C  
HETATM   37  C   UNL     1     -12.214  13.195  69.584  1.00  0.00    -0.241 C  
HETATM   38  C   UNL     1     -10.188  11.703  69.362  1.00  0.00     0.220 C  
HETATM   39  C   UNL     1     -11.659  11.895  68.994  1.00  0.00    -0.317 C  
HETATM   40  H   UNL     1     -12.955  10.217  68.656  1.00  0.00     0.000 HD 
ENDBRANCH  32  35
ENDBRANCH  31  32
ENDBRANCH  24  26
ENDBRANCH   6  24
TORSDOF 10
ENDMDL
MODEL      200
REMARK 921   NORMALIZED FREE ENERGY PREDICTED BY IDOCK:   -4.89 KCAL/MOL
REMARK 922        TOTAL FREE ENERGY PREDICTED BY IDOCK:   -9.10 KCAL/MOL
REMARK 923 INTER-LIGAND FREE ENERGY PREDICTED BY IDOCK:   -7.69 KCAL/MOL
REMARK 924 INTRA-LIGAND FREE ENERGY PREDICTED BY IDOCK:   -1.41 KCAL/MOL
REMARK 927      BINDING AFFINITY PREDICTED BY RF-SCORE:    0.00 PKD
ROOT
HETATM    1  C   UNL     1     -11.084   8.113  72.818  1.00  0.00    -0.407 C  
HETATM    2  C   UNL     1     -10.911   7.305  71.571  1.00  0.00    -0.248 A  
HETATM    3  C   UNL     1     -10.652   5.951  71.685  1.00  0.00    -0.241 A  
HETATM    4  N   UNL     1     -10.480   5.123  70.647  1.00  0.00    -0.234 NA 
HETATM    5  C   UNL     1     -10.535   5.679  69.436  1.00  0.00    -0.297 A  
HETATM    6  C   UNL     1     -11.023   7.799  70.273  1.00  0.00    -0.247 A  
HETATM    7  N   UNL     1     -10.812   6.981  69.226  1.00  0.00    -0.231 NA 
ENDROOT
BRANCH   5   8
HETATM    8  N   UNL     1     -10.280   4.804  68.377  1.00  0.00    -0.044 NA 
HETATM    9  H   UNL     1     -10.685   3.873  68.475  1.00  0.00     0.000 HD 
BRANCH   8  10
HETATM   10  C   UNL     1      -9.548   5.016  67.201  1.00  0.00    -0.152 A  
HETATM   11  C   UNL     1     -10.037   4.625  65.961  1.00  0.00    -0.287 A  
HETATM   12  C   UNL     1      -7.449   5.630  66.111  1.00  0.00    -0.082 A  
HETATM   13  C   UNL     1      -7.935   5.177  64.887  1.00  0.00    -0.102 A  
HETATM   14  C   UNL     1      -9.250   4.704  64.818  1.00  0.00    -0.133 A  
HETATM   15  C   UNL     1      -8.251   5.548  67.262  1.00  0.00    -0.101 A  
BRANCH  13  16
HETATM   16  O   UNL     1      -7.074   5.198  63.811  1.00  0.00    -0.046 OA 
BRANCH  16  17
HETATM   17  C   UNL     1      -6.455   6.475  63.644  1.00  0.00    -0.040 C  
BRANCH  17  18
HETATM   18  C   UNL     1      -7.322   7.513  62.932  1.00  0.00    -0.099 C  
BRANCH  18  19
HETATM   19  N   UNL     1      -7.514   8.669  63.821  1.00  0.00    -0.111 NA 
HETATM   20  C   UNL     1      -6.465   8.825  64.838  1.00  0.00    -0.065 C  
HETATM   21  C   UNL     1      -8.782   8.645  64.539  1.00  0.00     0.001 C  
HETATM   22  C   UNL     1      -7.118   9.602  65.972  1.00  0.00    -0.097 C  
HETATM   23  C   UNL     1      -8.573   9.753  65.557  1.00  0.00    -0.158 C  
ENDBRANCH  18  19
ENDBRANCH  17  18
ENDBRANCH  16  17
ENDBRANCH  13  16
ENDBRANCH   8  10
ENDBRANCH   5   8
BRANCH   6  24
HETATM   24  N   UNL     1     -11.255   9.186  70.076  1.00  0.00    -0.383 NA 
HETATM   25  H   UNL     1     -12.109   9.522  70.522  1.00  0.00     0.000 HD 
BRANCH  24  26
HETATM   26  C   UNL     1     -10.544  10.200  69.386  1.00  0.00    -0.237 A  
HETATM   27  C   UNL     1      -9.172  10.435  69.510  1.00  0.00    -0.143 A  
HETATM   28  C   UNL     1     -11.284  11.139  68.644  1.00  0.00    -0.314 A  
HETATM   29  C   UNL     1      -8.556  11.559  68.933  1.00  0.00     0.024 A  
HETATM   30  C   UNL     1      -9.316  12.512  68.256  1.00  0.00    -0.193 A  
HETATM   31  C   UNL     1     -10.689  12.308  68.136  1.00  0.00    -0.216 A  
BRANCH  31  32
HETATM   32  S   UNL     1     -11.683  13.516  67.295  1.00  0.00    -0.396 S  
HETATM   33  O   UNL     1     -10.776  14.498  66.738  1.00  0.00    -0.284 OA 
HETATM   34  O   UNL     1     -12.625  12.816  66.450  1.00  0.00    -0.326 OA 
BRANCH  32  35
HETATM   35  N   UNL     1     -12.519  14.324  68.509  1.00  0.00    -0.508 N  
HETATM   36  C   UNL     1     -13.154  15.329  70.642  1.00  0.00    -0.407 C  
HETATM   37  C   UNL     1     -11.979  13.148  70.641  1.00  0.00    -0.246 C  
HETATM   38  C   UNL     1     -10.757  15.261  69.992  1.00  0.00    -0.297 C  
HETATM   39  C   UNL     1     -12.076  14.494  69.915  1.00  0.00    -0.336 C  
HETATM   40  H   UNL     1     -13.416  14.737  68.255  1.00  0.00     0.000 HD 
ENDBRANCH  32  35
ENDBRANCH  31  32
ENDBRANCH  24  26
ENDBRANCH   6  24
TORSDOF 10
ENDMDL
MODEL      201
REMARK 921   NORMALIZED FREE ENERGY PREDICTED BY IDOCK:   -4.89 KCAL/MOL
REMARK 922        TOTAL FREE ENERGY PREDICTED BY IDOCK:   -9.10 KCAL/MOL
REMARK 923 INTER-LIGAND FREE ENERGY PREDICTED BY IDOCK:   -7.82 KCAL/MOL
REMARK 924 INTRA-LIGAND FREE ENERGY PREDICTED BY IDOCK:   -1.28 KCAL/MOL
REMARK 927      BINDING AFFINITY PREDICTED BY RF-SCORE:    0.00 PKD
ROOT
HETATM    1  C   UNL     1     -13.269   8.827  72.448  1.00  0.00    -0.441 C  
HETATM    2  C   UNL     1     -12.167   8.315  71.577  1.00  0.00    -0.334 A  
HETATM    3  C   UNL     1     -11.533   7.137  71.928  1.00  0.00    -0.270 A  
HETATM    4  N   UNL     1     -10.536   6.576  71.231  1.00  0.00    -0.223 NA 
HETATM    5  C   UNL     1     -10.130   7.240  70.148  1.00  0.00    -0.189 A  
HETATM    6  C   UNL     1     -11.734   8.914  70.395  1.00  0.00    -0.035 A  
HETATM    7  N   UNL     1     -10.707   8.378  69.712  1.00  0.00    -0.228 NA 
ENDROOT
BRANCH   5   8
HETATM    8  N   UNL     1      -9.042   6.668  69.484  1.00  0.00    -0.144 NA 
HETATM    9  H   UNL     1      -8.863   5.689  69.706  1.00  0.00     0.000 HD 
BRANCH   8  10
HETATM   10  C   UNL     1      -8.160   7.242  68.558  1.00  0.00    -0.125 A  
HETATM   11  C   UNL     1      -6.857   7.577  68.907  1.00  0.00    -0.068 A  
HETATM   12  C   UNL     1      -7.783   8.291  66.384  1.00  0.00    -0.091 A  
HETATM   13  C   UNL     1      -6.500   8.670  66.772  1.00  0.00    -0.060 A  
HETATM   14  C   UNL     1      -6.034   8.276  68.032  1.00  0.00    -0.043 A  
HETATM   15  C   UNL     1      -8.609   7.583  67.273  1.00  0.00    -0.118 A  
BRANCH  13  16
HETATM   16  O   UNL     1      -5.768   9.440  65.895  1.00  0.00    -0.048 OA 
BRANCH  16  17
HETATM   17  C   UNL     1      -5.628  10.787  66.352  1.00  0.00    -0.094 C  
BRANCH  17  18
HETATM   18  C   UNL     1      -6.950  11.518  66.589  1.00  0.00    -0.069 C  
BRANCH  18  19
HETATM   19  N   UNL     1      -6.840  12.320  67.818  1.00  0.00    -0.096 NA 
HETATM   20  C   UNL     1      -6.537  13.738  67.583  1.00  0.00    -0.168 C  
HETATM   21  C   UNL     1      -5.825  11.830  68.741  1.00  0.00    -0.047 C  
HETATM   22  C   UNL     1      -5.869  14.222  68.862  1.00  0.00    -0.086 C  
HETATM   23  C   UNL     1      -5.737  12.981  69.730  1.00  0.00    -0.114 C  
ENDBRANCH  18  19
ENDBRANCH  17  18
ENDBRANCH  16  17
ENDBRANCH  13  16
ENDBRANCH   8  10
ENDBRANCH   5   8
BRANCH   6  24
HETATM   24  N   UNL     1     -12.315  10.143  69.986  1.00  0.00    -0.515 NA 
HETATM   25  H   UNL     1     -13.245  10.301  70.374  1.00  0.00     0.000 HD 
BRANCH  24  26
HETATM   26  C   UNL     1     -11.868  11.197  69.150  1.00  0.00    -0.350 A  
HETATM   27  C   UNL     1     -11.260  11.020  67.904  1.00  0.00    -0.375 A  
HETATM   28  C   UNL     1     -11.889  12.506  69.666  1.00  0.00    -0.382 A  
HETATM   29  C   UNL     1     -10.686  12.094  67.200  1.00  0.00    -0.267 A  
HETATM   30  C   UNL     1     -10.659  13.371  67.756  1.00  0.00    -0.252 A  
HETATM   31  C   UNL     1     -11.243  13.567  69.006  1.00  0.00    -0.269 A  
BRANCH  31  32
HETATM   32  S   UNL     1     -11.206  15.181  69.746  1.00  0.00    -0.299 S  
HETATM   33  O   UNL     1     -12.139  16.007  69.008  1.00  0.00    -0.293 OA 
HETATM   34  O   UNL     1     -11.331  15.024  71.179  1.00  0.00    -0.312 OA 
BRANCH  32  35
HETATM   35  N   UNL     1      -9.686  15.799  69.385  1.00  0.00    -0.272 N  
HETATM   36  C   UNL     1      -7.862  17.129  68.453  1.00  0.00    -0.244 C  
HETATM   37  C   UNL     1      -9.754  16.488  66.990  1.00  0.00    -0.255 C  
HETATM   38  C   UNL     1     -10.077  18.190  68.828  1.00  0.00    -0.392 C  
HETATM   39  C   UNL     1      -9.387  16.888  68.422  1.00  0.00    -0.255 C  
HETATM   40  H   UNL     1      -8.892  15.386  69.875  1.00  0.00     0.000 HD 
ENDBRANCH  32  35
ENDBRANCH  31  32
ENDBRANCH  24  26
ENDBRANCH   6  24
TORSDOF 10
ENDMDL
MODEL      202
REMARK 921   NORMALIZED FREE ENERGY PREDICTED BY IDOCK:   -4.89 KCAL/MOL
REMARK 922        TOTAL FREE ENERGY PREDICTED BY IDOCK:   -9.09 KCAL/MOL
REMARK 923 INTER-LIGAND FREE ENERGY PREDICTED BY IDOCK:   -7.79 KCAL/MOL
REMARK 924 INTRA-LIGAND FREE ENERGY PREDICTED BY IDOCK:   -1.30 KCAL/MOL
REMARK 927      BINDING AFFINITY PREDICTED BY RF-SCORE:    0.00 PKD
ROOT
HETATM    1  C   UNL     1     -10.091  11.402  63.133  1.00  0.00    -0.390 C  
HETATM    2  C   UNL     1      -9.447  10.199  63.745  1.00  0.00    -0.330 A  
HETATM    3  C   UNL     1      -8.852   9.267  62.914  1.00  0.00    -0.173 A  
HETATM    4  N   UNL     1      -8.243   8.153  63.340  1.00  0.00    -0.111 NA 
HETATM    5  C   UNL     1      -8.257   7.941  64.656  1.00  0.00    -0.091 A  
HETATM    6  C   UNL     1      -9.360   9.943  65.113  1.00  0.00    -0.258 A  
HETATM    7  N   UNL     1      -8.785   8.806  65.544  1.00  0.00    -0.176 NA 
ENDROOT
BRANCH   5   8
HETATM    8  N   UNL     1      -7.678   6.736  65.062  1.00  0.00    -0.101 NA 
HETATM    9  H   UNL     1      -6.803   6.496  64.596  1.00  0.00     0.000 HD 
BRANCH   8  10
HETATM   10  C   UNL     1      -8.123   5.809  66.014  1.00  0.00    -0.110 A  
HETATM   11  C   UNL     1      -9.360   5.187  65.900  1.00  0.00    -0.167 A  
HETATM   12  C   UNL     1      -7.859   4.748  68.200  1.00  0.00    -0.082 A  
HETATM   13  C   UNL     1      -9.126   4.181  68.094  1.00  0.00    -0.135 A  
HETATM   14  C   UNL     1      -9.859   4.381  66.918  1.00  0.00    -0.235 A  
HETATM   15  C   UNL     1      -7.361   5.560  67.167  1.00  0.00    -0.080 A  
BRANCH  13  16
HETATM   16  O   UNL     1      -9.600   3.469  69.175  1.00  0.00    -0.173 OA 
BRANCH  16  17
HETATM   17  C   UNL     1      -9.226   4.068  70.417  1.00  0.00    -0.134 C  
BRANCH  17  18
HETATM   18  C   UNL     1     -10.403   4.521  71.283  1.00  0.00    -0.032 C  
BRANCH  18  19
HETATM   19  N   UNL     1     -10.267   5.959  71.562  1.00  0.00    -0.199 NA 
HETATM   20  C   UNL     1      -9.906   6.269  72.952  1.00  0.00    -0.167 C  
HETATM   21  C   UNL     1     -11.474   6.722  71.271  1.00  0.00    -0.302 C  
HETATM   22  C   UNL     1     -10.414   7.683  73.193  1.00  0.00    -0.433 C  
HETATM   23  C   UNL     1     -11.147   8.059  71.915  1.00  0.00    -0.333 C  
ENDBRANCH  18  19
ENDBRANCH  17  18
ENDBRANCH  16  17
ENDBRANCH  13  16
ENDBRANCH   8  10
ENDBRANCH   5   8
BRANCH   6  24
HETATM   24  N   UNL     1      -9.976  10.838  66.026  1.00  0.00    -0.233 NA 
HETATM   25  H   UNL     1     -10.942  10.594  66.245  1.00  0.00     0.000 HD 
BRANCH  24  26
HETATM   26  C   UNL     1      -9.524  12.002  66.698  1.00  0.00    -0.217 A  
HETATM   27  C   UNL     1      -8.230  12.182  67.195  1.00  0.00    -0.182 A  
HETATM   28  C   UNL     1     -10.475  12.985  67.031  1.00  0.00    -0.249 A  
HETATM   29  C   UNL     1      -7.891  13.285  67.999  1.00  0.00    -0.148 A  
HETATM   30  C   UNL     1      -8.861  14.213  68.371  1.00  0.00    -0.187 A  
HETATM   31  C   UNL     1     -10.163  14.044  67.902  1.00  0.00    -0.240 A  
BRANCH  31  32
HETATM   32  S   UNL     1     -11.422  15.202  68.377  1.00  0.00    -0.340 S  
HETATM   33  O   UNL     1     -11.028  16.494  67.855  1.00  0.00    -0.343 OA 
HETATM   34  O   UNL     1     -12.709  14.632  68.045  1.00  0.00     0.362 OA 
BRANCH  32  35
HETATM   35  N   UNL     1     -11.289  15.341  70.047  1.00  0.00    -0.267 N  
HETATM   36  C   UNL     1     -11.670  15.128  72.449  1.00  0.00    -0.487 C  
HETATM   37  C   UNL     1     -13.617  15.374  70.939  1.00  0.00    -0.373 C  
HETATM   38  C   UNL     1     -12.267  13.240  70.948  1.00  0.00    -0.346 C  
HETATM   39  C   UNL     1     -12.217  14.764  71.051  1.00  0.00    -0.329 C  
HETATM   40  H   UNL     1     -10.495  15.872  70.404  1.00  0.00     0.000 HD 
ENDBRANCH  32  35
ENDBRANCH  31  32
ENDBRANCH  24  26
ENDBRANCH   6  24
TORSDOF 10
ENDMDL
MODEL      203
REMARK 921   NORMALIZED FREE ENERGY PREDICTED BY IDOCK:   -4.84 KCAL/MOL
REMARK 922        TOTAL FREE ENERGY PREDICTED BY IDOCK:   -9.01 KCAL/MOL
REMARK 923 INTER-LIGAND FREE ENERGY PREDICTED BY IDOCK:   -7.77 KCAL/MOL
REMARK 924 INTRA-LIGAND FREE ENERGY PREDICTED BY IDOCK:   -1.24 KCAL/MOL
REMARK 927      BINDING AFFINITY PREDICTED BY RF-SCORE:    0.00 PKD
ROOT
HETATM    1  C   UNL     1      -6.206   8.451  71.831  1.00  0.00    -0.061 C  
HETATM    2  C   UNL     1      -6.247   9.719  71.039  1.00  0.00    -0.058 A  
HETATM    3  C   UNL     1      -5.204  10.619  71.167  1.00  0.00    -0.098 A  
HETATM    4  N   UNL     1      -5.126  11.784  70.512  1.00  0.00    -0.096 NA 
HETATM    5  C   UNL     1      -6.153  12.082  69.716  1.00  0.00    -0.145 A  
HETATM    6  C   UNL     1      -7.250  10.068  70.136  1.00  0.00    -0.161 A  
HETATM    7  N   UNL     1      -7.196  11.255  69.505  1.00  0.00    -0.072 NA 
ENDROOT
BRANCH   5   8
HETATM    8  N   UNL     1      -6.075  13.335  69.104  1.00  0.00    -0.088 NA 
HETATM    9  H   UNL     1      -5.130  13.680  68.937  1.00  0.00     0.000 HD 
BRANCH   8  10
HETATM   10  C   UNL     1      -7.105  14.188  68.685  1.00  0.00    -0.110 A  
HETATM   11  C   UNL     1      -7.529  14.220  67.362  1.00  0.00    -0.172 A  
HETATM   12  C   UNL     1      -8.596  16.070  69.143  1.00  0.00    -0.247 A  
HETATM   13  C   UNL     1      -8.965  16.124  67.801  1.00  0.00    -0.192 A  
HETATM   14  C   UNL     1      -8.447  15.167  66.921  1.00  0.00    -0.278 A  
HETATM   15  C   UNL     1      -7.669  15.109  69.581  1.00  0.00    -0.148 A  
BRANCH  13  16
HETATM   16  O   UNL     1      -9.806  17.143  67.411  1.00  0.00    -0.253 OA 
BRANCH  16  17
HETATM   17  C   UNL     1      -9.142  18.100  66.582  1.00  0.00    -0.282 C  
BRANCH  17  18
HETATM   18  C   UNL     1      -9.022  19.495  67.195  1.00  0.00    -0.303 C  
BRANCH  18  19
HETATM   19  N   UNL     1      -7.622  19.728  67.586  1.00  0.00    -0.274 NA 
HETATM   20  C   UNL     1      -7.341  19.455  69.001  1.00  0.00    -0.360 C  
HETATM   21  C   UNL     1      -7.169  21.090  67.332  1.00  0.00    -0.295 C  
HETATM   22  C   UNL     1      -6.125  20.305  69.340  1.00  0.00    -0.374 C  
HETATM   23  C   UNL     1      -5.848  21.112  68.081  1.00  0.00    -0.380 C  
ENDBRANCH  18  19
ENDBRANCH  17  18
ENDBRANCH  16  17
ENDBRANCH  13  16
ENDBRANCH   8  10
ENDBRANCH   5   8
BRANCH   6  24
HETATM   24  N   UNL     1      -8.369   9.210  69.975  1.00  0.00    -0.133 NA 
HETATM   25  H   UNL     1      -8.683   8.784  70.848  1.00  0.00     0.000 HD 
BRANCH  24  26
HETATM   26  C   UNL     1      -9.140   8.823  68.851  1.00  0.00    -0.141 A  
HETATM   27  C   UNL     1      -9.977   7.704  68.807  1.00  0.00    -0.178 A  
HETATM   28  C   UNL     1      -8.939   9.512  67.641  1.00  0.00    -0.124 A  
HETATM   29  C   UNL     1     -10.583   7.277  67.612  1.00  0.00    -0.316 A  
HETATM   30  C   UNL     1     -10.320   7.935  66.412  1.00  0.00     0.054 A  
HETATM   31  C   UNL     1      -9.474   9.042  66.428  1.00  0.00    -0.226 A  
BRANCH  31  32
HETATM   32  S   UNL     1      -9.108   9.886  64.910  1.00  0.00    -0.242 S  
HETATM   33  O   UNL     1      -8.292  11.034  65.249  1.00  0.00    -0.085 OA 
HETATM   34  O   UNL     1      -8.646   8.909  63.949  1.00  0.00    -0.175 OA 
BRANCH  32  35
HETATM   35  N   UNL     1     -10.575  10.523  64.392  1.00  0.00    -0.269 N  
HETATM   36  C   UNL     1     -12.481  12.003  64.018  1.00  0.00    -0.492 C  
HETATM   37  C   UNL     1     -11.425  11.943  66.258  1.00  0.00    -0.367 C  
HETATM   38  C   UNL     1     -10.214  12.982  64.300  1.00  0.00    -0.316 C  
HETATM   39  C   UNL     1     -11.133  11.849  64.757  1.00  0.00    -0.311 C  
HETATM   40  H   UNL     1     -11.135   9.943  63.768  1.00  0.00     0.000 HD 
ENDBRANCH  32  35
ENDBRANCH  31  32
ENDBRANCH  24  26
ENDBRANCH   6  24
TORSDOF 10
ENDMDL
MODEL      204
REMARK 921   NORMALIZED FREE ENERGY PREDICTED BY IDOCK:   -4.83 KCAL/MOL
REMARK 922        TOTAL FREE ENERGY PREDICTED BY IDOCK:   -9.00 KCAL/MOL
REMARK 923 INTER-LIGAND FREE ENERGY PREDICTED BY IDOCK:   -7.19 KCAL/MOL
REMARK 924 INTRA-LIGAND FREE ENERGY PREDICTED BY IDOCK:   -1.81 KCAL/MOL
REMARK 927      BINDING AFFINITY PREDICTED BY RF-SCORE:    0.00 PKD
ROOT
HETATM    1  C   UNL     1     -11.511  16.630  71.929  1.00  0.00     0.053 C  
HETATM    2  C   UNL     1     -11.633  15.610  70.842  1.00  0.00    -0.424 A  
HETATM    3  C   UNL     1     -12.665  14.690  70.905  1.00  0.00    -0.348 A  
HETATM    4  N   UNL     1     -12.881  13.732  69.995  1.00  0.00    -0.020 NA 
HETATM    5  C   UNL     1     -12.007  13.667  68.990  1.00  0.00    -0.353 A  
HETATM    6  C   UNL     1     -10.803  15.523  69.726  1.00  0.00    -0.296 A  
HETATM    7  N   UNL     1     -10.991  14.538  68.829  1.00  0.00    -0.241 NA 
ENDROOT
BRANCH   5   8
HETATM    8  N   UNL     1     -12.217  12.613  68.098  1.00  0.00    -0.170 NA 
HETATM    9  H   UNL     1     -12.833  11.874  68.436  1.00  0.00     0.000 HD 
BRANCH   8  10
HETATM   10  C   UNL     1     -11.708  12.422  66.806  1.00  0.00    -0.362 A  
HETATM   11  C   UNL     1     -12.250  13.077  65.707  1.00  0.00    -0.511 A  
HETATM   12  C   UNL     1     -10.273  11.171  65.274  1.00  0.00    -0.337 A  
HETATM   13  C   UNL     1     -10.869  11.795  64.182  1.00  0.00    -0.360 A  
HETATM   14  C   UNL     1     -11.840  12.777  64.413  1.00  0.00    -0.446 A  
HETATM   15  C   UNL     1     -10.692  11.481  66.579  1.00  0.00    -0.318 A  
BRANCH  13  16
HETATM   16  O   UNL     1     -10.483  11.386  62.924  1.00  0.00    -0.204 OA 
BRANCH  16  17
HETATM   17  C   UNL     1      -9.141  10.895  62.908  1.00  0.00    -0.314 C  
BRANCH  17  18
HETATM   18  C   UNL     1      -8.991   9.475  62.361  1.00  0.00    -0.265 C  
BRANCH  18  19
HETATM   19  N   UNL     1      -7.719   8.909  62.836  1.00  0.00    -0.112 NA 
HETATM   20  C   UNL     1      -7.600   8.844  64.298  1.00  0.00    -0.115 C  
HETATM   21  C   UNL     1      -6.549   9.636  62.360  1.00  0.00    -0.096 C  
HETATM   22  C   UNL     1      -6.104   8.853  64.580  1.00  0.00    -0.066 C  
HETATM   23  C   UNL     1      -5.450   9.033  63.219  1.00  0.00    -0.068 C  
ENDBRANCH  18  19
ENDBRANCH  17  18
ENDBRANCH  16  17
ENDBRANCH  13  16
ENDBRANCH   8  10
ENDBRANCH   5   8
BRANCH   6  24
HETATM   24  N   UNL     1      -9.703  16.413  69.608  1.00  0.00    -0.076 NA 
HETATM   25  H   UNL     1      -9.970  17.396  69.656  1.00  0.00     0.000 HD 
BRANCH  24  26
HETATM   26  C   UNL     1      -8.310  16.215  69.437  1.00  0.00    -0.081 A  
HETATM   27  C   UNL     1      -7.439  17.146  68.864  1.00  0.00    -0.241 A  
HETATM   28  C   UNL     1      -7.784  14.940  69.713  1.00  0.00     0.009 A  
HETATM   29  C   UNL     1      -6.102  16.827  68.567  1.00  0.00    -0.136 A  
HETATM   30  C   UNL     1      -5.617  15.539  68.789  1.00  0.00    -0.093 A  
HETATM   31  C   UNL     1      -6.473  14.589  69.342  1.00  0.00    -0.132 A  
BRANCH  31  32
HETATM   32  S   UNL     1      -5.886  12.936  69.617  1.00  0.00    -0.122 S  
HETATM   33  O   UNL     1      -5.147  12.546  68.434  1.00  0.00    -0.053 OA 
HETATM   34  O   UNL     1      -5.268  12.887  70.924  1.00  0.00    -0.132 OA 
BRANCH  32  35
HETATM   35  N   UNL     1      -7.262  11.972  69.618  1.00  0.00    -0.319 N  
HETATM   36  C   UNL     1      -8.810  10.103  69.341  1.00  0.00    -0.197 C  
HETATM   37  C   UNL     1      -7.120  10.537  67.583  1.00  0.00    -0.084 C  
HETATM   38  C   UNL     1      -6.420   9.643  69.840  1.00  0.00    -0.057 C  
HETATM   39  C   UNL     1      -7.363  10.586  69.095  1.00  0.00    -0.109 C  
HETATM   40  H   UNL     1      -8.110  12.377  70.015  1.00  0.00     0.000 HD 
ENDBRANCH  32  35
ENDBRANCH  31  32
ENDBRANCH  24  26
ENDBRANCH   6  24
TORSDOF 10
ENDMDL
MODEL      205
REMARK 921   NORMALIZED FREE ENERGY PREDICTED BY IDOCK:   -4.83 KCAL/MOL
REMARK 922        TOTAL FREE ENERGY PREDICTED BY IDOCK:   -9.00 KCAL/MOL
REMARK 923 INTER-LIGAND FREE ENERGY PREDICTED BY IDOCK:   -8.39 KCAL/MOL
REMARK 924 INTRA-LIGAND FREE ENERGY PREDICTED BY IDOCK:   -0.61 KCAL/MOL
REMARK 927      BINDING AFFINITY PREDICTED BY RF-SCORE:    0.00 PKD
ROOT
HETATM    1  C   UNL     1      -7.987  14.319  67.565  1.00  0.00    -0.203 C  
HETATM    2  C   UNL     1      -8.622  13.078  68.106  1.00  0.00    -0.188 A  
HETATM    3  C   UNL     1      -7.825  11.974  68.351  1.00  0.00    -0.147 A  
HETATM    4  N   UNL     1      -8.274  10.809  68.836  1.00  0.00    -0.144 NA 
HETATM    5  C   UNL     1      -9.586  10.729  69.055  1.00  0.00    -0.180 A  
HETATM    6  C   UNL     1      -9.972  12.941  68.425  1.00  0.00    -0.211 A  
HETATM    7  N   UNL     1     -10.435  11.761  68.874  1.00  0.00    -0.189 NA 
ENDROOT
BRANCH   5   8
HETATM    8  N   UNL     1     -10.033   9.480  69.491  1.00  0.00    -0.182 NA 
HETATM    9  H   UNL     1     -10.119   9.377  70.502  1.00  0.00     0.000 HD 
BRANCH   8  10
HETATM   10  C   UNL     1     -10.380   8.346  68.744  1.00  0.00    -0.206 A  
HETATM   11  C   UNL     1     -10.710   7.144  69.357  1.00  0.00    -0.246 A  
HETATM   12  C   UNL     1     -10.506   7.207  66.585  1.00  0.00    -0.205 A  
HETATM   13  C   UNL     1     -10.778   5.999  67.222  1.00  0.00    -0.318 A  
HETATM   14  C   UNL     1     -10.911   5.986  68.615  1.00  0.00    -0.379 A  
HETATM   15  C   UNL     1     -10.306   8.374  67.342  1.00  0.00    -0.355 A  
BRANCH  13  16
HETATM   16  O   UNL     1     -10.875   4.871  66.436  1.00  0.00    -0.228 OA 
BRANCH  16  17
HETATM   17  C   UNL     1      -9.638   4.160  66.363  1.00  0.00    -0.202 C  
BRANCH  17  18
HETATM   18  C   UNL     1      -9.485   3.277  65.123  1.00  0.00    -0.139 C  
BRANCH  18  19
HETATM   19  N   UNL     1      -8.345   3.758  64.328  1.00  0.00    -0.090 NA 
HETATM   20  C   UNL     1      -8.342   5.209  64.102  1.00  0.00    -0.137 C  
HETATM   21  C   UNL     1      -8.251   3.136  63.014  1.00  0.00    -0.077 C  
HETATM   22  C   UNL     1      -7.534   5.415  62.828  1.00  0.00    -0.051 C  
HETATM   23  C   UNL     1      -7.208   4.012  62.341  1.00  0.00    -0.039 C  
ENDBRANCH  18  19
ENDBRANCH  17  18
ENDBRANCH  16  17
ENDBRANCH  13  16
ENDBRANCH   8  10
ENDBRANCH   5   8
BRANCH   6  24
HETATM   24  N   UNL     1     -10.859  14.020  68.170  1.00  0.00    -0.243 NA 
HETATM   25  H   UNL     1     -11.553  14.157  68.905  1.00  0.00     0.000 HD 
BRANCH  24  26
HETATM   26  C   UNL     1     -10.977  14.947  67.105  1.00  0.00    -0.323 A  
HETATM   27  C   UNL     1     -11.195  14.599  65.768  1.00  0.00    -0.336 A  
HETATM   28  C   UNL     1     -10.702  16.301  67.372  1.00  0.00    -0.287 A  
HETATM   29  C   UNL     1     -11.134  15.551  64.735  1.00  0.00    -0.421 A  
HETATM   30  C   UNL     1     -10.797  16.874  65.011  1.00  0.00    -0.077 A  
HETATM   31  C   UNL     1     -10.557  17.240  66.334  1.00  0.00    -0.179 A  
BRANCH  31  32
HETATM   32  S   UNL     1     -10.107  18.915  66.712  1.00  0.00    -0.404 S  
HETATM   33  O   UNL     1      -9.770  19.557  65.458  1.00  0.00    -0.262 OA 
HETATM   34  O   UNL     1     -11.123  19.472  67.577  1.00  0.00    -0.398 OA 
BRANCH  32  35
HETATM   35  N   UNL     1      -8.658  18.805  67.556  1.00  0.00    -0.272 N  
HETATM   36  C   UNL     1      -6.289  18.819  68.150  1.00  0.00    -0.220 C  
HETATM   37  C   UNL     1      -6.976  17.896  65.956  1.00  0.00    -0.346 C  
HETATM   38  C   UNL     1      -7.117  20.378  66.402  1.00  0.00    -0.296 C  
HETATM   39  C   UNL     1      -7.297  18.980  66.990  1.00  0.00    -0.213 C  
HETATM   40  H   UNL     1      -8.720  18.600  68.554  1.00  0.00     0.000 HD 
ENDBRANCH  32  35
ENDBRANCH  31  32
ENDBRANCH  24  26
ENDBRANCH   6  24
TORSDOF 10
ENDMDL
MODEL      206
REMARK 921   NORMALIZED FREE ENERGY PREDICTED BY IDOCK:   -4.82 KCAL/MOL
REMARK 922        TOTAL FREE ENERGY PREDICTED BY IDOCK:   -8.98 KCAL/MOL
REMARK 923 INTER-LIGAND FREE ENERGY PREDICTED BY IDOCK:   -7.20 KCAL/MOL
REMARK 924 INTRA-LIGAND FREE ENERGY PREDICTED BY IDOCK:   -1.78 KCAL/MOL
REMARK 927      BINDING AFFINITY PREDICTED BY RF-SCORE:    0.00 PKD
ROOT
HETATM    1  C   UNL     1      -9.450  17.782  68.534  1.00  0.00    -0.304 C  
HETATM    2  C   UNL     1      -8.574  16.571  68.483  1.00  0.00    -0.223 A  
HETATM    3  C   UNL     1      -7.966  16.138  69.648  1.00  0.00     0.181 A  
HETATM    4  N   UNL     1      -7.163  15.070  69.731  1.00  0.00    -0.185 NA 
HETATM    5  C   UNL     1      -6.928  14.420  68.591  1.00  0.00    -0.102 A  
HETATM    6  C   UNL     1      -8.336  15.800  67.346  1.00  0.00    -0.168 A  
HETATM    7  N   UNL     1      -7.499  14.750  67.415  1.00  0.00    -0.198 NA 
ENDROOT
BRANCH   5   8
HETATM    8  N   UNL     1      -6.031  13.355  68.697  1.00  0.00    -0.080 NA 
HETATM    9  H   UNL     1      -5.051  13.621  68.795  1.00  0.00     0.000 HD 
BRANCH   8  10
HETATM   10  C   UNL     1      -6.277  11.976  68.690  1.00  0.00    -0.055 A  
HETATM   11  C   UNL     1      -5.780  11.154  67.686  1.00  0.00    -0.044 A  
HETATM   12  C   UNL     1      -7.499  10.053  69.574  1.00  0.00    -0.123 A  
HETATM   13  C   UNL     1      -7.037   9.259  68.527  1.00  0.00    -0.071 A  
HETATM   14  C   UNL     1      -6.146   9.816  67.602  1.00  0.00    -0.051 A  
HETATM   15  C   UNL     1      -7.123  11.404  69.654  1.00  0.00     0.033 A  
BRANCH  13  16
HETATM   16  O   UNL     1      -7.510   7.967  68.448  1.00  0.00    -0.098 OA 
BRANCH  16  17
HETATM   17  C   UNL     1      -8.836   7.848  68.968  1.00  0.00    -0.145 C  
BRANCH  17  18
HETATM   18  C   UNL     1      -9.151   6.493  69.602  1.00  0.00    -0.141 C  
BRANCH  18  19
HETATM   19  N   UNL     1     -10.065   6.694  70.737  1.00  0.00    -0.184 NA 
HETATM   20  C   UNL     1     -11.477   6.444  70.421  1.00  0.00    -0.393 C  
HETATM   21  C   UNL     1     -10.001   8.036  71.301  1.00  0.00    -0.174 C  
HETATM   22  C   UNL     1     -12.266   7.266  71.431  1.00  0.00    -0.384 C  
HETATM   23  C   UNL     1     -11.215   8.037  72.214  1.00  0.00    -0.402 C  
ENDBRANCH  18  19
ENDBRANCH  17  18
ENDBRANCH  16  17
ENDBRANCH  13  16
ENDBRANCH   8  10
ENDBRANCH   5   8
BRANCH   6  24
HETATM   24  N   UNL     1      -8.899  16.201  66.106  1.00  0.00    -0.336 NA 
HETATM   25  H   UNL     1      -8.377  16.947  65.646  1.00  0.00     0.000 HD 
BRANCH  24  26
HETATM   26  C   UNL     1     -10.037  15.776  65.376  1.00  0.00    -0.302 A  
HETATM   27  C   UNL     1     -10.953  16.634  64.759  1.00  0.00    -0.123 A  
HETATM   28  C   UNL     1     -10.365  14.408  65.398  1.00  0.00    -0.400 A  
HETATM   29  C   UNL     1     -12.151  16.160  64.196  1.00  0.00     0.466 A  
HETATM   30  C   UNL     1     -12.488  14.811  64.285  1.00  0.00    -0.224 A  
HETATM   31  C   UNL     1     -11.599  13.939  64.911  1.00  0.00    -0.359 A  
BRANCH  31  32
HETATM   32  S   UNL     1     -12.013  12.219  65.055  1.00  0.00    -0.302 S  
HETATM   33  O   UNL     1     -12.098  11.919  66.469  1.00  0.00    -0.568 OA 
HETATM   34  O   UNL     1     -13.128  11.947  64.174  1.00  0.00    -0.597 OA 
BRANCH  32  35
HETATM   35  N   UNL     1     -10.658  11.390  64.507  1.00  0.00    -0.311 N  
HETATM   36  C   UNL     1      -8.620  10.048  64.402  1.00  0.00    -0.199 C  
HETATM   37  C   UNL     1      -8.912  11.649  66.269  1.00  0.00    -0.194 C  
HETATM   38  C   UNL     1     -10.317   9.554  66.148  1.00  0.00    -0.188 C  
HETATM   39  C   UNL     1      -9.663  10.681  65.350  1.00  0.00    -0.252 C  
HETATM   40  H   UNL     1     -10.504  11.373  63.499  1.00  0.00     0.000 HD 
ENDBRANCH  32  35
ENDBRANCH  31  32
ENDBRANCH  24  26
ENDBRANCH   6  24
TORSDOF 10
ENDMDL
MODEL      207
REMARK 921   NORMALIZED FREE ENERGY PREDICTED BY IDOCK:   -4.81 KCAL/MOL
REMARK 922        TOTAL FREE ENERGY PREDICTED BY IDOCK:   -8.96 KCAL/MOL
REMARK 923 INTER-LIGAND FREE ENERGY PREDICTED BY IDOCK:   -7.96 KCAL/MOL
REMARK 924 INTRA-LIGAND FREE ENERGY PREDICTED BY IDOCK:   -1.00 KCAL/MOL
REMARK 927      BINDING AFFINITY PREDICTED BY RF-SCORE:    0.00 PKD
ROOT
HETATM    1  C   UNL     1      -5.667   9.106  67.996  1.00  0.00    -0.038 C  
HETATM    2  C   UNL     1      -6.952   9.868  67.953  1.00  0.00    -0.081 A  
HETATM    3  C   UNL     1      -7.004  11.122  68.536  1.00  0.00    -0.072 A  
HETATM    4  N   UNL     1      -8.093  11.901  68.560  1.00  0.00    -0.148 NA 
HETATM    5  C   UNL     1      -9.193  11.392  68.005  1.00  0.00    -0.171 A  
HETATM    6  C   UNL     1      -8.122   9.434  67.332  1.00  0.00    -0.110 A  
HETATM    7  N   UNL     1      -9.230  10.194  67.388  1.00  0.00    -0.141 NA 
ENDROOT
BRANCH   5   8
HETATM    8  N   UNL     1     -10.329  12.198  68.111  1.00  0.00    -0.201 NA 
HETATM    9  H   UNL     1     -11.155  11.736  68.492  1.00  0.00     0.000 HD 
BRANCH   8  10
HETATM   10  C   UNL     1     -10.501  13.547  67.773  1.00  0.00    -0.240 A  
HETATM   11  C   UNL     1     -10.379  13.988  66.461  1.00  0.00    -0.285 A  
HETATM   12  C   UNL     1     -10.733  15.878  68.469  1.00  0.00    -0.274 A  
HETATM   13  C   UNL     1     -10.550  16.304  67.156  1.00  0.00    -0.291 A  
HETATM   14  C   UNL     1     -10.405  15.342  66.149  1.00  0.00    -0.325 A  
HETATM   15  C   UNL     1     -10.707  14.506  68.776  1.00  0.00    -0.257 A  
BRANCH  13  16
HETATM   16  O   UNL     1     -10.495  17.662  66.928  1.00  0.00    -0.329 OA 
BRANCH  16  17
HETATM   17  C   UNL     1      -9.240  18.062  66.372  1.00  0.00    -0.242 C  
BRANCH  17  18
HETATM   18  C   UNL     1      -8.026  17.728  67.241  1.00  0.00    -0.209 C  
BRANCH  18  19
HETATM   19  N   UNL     1      -7.672  18.908  68.044  1.00  0.00    -0.264 NA 
HETATM   20  C   UNL     1      -7.099  20.014  67.266  1.00  0.00    -0.244 C  
HETATM   21  C   UNL     1      -6.722  18.619  69.110  1.00  0.00    -0.269 C  
HETATM   22  C   UNL     1      -6.261  20.809  68.257  1.00  0.00    -0.373 C  
HETATM   23  C   UNL     1      -6.332  20.019  69.554  1.00  0.00    -0.379 C  
ENDBRANCH  18  19
ENDBRANCH  17  18
ENDBRANCH  16  17
ENDBRANCH  13  16
ENDBRANCH   8  10
ENDBRANCH   5   8
BRANCH   6  24
HETATM   24  N   UNL     1      -8.156   8.144  66.740  1.00  0.00    -0.102 NA 
HETATM   25  H   UNL     1      -7.776   8.121  65.793  1.00  0.00     0.000 HD 
BRANCH  24  26
HETATM   26  C   UNL     1      -8.609   6.880  67.195  1.00  0.00    -0.121 A  
HETATM   27  C   UNL     1      -9.381   5.992  66.440  1.00  0.00    -0.171 A  
HETATM   28  C   UNL     1      -8.407   6.552  68.548  1.00  0.00    -0.121 A  
HETATM   29  C   UNL     1      -9.941   4.832  67.003  1.00  0.00    -0.235 A  
HETATM   30  C   UNL     1      -9.784   4.558  68.361  1.00  0.00    -0.188 A  
HETATM   31  C   UNL     1      -9.033   5.438  69.137  1.00  0.00    -0.104 A  
BRANCH  31  32
HETATM   32  S   UNL     1      -8.833   5.123  70.873  1.00  0.00    -0.137 S  
HETATM   33  O   UNL     1      -9.634   3.958  71.187  1.00  0.00    -0.151 OA 
HETATM   34  O   UNL     1      -7.420   5.152  71.178  1.00  0.00    -0.074 OA 
BRANCH  32  35
HETATM   35  N   UNL     1      -9.595   6.406  71.646  1.00  0.00    -0.161 N  
HETATM   36  C   UNL     1     -11.268   7.858  72.673  1.00  0.00    -0.459 C  
HETATM   37  C   UNL     1     -11.857   6.609  70.617  1.00  0.00    -0.443 C  
HETATM   38  C   UNL     1     -11.545   5.393  72.808  1.00  0.00    -0.293 C  
HETATM   39  C   UNL     1     -11.049   6.529  71.916  1.00  0.00    -0.261 C  
HETATM   40  H   UNL     1      -9.001   7.173  71.961  1.00  0.00     0.000 HD 
ENDBRANCH  32  35
ENDBRANCH  31  32
ENDBRANCH  24  26
ENDBRANCH   6  24
TORSDOF 10
ENDMDL
MODEL      208
REMARK 921   NORMALIZED FREE ENERGY PREDICTED BY IDOCK:   -4.80 KCAL/MOL
REMARK 922        TOTAL FREE ENERGY PREDICTED BY IDOCK:   -8.96 KCAL/MOL
REMARK 923 INTER-LIGAND FREE ENERGY PREDICTED BY IDOCK:   -7.73 KCAL/MOL
REMARK 924 INTRA-LIGAND FREE ENERGY PREDICTED BY IDOCK:   -1.23 KCAL/MOL
REMARK 927      BINDING AFFINITY PREDICTED BY RF-SCORE:    0.00 PKD
ROOT
HETATM    1  C   UNL     1     -10.895  13.431  64.210  1.00  0.00    -0.383 C  
HETATM    2  C   UNL     1     -10.279  12.147  64.666  1.00  0.00    -0.312 A  
HETATM    3  C   UNL     1     -10.283  11.063  63.806  1.00  0.00    -0.364 A  
HETATM    4  N   UNL     1      -9.762   9.864  64.097  1.00  0.00    -0.143 NA 
HETATM    5  C   UNL     1      -9.241   9.729  65.318  1.00  0.00    -0.238 A  
HETATM    6  C   UNL     1      -9.656  11.949  65.897  1.00  0.00    -0.231 A  
HETATM    7  N   UNL     1      -9.166  10.736  66.211  1.00  0.00    -0.168 NA 
ENDROOT
BRANCH   5   8
HETATM    8  N   UNL     1      -8.773   8.448  65.616  1.00  0.00    -0.173 NA 
HETATM    9  H   UNL     1      -7.946   8.156  65.096  1.00  0.00     0.000 HD 
BRANCH   8  10
HETATM   10  C   UNL     1      -9.271   7.505  66.526  1.00  0.00    -0.174 A  
HETATM   11  C   UNL     1     -10.521   7.652  67.113  1.00  0.00    -0.412 A  
HETATM   12  C   UNL     1      -8.893   5.563  67.961  1.00  0.00    -0.105 A  
HETATM   13  C   UNL     1     -10.126   5.762  68.578  1.00  0.00    -0.178 A  
HETATM   14  C   UNL     1     -10.950   6.796  68.120  1.00  0.00    -0.277 A  
HETATM   15  C   UNL     1      -8.468   6.432  66.942  1.00  0.00    -0.110 A  
BRANCH  13  16
HETATM   16  O   UNL     1     -10.452   4.936  69.632  1.00  0.00    -0.206 OA 
BRANCH  16  17
HETATM   17  C   UNL     1      -9.454   4.950  70.654  1.00  0.00    -0.173 C  
BRANCH  17  18
HETATM   18  C   UNL     1      -9.404   6.239  71.475  1.00  0.00    -0.148 C  
BRANCH  18  19
HETATM   19  N   UNL     1      -8.022   6.467  71.926  1.00  0.00    -0.103 NA 
HETATM   20  C   UNL     1      -7.643   7.884  72.007  1.00  0.00    -0.083 C  
HETATM   21  C   UNL     1      -7.024   5.822  71.084  1.00  0.00    -0.067 C  
HETATM   22  C   UNL     1      -6.128   7.903  71.862  1.00  0.00    -0.040 C  
HETATM   23  C   UNL     1      -5.742   6.457  71.595  1.00  0.00    -0.032 C  
ENDBRANCH  18  19
ENDBRANCH  17  18
ENDBRANCH  16  17
ENDBRANCH  13  16
ENDBRANCH   8  10
ENDBRANCH   5   8
BRANCH   6  24
HETATM   24  N   UNL     1      -9.641  13.006  66.845  1.00  0.00    -0.236 NA 
HETATM   25  H   UNL     1     -10.558  13.202  67.248  1.00  0.00     0.000 HD 
BRANCH  24  26
HETATM   26  C   UNL     1      -8.614  13.844  67.348  1.00  0.00    -0.200 A  
HETATM   27  C   UNL     1      -7.765  13.514  68.408  1.00  0.00    -0.135 A  
HETATM   28  C   UNL     1      -8.536  15.161  66.859  1.00  0.00    -0.278 A  
HETATM   29  C   UNL     1      -6.882  14.452  68.971  1.00  0.00    -0.111 A  
HETATM   30  C   UNL     1      -6.864  15.769  68.515  1.00  0.00    -0.119 A  
HETATM   31  C   UNL     1      -7.715  16.126  67.471  1.00  0.00    -0.147 A  
BRANCH  31  32
HETATM   32  S   UNL     1      -7.727  17.801  66.884  1.00  0.00    -0.228 S  
HETATM   33  O   UNL     1      -6.345  18.213  66.748  1.00  0.00    -0.169 OA 
HETATM   34  O   UNL     1      -8.635  17.881  65.762  1.00  0.00    -0.503 OA 
BRANCH  32  35
HETATM   35  N   UNL     1      -8.336  18.712  68.159  1.00  0.00    -0.298 N  
HETATM   36  C   UNL     1      -9.832  19.769  69.773  1.00  0.00     0.146 C  
HETATM   37  C   UNL     1     -10.550  19.581  67.410  1.00  0.00    -0.607 C  
HETATM   38  C   UNL     1     -10.401  17.525  68.871  1.00  0.00    -0.338 C  
HETATM   39  C   UNL     1      -9.767  18.870  68.519  1.00  0.00    -0.387 C  
HETATM   40  H   UNL     1      -7.657  19.203  68.740  1.00  0.00     0.000 HD 
ENDBRANCH  32  35
ENDBRANCH  31  32
ENDBRANCH  24  26
ENDBRANCH   6  24
TORSDOF 10
ENDMDL
MODEL      209
REMARK 921   NORMALIZED FREE ENERGY PREDICTED BY IDOCK:   -4.75 KCAL/MOL
REMARK 922        TOTAL FREE ENERGY PREDICTED BY IDOCK:   -8.87 KCAL/MOL
REMARK 923 INTER-LIGAND FREE ENERGY PREDICTED BY IDOCK:   -7.86 KCAL/MOL
REMARK 924 INTRA-LIGAND FREE ENERGY PREDICTED BY IDOCK:   -1.01 KCAL/MOL
REMARK 927      BINDING AFFINITY PREDICTED BY RF-SCORE:    0.00 PKD
ROOT
HETATM    1  C   UNL     1     -10.554  12.860  63.874  1.00  0.00    -0.367 C  
HETATM    2  C   UNL     1     -10.250  11.728  64.804  1.00  0.00    -0.324 A  
HETATM    3  C   UNL     1      -9.937  10.491  64.268  1.00  0.00    -0.331 A  
HETATM    4  N   UNL     1      -9.645   9.405  64.995  1.00  0.00    -0.160 NA 
HETATM    5  C   UNL     1      -9.701   9.549  66.319  1.00  0.00    -0.245 A  
HETATM    6  C   UNL     1     -10.221  11.819  66.195  1.00  0.00    -0.220 A  
HETATM    7  N   UNL     1      -9.968  10.721  66.930  1.00  0.00    -0.193 NA 
ENDROOT
BRANCH   5   8
HETATM    8  N   UNL     1      -9.464   8.381  67.046  1.00  0.00    -0.163 NA 
HETATM    9  H   UNL     1      -9.217   7.564  66.488  1.00  0.00     0.000 HD 
BRANCH   8  10
HETATM   10  C   UNL     1      -9.515   8.165  68.430  1.00  0.00    -0.142 A  
HETATM   11  C   UNL     1      -8.366   7.909  69.168  1.00  0.00    -0.133 A  
HETATM   12  C   UNL     1     -10.829   7.746  70.447  1.00  0.00    -0.248 A  
HETATM   13  C   UNL     1      -9.671   7.435  71.155  1.00  0.00    -0.163 A  
HETATM   14  C   UNL     1      -8.434   7.553  70.510  1.00  0.00    -0.133 A  
HETATM   15  C   UNL     1     -10.751   8.107  69.091  1.00  0.00    -0.117 A  
BRANCH  13  16
HETATM   16  O   UNL     1      -9.815   7.001  72.455  1.00  0.00    -0.153 OA 
BRANCH  16  17
HETATM   17  C   UNL     1     -11.066   6.344  72.666  1.00  0.00    -0.261 C  
BRANCH  17  18
HETATM   18  C   UNL     1     -10.967   4.827  72.835  1.00  0.00    -0.238 C  
BRANCH  18  19
HETATM   19  N   UNL     1      -9.576   4.409  72.599  1.00  0.00    -0.134 NA 
HETATM   20  C   UNL     1      -9.394   3.581  71.400  1.00  0.00    -0.143 C  
HETATM   21  C   UNL     1      -9.002   3.659  73.708  1.00  0.00    -0.087 C  
HETATM   22  C   UNL     1      -8.132   2.770  71.661  1.00  0.00    -0.057 C  
HETATM   23  C   UNL     1      -7.724   3.126  73.081  1.00  0.00    -0.060 C  
ENDBRANCH  18  19
ENDBRANCH  17  18
ENDBRANCH  16  17
ENDBRANCH  13  16
ENDBRANCH   8  10
ENDBRANCH   5   8
BRANCH   6  24
HETATM   24  N   UNL     1     -10.564  13.047  66.818  1.00  0.00    -0.261 NA 
HETATM   25  H   UNL     1     -11.563  13.249  66.793  1.00  0.00     0.000 HD 
BRANCH  24  26
HETATM   26  C   UNL     1      -9.802  14.051  67.467  1.00  0.00    -0.236 A  
HETATM   27  C   UNL     1      -9.044  13.851  68.625  1.00  0.00    -0.085 A  
HETATM   28  C   UNL     1      -9.934  15.377  67.017  1.00  0.00    -0.239 A  
HETATM   29  C   UNL     1      -8.449  14.921  69.316  1.00  0.00    -0.116 A  
HETATM   30  C   UNL     1      -8.645  16.233  68.891  1.00  0.00    -0.260 A  
HETATM   31  C   UNL     1      -9.412  16.459  67.750  1.00  0.00    -0.222 A  
BRANCH  31  32
HETATM   32  S   UNL     1      -9.693  18.122  67.198  1.00  0.00    -0.314 S  
HETATM   33  O   UNL     1      -9.461  18.140  65.768  1.00  0.00    -0.483 OA 
HETATM   34  O   UNL     1     -10.951  18.575  67.747  1.00  0.00    -0.329 OA 
BRANCH  32  35
HETATM   35  N   UNL     1      -8.440  19.026  67.860  1.00  0.00    -0.289 N  
HETATM   36  C   UNL     1      -6.362  20.271  68.167  1.00  0.00    -0.315 C  
HETATM   37  C   UNL     1      -6.340  18.215  66.787  1.00  0.00    -0.211 C  
HETATM   38  C   UNL     1      -7.488  20.305  65.952  1.00  0.00    -0.220 C  
HETATM   39  C   UNL     1      -7.190  19.431  67.170  1.00  0.00    -0.211 C  
HETATM   40  H   UNL     1      -8.549  19.325  68.829  1.00  0.00     0.000 HD 
ENDBRANCH  32  35
ENDBRANCH  31  32
ENDBRANCH  24  26
ENDBRANCH   6  24
TORSDOF 10
ENDMDL
MODEL      210
REMARK 921   NORMALIZED FREE ENERGY PREDICTED BY IDOCK:   -4.75 KCAL/MOL
REMARK 922        TOTAL FREE ENERGY PREDICTED BY IDOCK:   -8.87 KCAL/MOL
REMARK 923 INTER-LIGAND FREE ENERGY PREDICTED BY IDOCK:   -8.71 KCAL/MOL
REMARK 924 INTRA-LIGAND FREE ENERGY PREDICTED BY IDOCK:   -0.16 KCAL/MOL
REMARK 927      BINDING AFFINITY PREDICTED BY RF-SCORE:    0.00 PKD
ROOT
HETATM    1  C   UNL     1     -12.452  14.909  68.930  1.00  0.00     0.105 C  
HETATM    2  C   UNL     1     -11.721  14.373  67.741  1.00  0.00    -0.407 A  
HETATM    3  C   UNL     1     -12.376  13.496  66.895  1.00  0.00    -0.238 A  
HETATM    4  N   UNL     1     -11.831  12.952  65.800  1.00  0.00    -0.396 NA 
HETATM    5  C   UNL     1     -10.560  13.271  65.554  1.00  0.00    -0.287 A  
HETATM    6  C   UNL     1     -10.418  14.713  67.381  1.00  0.00    -0.255 A  
HETATM    7  N   UNL     1      -9.852  14.139  66.304  1.00  0.00    -0.296 NA 
ENDROOT
BRANCH   5   8
HETATM    8  N   UNL     1      -9.998  12.630  64.448  1.00  0.00    -0.574 NA 
HETATM    9  H   UNL     1      -9.889  13.213  63.618  1.00  0.00     0.000 HD 
BRANCH   8  10
HETATM   10  C   UNL     1      -9.562  11.306  64.310  1.00  0.00    -0.225 A  
HETATM   11  C   UNL     1      -9.310  10.505  65.416  1.00  0.00    -0.255 A  
HETATM   12  C   UNL     1      -8.698   9.512  62.892  1.00  0.00    -0.233 A  
HETATM   13  C   UNL     1      -8.397   8.748  64.017  1.00  0.00    -0.141 A  
HETATM   14  C   UNL     1      -8.740   9.244  65.280  1.00  0.00    -0.214 A  
HETATM   15  C   UNL     1      -9.275  10.785  63.038  1.00  0.00    -0.320 A  
BRANCH  13  16
HETATM   16  O   UNL     1      -7.750   7.547  63.819  1.00  0.00    -0.115 OA 
BRANCH  16  17
HETATM   17  C   UNL     1      -8.056   6.977  62.544  1.00  0.00    -0.092 C  
BRANCH  17  18
HETATM   18  C   UNL     1      -8.367   5.481  62.576  1.00  0.00    -0.110 C  
BRANCH  18  19
HETATM   19  N   UNL     1      -8.433   5.034  63.976  1.00  0.00    -0.136 NA 
HETATM   20  C   UNL     1      -7.284   4.224  64.402  1.00  0.00    -0.062 C  
HETATM   21  C   UNL     1      -9.623   4.251  64.280  1.00  0.00    -0.123 C  
HETATM   22  C   UNL     1      -7.796   3.380  65.560  1.00  0.00    -0.085 C  
HETATM   23  C   UNL     1      -9.279   3.700  65.653  1.00  0.00    -0.156 C  
ENDBRANCH  18  19
ENDBRANCH  17  18
ENDBRANCH  16  17
ENDBRANCH  13  16
ENDBRANCH   8  10
ENDBRANCH   5   8
BRANCH   6  24
HETATM   24  N   UNL     1      -9.671  15.583  68.218  1.00  0.00    -0.200 NA 
HETATM   25  H   UNL     1      -9.092  15.092  68.899  1.00  0.00     0.000 HD 
BRANCH  24  26
HETATM   26  C   UNL     1      -9.563  16.994  68.301  1.00  0.00    -0.273 A  
HETATM   27  C   UNL     1     -10.606  17.888  68.044  1.00  0.00    -0.366 A  
HETATM   28  C   UNL     1      -8.286  17.549  68.501  1.00  0.00    -0.278 A  
HETATM   29  C   UNL     1     -10.394  19.276  67.977  1.00  0.00    -0.506 A  
HETATM   30  C   UNL     1      -9.111  19.803  68.114  1.00  0.00    -0.385 A  
HETATM   31  C   UNL     1      -8.052  18.929  68.352  1.00  0.00    -0.341 A  
BRANCH  31  32
HETATM   32  S   UNL     1      -6.405  19.571  68.512  1.00  0.00    -0.261 S  
HETATM   33  O   UNL     1      -6.507  21.015  68.475  1.00  0.00    -0.219 OA 
HETATM   34  O   UNL     1      -5.765  18.904  69.624  1.00  0.00    -0.219 OA 
BRANCH  32  35
HETATM   35  N   UNL     1      -5.624  19.147  67.086  1.00  0.00    -0.167 N  
HETATM   36  C   UNL     1      -5.145  18.593  64.756  1.00  0.00    -0.207 C  
HETATM   37  C   UNL     1      -7.231  17.749  65.790  1.00  0.00    -0.154 C  
HETATM   38  C   UNL     1      -6.960  20.207  65.277  1.00  0.00    -0.300 C  
HETATM   39  C   UNL     1      -6.264  18.937  65.764  1.00  0.00    -0.222 C  
HETATM   40  H   UNL     1      -4.613  19.022  67.133  1.00  0.00     0.000 HD 
ENDBRANCH  32  35
ENDBRANCH  31  32
ENDBRANCH  24  26
ENDBRANCH   6  24
TORSDOF 10
ENDMDL
MODEL      211
REMARK 921   NORMALIZED FREE ENERGY PREDICTED BY IDOCK:   -4.75 KCAL/MOL
REMARK 922        TOTAL FREE ENERGY PREDICTED BY IDOCK:   -8.87 KCAL/MOL
REMARK 923 INTER-LIGAND FREE ENERGY PREDICTED BY IDOCK:   -7.83 KCAL/MOL
REMARK 924 INTRA-LIGAND FREE ENERGY PREDICTED BY IDOCK:   -1.04 KCAL/MOL
REMARK 927      BINDING AFFINITY PREDICTED BY RF-SCORE:    0.00 PKD
ROOT
HETATM    1  C   UNL     1      -7.670   8.039  64.917  1.00  0.00    -0.118 C  
HETATM    2  C   UNL     1      -8.699   9.113  65.075  1.00  0.00    -0.222 A  
HETATM    3  C   UNL     1      -8.818  10.072  64.084  1.00  0.00    -0.221 A  
HETATM    4  N   UNL     1      -9.700  11.079  64.110  1.00  0.00    -0.261 NA 
HETATM    5  C   UNL     1     -10.477  11.155  65.190  1.00  0.00    -0.277 A  
HETATM    6  C   UNL     1      -9.592   9.217  66.139  1.00  0.00    -0.260 A  
HETATM    7  N   UNL     1     -10.453  10.250  66.190  1.00  0.00    -0.176 NA 
ENDROOT
BRANCH   5   8
HETATM    8  N   UNL     1     -11.334  12.257  65.220  1.00  0.00    -0.328 NA 
HETATM    9  H   UNL     1     -12.326  12.034  65.295  1.00  0.00     0.000 HD 
BRANCH   8  10
HETATM   10  C   UNL     1     -11.031  13.624  65.163  1.00  0.00    -0.330 A  
HETATM   11  C   UNL     1     -10.009  14.175  65.926  1.00  0.00    -0.331 A  
HETATM   12  C   UNL     1     -11.628  15.883  64.445  1.00  0.00    -0.234 A  
HETATM   13  C   UNL     1     -10.637  16.420  65.261  1.00  0.00    -0.299 A  
HETATM   14  C   UNL     1      -9.807  15.549  65.977  1.00  0.00    -0.364 A  
HETATM   15  C   UNL     1     -11.826  14.492  64.397  1.00  0.00    -0.419 A  
BRANCH  13  16
HETATM   16  O   UNL     1     -10.548  17.794  65.338  1.00  0.00    -0.659 OA 
BRANCH  16  17
HETATM   17  C   UNL     1     -10.512  18.254  66.690  1.00  0.00    -0.360 C  
BRANCH  17  18
HETATM   18  C   UNL     1      -9.697  19.531  66.905  1.00  0.00    -0.356 C  
BRANCH  18  19
HETATM   19  N   UNL     1      -8.398  19.176  67.499  1.00  0.00    -0.283 NA 
HETATM   20  C   UNL     1      -7.379  18.779  66.519  1.00  0.00    -0.236 C  
HETATM   21  C   UNL     1      -8.482  18.092  68.469  1.00  0.00    -0.299 C  
HETATM   22  C   UNL     1      -6.406  17.896  67.288  1.00  0.00    -0.182 C  
HETATM   23  C   UNL     1      -7.013  17.760  68.675  1.00  0.00    -0.247 C  
ENDBRANCH  18  19
ENDBRANCH  17  18
ENDBRANCH  16  17
ENDBRANCH  13  16
ENDBRANCH   8  10
ENDBRANCH   5   8
BRANCH   6  24
HETATM   24  N   UNL     1      -9.509   8.289  67.210  1.00  0.00    -0.145 NA 
HETATM   25  H   UNL     1     -10.291   7.634  67.241  1.00  0.00     0.000 HD 
BRANCH  24  26
HETATM   26  C   UNL     1      -8.561   8.084  68.244  1.00  0.00    -0.130 A  
HETATM   27  C   UNL     1      -7.692   9.064  68.732  1.00  0.00    -0.095 A  
HETATM   28  C   UNL     1      -8.364   6.771  68.710  1.00  0.00    -0.121 A  
HETATM   29  C   UNL     1      -6.661   8.756  69.638  1.00  0.00    -0.039 A  
HETATM   30  C   UNL     1      -6.441   7.439  70.038  1.00  0.00    -0.038 A  
HETATM   31  C   UNL     1      -7.284   6.443  69.549  1.00  0.00    -0.078 A  
BRANCH  31  32
HETATM   32  S   UNL     1      -7.013   4.755  70.028  1.00  0.00    -0.050 S  
HETATM   33  O   UNL     1      -8.155   3.994  69.564  1.00  0.00    -0.055 OA 
HETATM   34  O   UNL     1      -5.671   4.384  69.639  1.00  0.00    -0.015 OA 
BRANCH  32  35
HETATM   35  N   UNL     1      -7.128   4.747  71.705  1.00  0.00    -0.058 N  
HETATM   36  C   UNL     1      -7.985   4.782  73.992  1.00  0.00    -0.101 C  
HETATM   37  C   UNL     1      -9.035   6.244  72.290  1.00  0.00    -0.136 C  
HETATM   38  C   UNL     1      -9.348   3.739  72.195  1.00  0.00    -0.182 C  
HETATM   39  C   UNL     1      -8.375   4.877  72.500  1.00  0.00    -0.119 C  
HETATM   40  H   UNL     1      -6.258   4.641  72.226  1.00  0.00     0.000 HD 
ENDBRANCH  32  35
ENDBRANCH  31  32
ENDBRANCH  24  26
ENDBRANCH   6  24
TORSDOF 10
ENDMDL
MODEL      212
REMARK 921   NORMALIZED FREE ENERGY PREDICTED BY IDOCK:   -4.72 KCAL/MOL
REMARK 922        TOTAL FREE ENERGY PREDICTED BY IDOCK:   -8.82 KCAL/MOL
REMARK 923 INTER-LIGAND FREE ENERGY PREDICTED BY IDOCK:   -7.98 KCAL/MOL
REMARK 924 INTRA-LIGAND FREE ENERGY PREDICTED BY IDOCK:   -0.85 KCAL/MOL
REMARK 927      BINDING AFFINITY PREDICTED BY RF-SCORE:    0.00 PKD
ROOT
HETATM    1  C   UNL     1      -6.951   4.687  67.115  1.00  0.00    -0.060 C  
HETATM    2  C   UNL     1      -7.566   6.015  66.806  1.00  0.00    -0.095 A  
HETATM    3  C   UNL     1      -8.193   6.192  65.586  1.00  0.00    -0.141 A  
HETATM    4  N   UNL     1      -8.781   7.330  65.195  1.00  0.00     0.068 NA 
HETATM    5  C   UNL     1      -8.711   8.352  66.048  1.00  0.00    -0.157 A  
HETATM    6  C   UNL     1      -7.595   7.107  67.673  1.00  0.00    -0.110 A  
HETATM    7  N   UNL     1      -8.148   8.265  67.270  1.00  0.00    -0.108 NA 
ENDROOT
BRANCH   5   8
HETATM    8  N   UNL     1      -9.269   9.544  65.582  1.00  0.00    -0.205 NA 
HETATM    9  H   UNL     1      -9.565   9.533  64.606  1.00  0.00     0.000 HD 
BRANCH   8  10
HETATM   10  C   UNL     1      -9.483  10.754  66.257  1.00  0.00    -0.181 A  
HETATM   11  C   UNL     1     -10.756  11.288  66.405  1.00  0.00    -0.320 A  
HETATM   12  C   UNL     1      -8.579  12.789  67.263  1.00  0.00    -0.197 A  
HETATM   13  C   UNL     1      -9.858  13.333  67.349  1.00  0.00    -0.227 A  
HETATM   14  C   UNL     1     -10.949  12.555  66.944  1.00  0.00    -0.296 A  
HETATM   15  C   UNL     1      -8.392  11.507  66.718  1.00  0.00    -0.165 A  
BRANCH  13  16
HETATM   16  O   UNL     1      -9.972  14.627  67.808  1.00  0.00    -0.221 OA 
BRANCH  16  17
HETATM   17  C   UNL     1     -10.186  15.557  66.744  1.00  0.00    -0.280 C  
BRANCH  17  18
HETATM   18  C   UNL     1      -9.029  16.528  66.507  1.00  0.00    -0.278 C  
BRANCH  18  19
HETATM   19  N   UNL     1      -9.559  17.899  66.447  1.00  0.00    -0.364 NA 
HETATM   20  C   UNL     1      -8.559  18.941  66.715  1.00  0.00    -0.299 C  
HETATM   21  C   UNL     1     -10.659  18.136  67.373  1.00  0.00    -0.388 C  
HETATM   22  C   UNL     1      -9.353  20.139  67.218  1.00  0.00    -0.519 C  
HETATM   23  C   UNL     1     -10.790  19.649  67.304  1.00  0.00    -0.519 C  
ENDBRANCH  18  19
ENDBRANCH  17  18
ENDBRANCH  16  17
ENDBRANCH  13  16
ENDBRANCH   8  10
ENDBRANCH   5   8
BRANCH   6  24
HETATM   24  N   UNL     1      -6.944   7.012  68.931  1.00  0.00    -0.076 NA 
HETATM   25  H   UNL     1      -6.054   7.509  68.966  1.00  0.00     0.000 HD 
BRANCH  24  26
HETATM   26  C   UNL     1      -7.276   6.367  70.149  1.00  0.00    -0.084 A  
HETATM   27  C   UNL     1      -6.984   5.034  70.450  1.00  0.00    -0.049 A  
HETATM   28  C   UNL     1      -8.094   7.059  71.062  1.00  0.00    -0.105 A  
HETATM   29  C   UNL     1      -7.488   4.406  71.602  1.00  0.00    -0.069 A  
HETATM   30  C   UNL     1      -8.348   5.088  72.460  1.00  0.00    -0.117 A  
HETATM   31  C   UNL     1      -8.669   6.412  72.171  1.00  0.00    -0.132 A  
BRANCH  31  32
HETATM   32  S   UNL     1      -9.777   7.298  73.238  1.00  0.00    -0.260 S  
HETATM   33  O   UNL     1     -10.936   6.455  73.440  1.00  0.00    -0.244 OA 
HETATM   34  O   UNL     1      -9.019   7.795  74.365  1.00  0.00    -0.171 OA 
BRANCH  32  35
HETATM   35  N   UNL     1     -10.328   8.597  72.324  1.00  0.00    -0.328 N  
HETATM   36  C   UNL     1     -11.670  10.041  70.882  1.00  0.00    -0.462 C  
HETATM   37  C   UNL     1     -11.526   7.623  70.365  1.00  0.00    -0.192 C  
HETATM   38  C   UNL     1     -12.808   8.425  72.388  1.00  0.00    -0.323 C  
HETATM   39  C   UNL     1     -11.572   8.635  71.515  1.00  0.00    -0.302 C  
HETATM   40  H   UNL     1      -9.753   9.439  72.325  1.00  0.00     0.000 HD 
ENDBRANCH  32  35
ENDBRANCH  31  32
ENDBRANCH  24  26
ENDBRANCH   6  24
TORSDOF 10
ENDMDL
MODEL      213
REMARK 921   NORMALIZED FREE ENERGY PREDICTED BY IDOCK:   -4.68 KCAL/MOL
REMARK 922        TOTAL FREE ENERGY PREDICTED BY IDOCK:   -8.77 KCAL/MOL
REMARK 923 INTER-LIGAND FREE ENERGY PREDICTED BY IDOCK:   -7.75 KCAL/MOL
REMARK 924 INTRA-LIGAND FREE ENERGY PREDICTED BY IDOCK:   -1.02 KCAL/MOL
REMARK 927      BINDING AFFINITY PREDICTED BY RF-SCORE:    0.00 PKD
ROOT
HETATM    1  C   UNL     1     -10.411   9.059  66.223  1.00  0.00    -0.130 C  
HETATM    2  C   UNL     1     -10.223  10.401  66.854  1.00  0.00    -0.281 A  
HETATM    3  C   UNL     1     -10.843  11.499  66.283  1.00  0.00    -0.282 A  
HETATM    4  N   UNL     1     -10.753  12.749  66.755  1.00  0.00    -0.258 NA 
HETATM    5  C   UNL     1      -9.980  12.919  67.828  1.00  0.00    -0.230 A  
HETATM    6  C   UNL     1      -9.488  10.648  68.013  1.00  0.00    -0.158 A  
HETATM    7  N   UNL     1      -9.361  11.907  68.468  1.00  0.00    -0.177 NA 
ENDROOT
BRANCH   5   8
HETATM    8  N   UNL     1      -9.848  14.244  68.251  1.00  0.00    -0.229 NA 
HETATM    9  H   UNL     1     -10.652  14.621  68.753  1.00  0.00     0.000 HD 
BRANCH   8  10
HETATM   10  C   UNL     1      -8.776  15.130  68.087  1.00  0.00    -0.167 A  
HETATM   11  C   UNL     1      -8.085  15.644  69.177  1.00  0.00    -0.238 A  
HETATM   12  C   UNL     1      -7.461  16.598  66.641  1.00  0.00    -0.311 A  
HETATM   13  C   UNL     1      -6.821  17.143  67.751  1.00  0.00    -0.152 A  
HETATM   14  C   UNL     1      -7.120  16.632  69.020  1.00  0.00    -0.216 A  
HETATM   15  C   UNL     1      -8.435  15.598  66.809  1.00  0.00    -0.307 A  
BRANCH  13  16
HETATM   16  O   UNL     1      -5.942  18.182  67.535  1.00  0.00    -0.154 OA 
BRANCH  16  17
HETATM   17  C   UNL     1      -6.564  19.280  66.863  1.00  0.00    -0.194 C  
BRANCH  17  18
HETATM   18  C   UNL     1      -7.337  20.230  67.779  1.00  0.00    -0.290 C  
BRANCH  18  19
HETATM   19  N   UNL     1      -8.756  20.222  67.389  1.00  0.00    -0.344 NA 
HETATM   20  C   UNL     1      -9.596  19.330  68.200  1.00  0.00    -0.353 C  
HETATM   21  C   UNL     1      -8.974  19.840  66.000  1.00  0.00    -0.257 C  
HETATM   22  C   UNL     1     -10.783  18.981  67.314  1.00  0.00    -0.556 C  
HETATM   23  C   UNL     1     -10.479  19.636  65.976  1.00  0.00    -0.622 C  
ENDBRANCH  18  19
ENDBRANCH  17  18
ENDBRANCH  16  17
ENDBRANCH  13  16
ENDBRANCH   8  10
ENDBRANCH   5   8
BRANCH   6  24
HETATM   24  N   UNL     1      -8.796   9.577  68.636  1.00  0.00    -0.130 NA 
HETATM   25  H   UNL     1      -8.782   9.641  69.654  1.00  0.00     0.000 HD 
BRANCH  24  26
HETATM   26  C   UNL     1      -8.121   8.436  68.135  1.00  0.00    -0.120 A  
HETATM   27  C   UNL     1      -6.912   8.471  67.433  1.00  0.00    -0.078 A  
HETATM   28  C   UNL     1      -8.778   7.194  68.204  1.00  0.00    -0.127 A  
HETATM   29  C   UNL     1      -6.380   7.326  66.815  1.00  0.00    -0.047 A  
HETATM   30  C   UNL     1      -7.077   6.120  66.840  1.00  0.00    -0.073 A  
HETATM   31  C   UNL     1      -8.294   6.065  67.518  1.00  0.00    -0.108 A  
BRANCH  31  32
HETATM   32  S   UNL     1      -9.212   4.547  67.548  1.00  0.00    -0.147 S  
HETATM   33  O   UNL     1     -10.480   4.804  66.897  1.00  0.00    -0.194 OA 
HETATM   34  O   UNL     1      -8.346   3.485  67.086  1.00  0.00    -0.090 OA 
BRANCH  32  35
HETATM   35  N   UNL     1      -9.590   4.291  69.166  1.00  0.00    -0.179 N  
HETATM   36  C   UNL     1      -9.601   3.463  71.463  1.00  0.00    -0.233 C  
HETATM   37  C   UNL     1      -9.181   1.872  69.613  1.00  0.00    -0.172 C  
HETATM   38  C   UNL     1      -7.450   3.604  70.229  1.00  0.00    -0.041 C  
HETATM   39  C   UNL     1      -8.942   3.312  70.075  1.00  0.00    -0.106 C  
HETATM   40  H   UNL     1     -10.337   4.862  69.561  1.00  0.00     0.000 HD 
ENDBRANCH  32  35
ENDBRANCH  31  32
ENDBRANCH  24  26
ENDBRANCH   6  24
TORSDOF 10
ENDMDL
MODEL      214
REMARK 921   NORMALIZED FREE ENERGY PREDICTED BY IDOCK:   -4.68 KCAL/MOL
REMARK 922        TOTAL FREE ENERGY PREDICTED BY IDOCK:   -8.76 KCAL/MOL
REMARK 923 INTER-LIGAND FREE ENERGY PREDICTED BY IDOCK:   -6.84 KCAL/MOL
REMARK 924 INTRA-LIGAND FREE ENERGY PREDICTED BY IDOCK:   -1.92 KCAL/MOL
REMARK 927      BINDING AFFINITY PREDICTED BY RF-SCORE:    0.00 PKD
ROOT
HETATM    1  C   UNL     1      -8.334   7.598  65.551  1.00  0.00    -0.139 C  
HETATM    2  C   UNL     1      -7.499   8.557  66.338  1.00  0.00    -0.087 A  
HETATM    3  C   UNL     1      -7.359   9.854  65.876  1.00  0.00    -0.108 A  
HETATM    4  N   UNL     1      -6.641  10.802  66.491  1.00  0.00    -0.110 NA 
HETATM    5  C   UNL     1      -6.005  10.432  67.603  1.00  0.00    -0.048 A  
HETATM    6  C   UNL     1      -6.862   8.264  67.543  1.00  0.00    -0.070 A  
HETATM    7  N   UNL     1      -6.107   9.201  68.144  1.00  0.00    -0.049 NA 
ENDROOT
BRANCH   5   8
HETATM    8  N   UNL     1      -5.207  11.423  68.180  1.00  0.00    -0.043 NA 
HETATM    9  H   UNL     1      -4.236  11.158  68.343  1.00  0.00     0.000 HD 
BRANCH   8  10
HETATM   10  C   UNL     1      -5.545  12.726  68.568  1.00  0.00    -0.058 A  
HETATM   11  C   UNL     1      -6.101  12.993  69.813  1.00  0.00    -0.123 A  
HETATM   12  C   UNL     1      -5.888  15.074  67.980  1.00  0.00    -0.155 A  
HETATM   13  C   UNL     1      -6.496  15.308  69.210  1.00  0.00    -0.131 A  
HETATM   14  C   UNL     1      -6.568  14.262  70.137  1.00  0.00    -0.070 A  
HETATM   15  C   UNL     1      -5.417  13.789  67.659  1.00  0.00     0.026 A  
BRANCH  13  16
HETATM   16  O   UNL     1      -7.020  16.563  69.435  1.00  0.00    -0.225 OA 
BRANCH  16  17
HETATM   17  C   UNL     1      -7.853  16.997  68.358  1.00  0.00    -0.233 C  
BRANCH  17  18
HETATM   18  C   UNL     1      -9.324  17.190  68.730  1.00  0.00    -0.252 C  
BRANCH  18  19
HETATM   19  N   UNL     1      -9.969  15.872  68.832  1.00  0.00    -0.214 NA 
HETATM   20  C   UNL     1     -10.941  15.595  67.767  1.00  0.00    -0.316 C  
HETATM   21  C   UNL     1     -10.671  15.667  70.093  1.00  0.00    -0.342 C  
HETATM   22  C   UNL     1     -11.898  14.568  68.353  1.00  0.00    -0.351 C  
HETATM   23  C   UNL     1     -11.455  14.399  69.798  1.00  0.00    -0.328 C  
ENDBRANCH  18  19
ENDBRANCH  17  18
ENDBRANCH  16  17
ENDBRANCH  13  16
ENDBRANCH   8  10
ENDBRANCH   5   8
BRANCH   6  24
HETATM   24  N   UNL     1      -6.933   6.945  68.063  1.00  0.00    -0.080 NA 
HETATM   25  H   UNL     1      -6.159   6.350  67.769  1.00  0.00     0.000 HD 
BRANCH  24  26
HETATM   26  C   UNL     1      -7.860   6.286  68.909  1.00  0.00    -0.105 A  
HETATM   27  C   UNL     1      -7.987   4.898  69.021  1.00  0.00    -0.076 A  
HETATM   28  C   UNL     1      -8.828   7.067  69.567  1.00  0.00    -0.133 A  
HETATM   29  C   UNL     1      -9.036   4.305  69.746  1.00  0.00    -0.181 A  
HETATM   30  C   UNL     1     -10.022   5.094  70.336  1.00  0.00    -0.316 A  
HETATM   31  C   UNL     1      -9.926   6.479  70.222  1.00  0.00    -0.174 A  
BRANCH  31  32
HETATM   32  S   UNL     1     -11.178   7.506  70.949  1.00  0.00    -0.272 S  
HETATM   33  O   UNL     1     -12.382   6.706  71.043  1.00  0.00    -0.352 OA 
HETATM   34  O   UNL     1     -10.619   8.140  72.122  1.00  0.00    -0.245 OA 
BRANCH  32  35
HETATM   35  N   UNL     1     -11.516   8.678  69.792  1.00  0.00    -0.432 N  
HETATM   36  C   UNL     1     -11.629  10.782  68.557  1.00  0.00    -0.325 C  
HETATM   37  C   UNL     1     -11.807  10.825  71.027  1.00  0.00    -0.349 C  
HETATM   38  C   UNL     1      -9.610  10.271  69.911  1.00  0.00    -0.082 C  
HETATM   39  C   UNL     1     -11.128  10.110  69.855  1.00  0.00    -0.293 C  
HETATM   40  H   UNL     1     -12.036   8.377  68.968  1.00  0.00     0.000 HD 
ENDBRANCH  32  35
ENDBRANCH  31  32
ENDBRANCH  24  26
ENDBRANCH   6  24
TORSDOF 10
ENDMDL
MODEL      215
REMARK 921   NORMALIZED FREE ENERGY PREDICTED BY IDOCK:   -4.66 KCAL/MOL
REMARK 922        TOTAL FREE ENERGY PREDICTED BY IDOCK:   -8.73 KCAL/MOL
REMARK 923 INTER-LIGAND FREE ENERGY PREDICTED BY IDOCK:   -7.52 KCAL/MOL
REMARK 924 INTRA-LIGAND FREE ENERGY PREDICTED BY IDOCK:   -1.21 KCAL/MOL
REMARK 927      BINDING AFFINITY PREDICTED BY RF-SCORE:    0.00 PKD
ROOT
HETATM    1  C   UNL     1      -9.178   4.583  62.994  1.00  0.00    -0.104 C  
HETATM    2  C   UNL     1      -8.825   4.347  64.428  1.00  0.00    -0.149 A  
HETATM    3  C   UNL     1      -9.509   3.371  65.130  1.00  0.00    -0.152 A  
HETATM    4  N   UNL     1      -9.284   3.065  66.415  1.00  0.00    -0.146 NA 
HETATM    5  C   UNL     1      -8.355   3.790  67.038  1.00  0.00    -0.099 A  
HETATM    6  C   UNL     1      -7.821   5.015  65.128  1.00  0.00    -0.089 A  
HETATM    7  N   UNL     1      -7.618   4.740  66.428  1.00  0.00    -0.086 NA 
ENDROOT
BRANCH   5   8
HETATM    8  N   UNL     1      -8.196   3.497  68.395  1.00  0.00    -0.076 NA 
HETATM    9  H   UNL     1      -7.861   2.555  68.599  1.00  0.00     0.000 HD 
BRANCH   8  10
HETATM   10  C   UNL     1      -8.427   4.305  69.516  1.00  0.00    -0.071 A  
HETATM   11  C   UNL     1      -7.588   5.366  69.832  1.00  0.00    -0.073 A  
HETATM   12  C   UNL     1      -9.621   4.706  71.610  1.00  0.00    -0.221 A  
HETATM   13  C   UNL     1      -8.733   5.728  71.938  1.00  0.00    -0.135 A  
HETATM   14  C   UNL     1      -7.734   6.073  71.020  1.00  0.00    -0.102 A  
HETATM   15  C   UNL     1      -9.467   3.997  70.407  1.00  0.00    -0.252 A  
BRANCH  13  16
HETATM   16  O   UNL     1      -8.877   6.328  73.170  1.00  0.00    -0.130 OA 
BRANCH  16  17
HETATM   17  C   UNL     1     -10.220   6.755  73.406  1.00  0.00    -0.268 C  
BRANCH  17  18
HETATM   18  C   UNL     1     -10.620   8.032  72.665  1.00  0.00    -0.350 C  
BRANCH  18  19
HETATM   19  N   UNL     1     -12.087   8.098  72.581  1.00  0.00    -0.325 NA 
HETATM   20  C   UNL     1     -12.713   6.876  72.059  1.00  0.00    -0.193 C  
HETATM   21  C   UNL     1     -12.570   9.195  71.752  1.00  0.00    -0.370 C  
HETATM   22  C   UNL     1     -14.044   7.327  71.474  1.00  0.00    -0.515 C  
HETATM   23  C   UNL     1     -14.042   8.841  71.613  1.00  0.00    -0.437 C  
ENDBRANCH  18  19
ENDBRANCH  17  18
ENDBRANCH  16  17
ENDBRANCH  13  16
ENDBRANCH   8  10
ENDBRANCH   5   8
BRANCH   6  24
HETATM   24  N   UNL     1      -7.098   6.053  64.483  1.00  0.00    -0.054 NA 
HETATM   25  H   UNL     1      -6.138   5.796  64.253  1.00  0.00     0.000 HD 
BRANCH  24  26
HETATM   26  C   UNL     1      -7.437   7.372  64.092  1.00  0.00    -0.099 A  
HETATM   27  C   UNL     1      -7.025   7.981  62.903  1.00  0.00    -0.086 A  
HETATM   28  C   UNL     1      -8.100   8.189  65.027  1.00  0.00    -0.155 A  
HETATM   29  C   UNL     1      -7.251   9.346  62.652  1.00  0.00    -0.100 A  
HETATM   30  C   UNL     1      -7.852  10.153  63.616  1.00  0.00    -0.154 A  
HETATM   31  C   UNL     1      -8.254   9.572  64.817  1.00  0.00    -0.143 A  
BRANCH  31  32
HETATM   32  S   UNL     1      -9.006  10.581  66.069  1.00  0.00    -0.173 S  
HETATM   33  O   UNL     1     -10.258   9.949  66.429  1.00  0.00    -0.242 OA 
HETATM   34  O   UNL     1      -8.008  10.870  67.075  1.00  0.00    -0.122 OA 
BRANCH  32  35
HETATM   35  N   UNL     1      -9.437  12.006  65.290  1.00  0.00    -0.428 N  
HETATM   36  C   UNL     1     -10.484  14.138  64.723  1.00  0.00    -0.432 C  
HETATM   37  C   UNL     1     -11.863  12.356  65.751  1.00  0.00    -0.467 C  
HETATM   38  C   UNL     1     -10.108  13.561  67.110  1.00  0.00    -0.245 C  
HETATM   39  C   UNL     1     -10.463  12.978  65.743  1.00  0.00    -0.280 C  
HETATM   40  H   UNL     1      -8.948  12.224  64.422  1.00  0.00     0.000 HD 
ENDBRANCH  32  35
ENDBRANCH  31  32
ENDBRANCH  24  26
ENDBRANCH   6  24
TORSDOF 10
ENDMDL
MODEL      216
REMARK 921   NORMALIZED FREE ENERGY PREDICTED BY IDOCK:   -4.65 KCAL/MOL
REMARK 922        TOTAL FREE ENERGY PREDICTED BY IDOCK:   -8.72 KCAL/MOL
REMARK 923 INTER-LIGAND FREE ENERGY PREDICTED BY IDOCK:   -7.16 KCAL/MOL
REMARK 924 INTRA-LIGAND FREE ENERGY PREDICTED BY IDOCK:   -1.56 KCAL/MOL
REMARK 927      BINDING AFFINITY PREDICTED BY RF-SCORE:    0.00 PKD
ROOT
HETATM    1  C   UNL     1     -12.394  13.986  64.503  1.00  0.00    -0.409 C  
HETATM    2  C   UNL     1     -11.650  12.738  64.854  1.00  0.00    -0.369 A  
HETATM    3  C   UNL     1     -11.023  12.029  63.845  1.00  0.00    -0.401 A  
HETATM    4  N   UNL     1     -10.326  10.901  64.033  1.00  0.00    -0.364 NA 
HETATM    5  C   UNL     1     -10.279  10.440  65.283  1.00  0.00    -0.262 A  
HETATM    6  C   UNL     1     -11.497  12.231  66.144  1.00  0.00    -0.374 A  
HETATM    7  N   UNL     1     -10.832  11.078  66.334  1.00  0.00    -0.232 NA 
ENDROOT
BRANCH   5   8
HETATM    8  N   UNL     1      -9.607   9.225  65.434  1.00  0.00    -0.439 NA 
HETATM    9  H   UNL     1      -9.029   8.946  64.641  1.00  0.00     0.000 HD 
BRANCH   8  10
HETATM   10  C   UNL     1      -9.608   8.333  66.514  1.00  0.00    -0.244 A  
HETATM   11  C   UNL     1      -8.542   8.265  67.403  1.00  0.00    -0.125 A  
HETATM   12  C   UNL     1     -10.601   6.413  67.656  1.00  0.00    -0.340 A  
HETATM   13  C   UNL     1      -9.496   6.325  68.499  1.00  0.00    -0.123 A  
HETATM   14  C   UNL     1      -8.482   7.282  68.384  1.00  0.00    -0.125 A  
HETATM   15  C   UNL     1     -10.655   7.410  66.668  1.00  0.00    -0.124 A  
BRANCH  13  16
HETATM   16  O   UNL     1      -9.454   5.273  69.389  1.00  0.00    -0.122 OA 
BRANCH  16  17
HETATM   17  C   UNL     1      -8.137   5.053  69.898  1.00  0.00    -0.074 C  
BRANCH  17  18
HETATM   18  C   UNL     1      -7.611   3.630  69.703  1.00  0.00    -0.051 C  
BRANCH  18  19
HETATM   19  N   UNL     1      -6.795   3.584  68.480  1.00  0.00    -0.045 NA 
HETATM   20  C   UNL     1      -6.067   4.828  68.197  1.00  0.00    -0.031 C  
HETATM   21  C   UNL     1      -7.565   3.276  67.282  1.00  0.00    -0.074 C  
HETATM   22  C   UNL     1      -5.831   4.822  66.694  1.00  0.00    -0.022 C  
HETATM   23  C   UNL     1      -6.555   3.584  66.188  1.00  0.00    -0.037 C  
ENDBRANCH  18  19
ENDBRANCH  17  18
ENDBRANCH  16  17
ENDBRANCH  13  16
ENDBRANCH   8  10
ENDBRANCH   5   8
BRANCH   6  24
HETATM   24  N   UNL     1     -12.138  12.887  67.228  1.00  0.00    -0.381 NA 
HETATM   25  H   UNL     1     -13.150  12.755  67.240  1.00  0.00     0.000 HD 
BRANCH  24  26
HETATM   26  C   UNL     1     -11.662  13.687  68.296  1.00  0.00    -0.363 A  
HETATM   27  C   UNL     1     -12.210  13.707  69.582  1.00  0.00    -0.326 A  
HETATM   28  C   UNL     1     -10.669  14.644  68.015  1.00  0.00    -0.246 A  
HETATM   29  C   UNL     1     -11.803  14.644  70.548  1.00  0.00    -0.367 A  
HETATM   30  C   UNL     1     -10.866  15.625  70.231  1.00  0.00    -0.366 A  
HETATM   31  C   UNL     1     -10.318  15.636  68.949  1.00  0.00    -0.218 A  
BRANCH  31  32
HETATM   32  S   UNL     1      -9.136  16.886  68.513  1.00  0.00    -0.263 S  
HETATM   33  O   UNL     1      -8.702  17.509  69.746  1.00  0.00     0.785 OA 
HETATM   34  O   UNL     1      -8.176  16.303  67.601  1.00  0.00    -0.149 OA 
BRANCH  32  35
HETATM   35  N   UNL     1     -10.019  18.068  67.708  1.00  0.00    -0.311 N  
HETATM   36  C   UNL     1     -10.961  19.516  65.981  1.00  0.00    -0.280 C  
HETATM   37  C   UNL     1      -8.564  18.904  65.863  1.00  0.00     0.119 C  
HETATM   38  C   UNL     1     -10.350  17.176  65.411  1.00  0.00    -0.038 C  
HETATM   39  C   UNL     1      -9.949  18.382  66.259  1.00  0.00    -0.366 C  
HETATM   40  H   UNL     1     -10.666  18.623  68.269  1.00  0.00     0.000 HD 
ENDBRANCH  32  35
ENDBRANCH  31  32
ENDBRANCH  24  26
ENDBRANCH   6  24
TORSDOF 10
ENDMDL
MODEL      217
REMARK 921   NORMALIZED FREE ENERGY PREDICTED BY IDOCK:   -4.63 KCAL/MOL
REMARK 922        TOTAL FREE ENERGY PREDICTED BY IDOCK:   -8.68 KCAL/MOL
REMARK 923 INTER-LIGAND FREE ENERGY PREDICTED BY IDOCK:   -8.51 KCAL/MOL
REMARK 924 INTRA-LIGAND FREE ENERGY PREDICTED BY IDOCK:   -0.17 KCAL/MOL
REMARK 927      BINDING AFFINITY PREDICTED BY RF-SCORE:    0.00 PKD
ROOT
HETATM    1  C   UNL     1     -10.807  15.869  66.768  1.00  0.00    -0.228 C  
HETATM    2  C   UNL     1     -10.955  14.481  67.304  1.00  0.00    -0.307 A  
HETATM    3  C   UNL     1     -11.728  13.574  66.600  1.00  0.00    -0.387 A  
HETATM    4  N   UNL     1     -11.935  12.305  66.975  1.00  0.00    -0.590 NA 
HETATM    5  C   UNL     1     -11.371  11.931  68.124  1.00  0.00    -0.288 A  
HETATM    6  C   UNL     1     -10.342  13.996  68.458  1.00  0.00    -0.247 A  
HETATM    7  N   UNL     1     -10.578  12.735  68.861  1.00  0.00    -0.175 NA 
ENDROOT
BRANCH   5   8
HETATM    8  N   UNL     1     -11.666  10.625  68.523  1.00  0.00    -0.663 NA 
HETATM    9  H   UNL     1     -12.635  10.463  68.797  1.00  0.00     0.000 HD 
BRANCH   8  10
HETATM   10  C   UNL     1     -10.826   9.506  68.603  1.00  0.00    -0.139 A  
HETATM   11  C   UNL     1     -10.686   8.785  69.782  1.00  0.00    -0.220 A  
HETATM   12  C   UNL     1      -9.073   8.117  67.618  1.00  0.00    -0.142 A  
HETATM   13  C   UNL     1      -8.906   7.445  68.826  1.00  0.00    -0.130 A  
HETATM   14  C   UNL     1      -9.746   7.768  69.899  1.00  0.00    -0.176 A  
HETATM   15  C   UNL     1     -10.027   9.143  67.508  1.00  0.00    -0.258 A  
BRANCH  13  16
HETATM   16  O   UNL     1      -7.895   6.511  68.903  1.00  0.00    -0.106 OA 
BRANCH  16  17
HETATM   17  C   UNL     1      -7.979   5.728  70.095  1.00  0.00    -0.100 C  
BRANCH  17  18
HETATM   18  C   UNL     1      -6.821   5.934  71.073  1.00  0.00    -0.065 C  
BRANCH  18  19
HETATM   19  N   UNL     1      -7.357   6.400  72.361  1.00  0.00    -0.087 NA 
HETATM   20  C   UNL     1      -7.925   7.754  72.319  1.00  0.00    -0.113 C  
HETATM   21  C   UNL     1      -6.371   6.401  73.433  1.00  0.00    -0.064 C  
HETATM   22  C   UNL     1      -7.834   8.272  73.747  1.00  0.00    -0.228 C  
HETATM   23  C   UNL     1      -7.101   7.182  74.513  1.00  0.00    -0.109 C  
ENDBRANCH  18  19
ENDBRANCH  17  18
ENDBRANCH  16  17
ENDBRANCH  13  16
ENDBRANCH   8  10
ENDBRANCH   5   8
BRANCH   6  24
HETATM   24  N   UNL     1      -9.560  14.877  69.251  1.00  0.00    -0.361 NA 
HETATM   25  H   UNL     1     -10.028  15.177  70.106  1.00  0.00     0.000 HD 
BRANCH  24  26
HETATM   26  C   UNL     1      -8.261  15.424  69.098  1.00  0.00    -0.243 A  
HETATM   27  C   UNL     1      -7.083  14.813  69.537  1.00  0.00    -0.172 A  
HETATM   28  C   UNL     1      -8.151  16.741  68.614  1.00  0.00    -0.251 A  
HETATM   29  C   UNL     1      -5.846  15.481  69.509  1.00  0.00    -0.121 A  
HETATM   30  C   UNL     1      -5.768  16.807  69.087  1.00  0.00    -0.152 A  
HETATM   31  C   UNL     1      -6.933  17.443  68.662  1.00  0.00    -0.226 A  
BRANCH  31  32
HETATM   32  S   UNL     1      -6.864  19.137  68.137  1.00  0.00    -0.255 S  
HETATM   33  O   UNL     1      -7.326  19.944  69.248  1.00  0.00    -0.285 OA 
HETATM   34  O   UNL     1      -5.568  19.374  67.541  1.00  0.00    -0.176 OA 
BRANCH  32  35
HETATM   35  N   UNL     1      -8.053  19.284  66.959  1.00  0.00    -0.258 N  
HETATM   36  C   UNL     1     -10.124  19.817  65.778  1.00  0.00    -0.423 C  
HETATM   37  C   UNL     1     -10.242  19.057  68.133  1.00  0.00    -0.472 C  
HETATM   38  C   UNL     1      -9.316  21.338  67.569  1.00  0.00     0.074 C  
HETATM   39  C   UNL     1      -9.403  19.873  67.144  1.00  0.00    -0.364 C  
HETATM   40  H   UNL     1      -7.826  18.936  66.028  1.00  0.00     0.000 HD 
ENDBRANCH  32  35
ENDBRANCH  31  32
ENDBRANCH  24  26
ENDBRANCH   6  24
TORSDOF 10
ENDMDL
MODEL      218
REMARK 921   NORMALIZED FREE ENERGY PREDICTED BY IDOCK:   -4.61 KCAL/MOL
REMARK 922        TOTAL FREE ENERGY PREDICTED BY IDOCK:   -8.66 KCAL/MOL
REMARK 923 INTER-LIGAND FREE ENERGY PREDICTED BY IDOCK:   -7.04 KCAL/MOL
REMARK 924 INTRA-LIGAND FREE ENERGY PREDICTED BY IDOCK:   -1.62 KCAL/MOL
REMARK 927      BINDING AFFINITY PREDICTED BY RF-SCORE:    0.00 PKD
ROOT
HETATM    1  C   UNL     1      -7.074   2.042  67.449  1.00  0.00    -0.043 C  
HETATM    2  C   UNL     1      -7.736   3.356  67.184  1.00  0.00    -0.079 A  
HETATM    3  C   UNL     1      -8.252   3.600  65.924  1.00  0.00    -0.101 A  
HETATM    4  N   UNL     1      -8.868   4.734  65.565  1.00  0.00    -0.134 NA 
HETATM    5  C   UNL     1      -8.944   5.683  66.498  1.00  0.00    -0.126 A  
HETATM    6  C   UNL     1      -7.916   4.368  68.126  1.00  0.00    -0.079 A  
HETATM    7  N   UNL     1      -8.498   5.524  67.760  1.00  0.00    -0.099 NA 
ENDROOT
BRANCH   5   8
HETATM    8  N   UNL     1      -9.526   6.879  66.072  1.00  0.00    -0.394 NA 
HETATM    9  H   UNL     1     -10.008   6.832  65.174  1.00  0.00     0.000 HD 
BRANCH   8  10
HETATM   10  C   UNL     1      -9.547   8.134  66.695  1.00  0.00    -0.229 A  
HETATM   11  C   UNL     1     -10.741   8.786  66.976  1.00  0.00    -0.186 A  
HETATM   12  C   UNL     1      -8.352  10.126  67.453  1.00  0.00    -0.118 A  
HETATM   13  C   UNL     1      -9.559  10.785  67.672  1.00  0.00    -0.158 A  
HETATM   14  C   UNL     1     -10.755  10.089  67.460  1.00  0.00    -0.339 A  
HETATM   15  C   UNL     1      -8.346   8.809  66.965  1.00  0.00    -0.103 A  
BRANCH  13  16
HETATM   16  O   UNL     1      -9.504  12.105  68.065  1.00  0.00    -0.188 OA 
BRANCH  16  17
HETATM   17  C   UNL     1      -9.001  12.952  67.029  1.00  0.00    -0.225 C  
BRANCH  17  18
HETATM   18  C   UNL     1      -9.247  14.444  67.253  1.00  0.00    -0.209 C  
BRANCH  18  19
HETATM   19  N   UNL     1      -9.795  15.030  66.020  1.00  0.00    -0.299 NA 
HETATM   20  C   UNL     1     -10.034  16.477  66.098  1.00  0.00    -0.343 C  
HETATM   21  C   UNL     1     -11.054  14.427  65.601  1.00  0.00    -0.321 C  
HETATM   22  C   UNL     1     -11.116  16.761  65.065  1.00  0.00    -0.063 C  
HETATM   23  C   UNL     1     -11.508  15.396  64.523  1.00  0.00    -0.314 C  
ENDBRANCH  18  19
ENDBRANCH  17  18
ENDBRANCH  16  17
ENDBRANCH  13  16
ENDBRANCH   8  10
ENDBRANCH   5   8
BRANCH   6  24
HETATM   24  N   UNL     1      -7.385   4.203  69.432  1.00  0.00    -0.053 NA 
HETATM   25  H   UNL     1      -6.382   4.382  69.488  1.00  0.00     0.000 HD 
BRANCH  24  26
HETATM   26  C   UNL     1      -7.962   3.840  70.674  1.00  0.00    -0.054 A  
HETATM   27  C   UNL     1      -7.908   2.560  71.234  1.00  0.00    -0.043 A  
HETATM   28  C   UNL     1      -8.782   4.782  71.324  1.00  0.00    -0.141 A  
HETATM   29  C   UNL     1      -8.643   2.221  72.383  1.00  0.00    -0.072 A  
HETATM   30  C   UNL     1      -9.498   3.148  72.975  1.00  0.00    -0.130 A  
HETATM   31  C   UNL     1      -9.583   4.425  72.424  1.00  0.00    -0.147 A  
BRANCH  31  32
HETATM   32  S   UNL     1     -10.679   5.620  73.147  1.00  0.00    -0.286 S  
HETATM   33  O   UNL     1     -12.013   5.313  72.673  1.00  0.00    -0.170 OA 
HETATM   34  O   UNL     1     -10.397   5.694  74.563  1.00  0.00    -0.269 OA 
BRANCH  32  35
HETATM   35  N   UNL     1     -10.279   7.083  72.423  1.00  0.00    -0.185 N  
HETATM   36  C   UNL     1     -10.340   9.128  71.089  1.00  0.00    -0.387 C  
HETATM   37  C   UNL     1     -11.293   7.046  70.145  1.00  0.00    -0.321 C  
HETATM   38  C   UNL     1     -12.450   8.235  72.050  1.00  0.00    -0.393 C  
HETATM   39  C   UNL     1     -11.105   7.834  71.446  1.00  0.00    -0.238 C  
HETATM   40  H   UNL     1      -9.382   7.495  72.681  1.00  0.00     0.000 HD 
ENDBRANCH  32  35
ENDBRANCH  31  32
ENDBRANCH  24  26
ENDBRANCH   6  24
TORSDOF 10
ENDMDL
MODEL      219
REMARK 921   NORMALIZED FREE ENERGY PREDICTED BY IDOCK:   -4.61 KCAL/MOL
REMARK 922        TOTAL FREE ENERGY PREDICTED BY IDOCK:   -8.65 KCAL/MOL
REMARK 923 INTER-LIGAND FREE ENERGY PREDICTED BY IDOCK:   -6.74 KCAL/MOL
REMARK 924 INTRA-LIGAND FREE ENERGY PREDICTED BY IDOCK:   -1.90 KCAL/MOL
REMARK 927      BINDING AFFINITY PREDICTED BY RF-SCORE:    0.00 PKD
ROOT
HETATM    1  C   UNL     1      -9.807   7.054  74.029  1.00  0.00    -0.345 C  
HETATM    2  C   UNL     1      -8.791   7.714  73.152  1.00  0.00    -0.231 A  
HETATM    3  C   UNL     1      -7.608   8.156  73.718  1.00  0.00    -0.171 A  
HETATM    4  N   UNL     1      -6.623   8.759  73.040  1.00  0.00    -0.299 NA 
HETATM    5  C   UNL     1      -6.841   8.960  71.740  1.00  0.00    -0.025 A  
HETATM    6  C   UNL     1      -8.916   7.897  71.776  1.00  0.00    -0.132 A  
HETATM    7  N   UNL     1      -7.948   8.537  71.096  1.00  0.00    -0.110 NA 
ENDROOT
BRANCH   5   8
HETATM    8  N   UNL     1      -5.827   9.654  71.076  1.00  0.00    -0.071 NA 
HETATM    9  H   UNL     1      -4.879   9.339  71.280  1.00  0.00     0.000 HD 
BRANCH   8  10
HETATM   10  C   UNL     1      -5.921  10.720  70.171  1.00  0.00    -0.106 A  
HETATM   11  C   UNL     1      -5.858  10.515  68.798  1.00  0.00    -0.040 A  
HETATM   12  C   UNL     1      -5.929  13.127  69.749  1.00  0.00    -0.127 A  
HETATM   13  C   UNL     1      -5.806  12.903  68.380  1.00  0.00    -0.071 A  
HETATM   14  C   UNL     1      -5.805  11.584  67.911  1.00  0.00    -0.045 A  
HETATM   15  C   UNL     1      -5.984  12.042  70.639  1.00  0.00     0.032 A  
BRANCH  13  16
HETATM   16  O   UNL     1      -5.666  14.003  67.563  1.00  0.00    -0.341 OA 
BRANCH  16  17
HETATM   17  C   UNL     1      -6.781  14.892  67.663  1.00  0.00    -0.177 C  
BRANCH  17  18
HETATM   18  C   UNL     1      -8.121  14.276  67.258  1.00  0.00    -0.178 C  
BRANCH  18  19
HETATM   19  N   UNL     1      -9.025  14.291  68.419  1.00  0.00    -0.186 NA 
HETATM   20  C   UNL     1     -10.379  13.800  68.131  1.00  0.00    -0.252 C  
HETATM   21  C   UNL     1      -9.184  15.612  69.013  1.00  0.00    -0.243 C  
HETATM   22  C   UNL     1     -11.272  14.449  69.178  1.00  0.00    -0.300 C  
HETATM   23  C   UNL     1     -10.354  15.379  69.955  1.00  0.00    -0.298 C  
ENDBRANCH  18  19
ENDBRANCH  17  18
ENDBRANCH  16  17
ENDBRANCH  13  16
ENDBRANCH   8  10
ENDBRANCH   5   8
BRANCH   6  24
HETATM   24  N   UNL     1     -10.115   7.498  71.129  1.00  0.00    -0.189 NA 
HETATM   25  H   UNL     1     -10.850   7.213  71.777  1.00  0.00     0.000 HD 
BRANCH  24  26
HETATM   26  C   UNL     1     -10.502   7.415  69.768  1.00  0.00    -0.229 A  
HETATM   27  C   UNL     1     -10.863   6.234  69.114  1.00  0.00    -0.403 A  
HETATM   28  C   UNL     1     -10.366   8.566  68.970  1.00  0.00    -0.229 A  
HETATM   29  C   UNL     1     -11.071   6.190  67.724  1.00  0.00    -0.306 A  
HETATM   30  C   UNL     1     -10.869   7.325  66.942  1.00  0.00    -0.265 A  
HETATM   31  C   UNL     1     -10.491   8.510  67.570  1.00  0.00    -0.258 A  
BRANCH  31  32
HETATM   32  S   UNL     1     -10.208   9.966  66.595  1.00  0.00    -0.209 S  
HETATM   33  O   UNL     1     -11.491  10.614  66.418  1.00  0.00     0.042 OA 
HETATM   34  O   UNL     1      -9.090  10.684  67.167  1.00  0.00    -0.143 OA 
BRANCH  32  35
HETATM   35  N   UNL     1      -9.783   9.402  65.070  1.00  0.00    -0.433 N  
HETATM   36  C   UNL     1      -8.519   8.604  63.139  1.00  0.00    -0.100 C  
HETATM   37  C   UNL     1      -7.571  10.419  64.531  1.00  0.00    -0.034 C  
HETATM   38  C   UNL     1      -7.720   8.062  65.428  1.00  0.00    -0.096 C  
HETATM   39  C   UNL     1      -8.406   9.136  64.585  1.00  0.00    -0.172 C  
HETATM   40  H   UNL     1     -10.545   9.226  64.415  1.00  0.00     0.000 HD 
ENDBRANCH  32  35
ENDBRANCH  31  32
ENDBRANCH  24  26
ENDBRANCH   6  24
TORSDOF 10
ENDMDL
MODEL      220
REMARK 921   NORMALIZED FREE ENERGY PREDICTED BY IDOCK:   -4.52 KCAL/MOL
REMARK 922        TOTAL FREE ENERGY PREDICTED BY IDOCK:   -8.51 KCAL/MOL
REMARK 923 INTER-LIGAND FREE ENERGY PREDICTED BY IDOCK:   -7.45 KCAL/MOL
REMARK 924 INTRA-LIGAND FREE ENERGY PREDICTED BY IDOCK:   -1.06 KCAL/MOL
REMARK 927      BINDING AFFINITY PREDICTED BY RF-SCORE:    0.00 PKD
ROOT
HETATM    1  C   UNL     1     -13.138   9.032  72.683  1.00  0.00    -0.358 C  
HETATM    2  C   UNL     1     -12.023   8.533  71.821  1.00  0.00    -0.393 A  
HETATM    3  C   UNL     1     -11.269   7.459  72.262  1.00  0.00    -0.272 A  
HETATM    4  N   UNL     1     -10.249   6.921  71.582  1.00  0.00    -0.191 NA 
HETATM    5  C   UNL     1      -9.942   7.502  70.422  1.00  0.00    -0.184 A  
HETATM    6  C   UNL     1     -11.687   9.042  70.568  1.00  0.00    -0.126 A  
HETATM    7  N   UNL     1     -10.638   8.532  69.899  1.00  0.00    -0.227 NA 
ENDROOT
BRANCH   5   8
HETATM    8  N   UNL     1      -8.829   6.965  69.773  1.00  0.00    -0.141 NA 
HETATM    9  H   UNL     1      -8.687   5.964  69.910  1.00  0.00     0.000 HD 
BRANCH   8  10
HETATM   10  C   UNL     1      -7.878   7.597  68.961  1.00  0.00    -0.119 A  
HETATM   11  C   UNL     1      -6.843   8.348  69.505  1.00  0.00    -0.041 A  
HETATM   12  C   UNL     1      -7.150   8.315  66.741  1.00  0.00    -0.077 A  
HETATM   13  C   UNL     1      -6.156   9.109  67.307  1.00  0.00    -0.057 A  
HETATM   14  C   UNL     1      -5.990   9.092  68.697  1.00  0.00    -0.045 A  
HETATM   15  C   UNL     1      -8.008   7.565  67.564  1.00  0.00    -0.116 A  
BRANCH  13  16
HETATM   16  O   UNL     1      -5.404   9.892  66.459  1.00  0.00    -0.043 OA 
BRANCH  16  17
HETATM   17  C   UNL     1      -5.852  11.249  66.443  1.00  0.00    -0.136 C  
BRANCH  17  18
HETATM   18  C   UNL     1      -7.372  11.416  66.432  1.00  0.00    -0.006 C  
BRANCH  18  19
HETATM   19  N   UNL     1      -7.732  12.585  67.250  1.00  0.00    -0.162 NA 
HETATM   20  C   UNL     1      -7.922  13.821  66.479  1.00  0.00     0.915 C  
HETATM   21  C   UNL     1      -6.753  12.892  68.284  1.00  0.00    -0.093 C  
HETATM   22  C   UNL     1      -7.660  14.952  67.463  1.00  0.00    -0.218 C  
HETATM   23  C   UNL     1      -7.222  14.262  68.745  1.00  0.00    -0.129 C  
ENDBRANCH  18  19
ENDBRANCH  17  18
ENDBRANCH  16  17
ENDBRANCH  13  16
ENDBRANCH   8  10
ENDBRANCH   5   8
BRANCH   6  24
HETATM   24  N   UNL     1     -12.394  10.165  70.063  1.00  0.00    -0.515 NA 
HETATM   25  H   UNL     1     -13.336  10.256  70.444  1.00  0.00     0.000 HD 
BRANCH  24  26
HETATM   26  C   UNL     1     -12.060  11.186  69.139  1.00  0.00    -0.283 A  
HETATM   27  C   UNL     1     -11.575  10.962  67.847  1.00  0.00    -0.270 A  
HETATM   28  C   UNL     1     -12.063  12.517  69.593  1.00  0.00    -0.272 A  
HETATM   29  C   UNL     1     -11.102  12.012  67.040  1.00  0.00    -0.351 A  
HETATM   30  C   UNL     1     -11.053  13.315  67.531  1.00  0.00    -0.292 A  
HETATM   31  C   UNL     1     -11.514  13.559  68.823  1.00  0.00    -0.311 A  
BRANCH  31  32
HETATM   32  S   UNL     1     -11.445  15.207  69.481  1.00  0.00    -0.319 S  
HETATM   33  O   UNL     1     -10.357  15.237  70.436  1.00  0.00    -0.228 OA 
HETATM   34  O   UNL     1     -11.483  16.137  68.374  1.00  0.00    -0.369 OA 
BRANCH  32  35
HETATM   35  N   UNL     1     -12.844  15.376  70.397  1.00  0.00    -0.631 N  
HETATM   36  C   UNL     1     -14.407  15.603  72.259  1.00  0.00    -0.480 C  
HETATM   37  C   UNL     1     -12.485  14.057  72.483  1.00  0.00    -0.120 C  
HETATM   38  C   UNL     1     -12.122  16.557  72.463  1.00  0.00    -0.377 C  
HETATM   39  C   UNL     1     -12.924  15.395  71.879  1.00  0.00    -0.414 C  
HETATM   40  H   UNL     1     -13.721  15.476  69.887  1.00  0.00     0.000 HD 
ENDBRANCH  32  35
ENDBRANCH  31  32
ENDBRANCH  24  26
ENDBRANCH   6  24
TORSDOF 10
ENDMDL
MODEL      221
REMARK 921   NORMALIZED FREE ENERGY PREDICTED BY IDOCK:   -4.50 KCAL/MOL
REMARK 922        TOTAL FREE ENERGY PREDICTED BY IDOCK:   -8.48 KCAL/MOL
REMARK 923 INTER-LIGAND FREE ENERGY PREDICTED BY IDOCK:   -7.46 KCAL/MOL
REMARK 924 INTRA-LIGAND FREE ENERGY PREDICTED BY IDOCK:   -1.02 KCAL/MOL
REMARK 927      BINDING AFFINITY PREDICTED BY RF-SCORE:    0.00 PKD
ROOT
HETATM    1  C   UNL     1      -7.879   7.497  62.601  1.00  0.00    -0.133 C  
HETATM    2  C   UNL     1      -7.578   8.312  63.818  1.00  0.00    -0.134 A  
HETATM    3  C   UNL     1      -6.725   9.395  63.701  1.00  0.00    -0.095 A  
HETATM    4  N   UNL     1      -6.380  10.200  64.714  1.00  0.00    -0.127 NA 
HETATM    5  C   UNL     1      -6.884   9.890  65.910  1.00  0.00    -0.101 A  
HETATM    6  C   UNL     1      -8.118   8.093  65.084  1.00  0.00    -0.139 A  
HETATM    7  N   UNL     1      -7.745   8.873  66.114  1.00  0.00    -0.097 NA 
ENDROOT
BRANCH   5   8
HETATM    8  N   UNL     1      -6.448  10.704  66.958  1.00  0.00    -0.074 NA 
HETATM    9  H   UNL     1      -5.597  10.391  67.425  1.00  0.00     0.000 HD 
BRANCH   8  10
HETATM   10  C   UNL     1      -7.007  11.887  67.461  1.00  0.00    -0.123 A  
HETATM   11  C   UNL     1      -8.357  11.976  67.774  1.00  0.00    -0.156 A  
HETATM   12  C   UNL     1      -6.803  14.276  67.930  1.00  0.00    -0.174 A  
HETATM   13  C   UNL     1      -8.170  14.359  68.182  1.00  0.00    -0.149 A  
HETATM   14  C   UNL     1      -8.936  13.188  68.133  1.00  0.00    -0.195 A  
HETATM   15  C   UNL     1      -6.225  13.047  67.569  1.00  0.00    -0.143 A  
BRANCH  13  16
HETATM   16  O   UNL     1      -8.697  15.605  68.444  1.00  0.00    -0.169 OA 
BRANCH  16  17
HETATM   17  C   UNL     1     -10.088  15.676  68.124  1.00  0.00    -0.222 C  
BRANCH  17  18
HETATM   18  C   UNL     1     -10.402  16.387  66.807  1.00  0.00    -0.293 C  
BRANCH  18  19
HETATM   19  N   UNL     1     -10.010  17.801  66.920  1.00  0.00    -0.317 NA 
HETATM   20  C   UNL     1     -10.311  18.404  68.224  1.00  0.00    -0.355 C  
HETATM   21  C   UNL     1     -10.633  18.656  65.918  1.00  0.00    -0.321 C  
HETATM   22  C   UNL     1     -10.436  19.897  67.957  1.00  0.00    -0.490 C  
HETATM   23  C   UNL     1     -10.295  20.038  66.450  1.00  0.00    -0.573 C  
ENDBRANCH  18  19
ENDBRANCH  17  18
ENDBRANCH  16  17
ENDBRANCH  13  16
ENDBRANCH   8  10
ENDBRANCH   5   8
BRANCH   6  24
HETATM   24  N   UNL     1      -8.976   6.980  65.290  1.00  0.00    -0.355 NA 
HETATM   25  H   UNL     1      -9.721   6.908  64.596  1.00  0.00     0.000 HD 
BRANCH  24  26
HETATM   26  C   UNL     1      -9.010   5.949  66.261  1.00  0.00    -0.148 A  
HETATM   27  C   UNL     1      -8.768   4.598  65.996  1.00  0.00    -0.116 A  
HETATM   28  C   UNL     1      -9.471   6.270  67.551  1.00  0.00    -0.115 A  
HETATM   29  C   UNL     1      -8.983   3.602  66.965  1.00  0.00    -0.159 A  
HETATM   30  C   UNL     1      -9.501   3.932  68.216  1.00  0.00    -0.212 A  
HETATM   31  C   UNL     1      -9.768   5.270  68.496  1.00  0.00    -0.143 A  
BRANCH  31  32
HETATM   32  S   UNL     1     -10.446   5.716  70.075  1.00  0.00    -0.311 S  
HETATM   33  O   UNL     1     -11.762   6.270  69.831  1.00  0.00    -0.408 OA 
HETATM   34  O   UNL     1     -10.271   4.598  70.975  1.00  0.00    -0.202 OA 
BRANCH  32  35
HETATM   35  N   UNL     1      -9.514   7.009  70.608  1.00  0.00    -0.166 N  
HETATM   36  C   UNL     1      -7.927   8.399  71.838  1.00  0.00    -0.180 C  
HETATM   37  C   UNL     1      -9.300   6.754  73.080  1.00  0.00    -0.153 C  
HETATM   38  C   UNL     1      -7.453   5.978  71.541  1.00  0.00    -0.094 C  
HETATM   39  C   UNL     1      -8.571   6.997  71.754  1.00  0.00    -0.114 C  
HETATM   40  H   UNL     1      -9.605   7.886  70.095  1.00  0.00     0.000 HD 
ENDBRANCH  32  35
ENDBRANCH  31  32
ENDBRANCH  24  26
ENDBRANCH   6  24
TORSDOF 10
ENDMDL
MODEL      222
REMARK 921   NORMALIZED FREE ENERGY PREDICTED BY IDOCK:   -4.48 KCAL/MOL
REMARK 922        TOTAL FREE ENERGY PREDICTED BY IDOCK:   -8.45 KCAL/MOL
REMARK 923 INTER-LIGAND FREE ENERGY PREDICTED BY IDOCK:   -6.97 KCAL/MOL
REMARK 924 INTRA-LIGAND FREE ENERGY PREDICTED BY IDOCK:   -1.48 KCAL/MOL
REMARK 927      BINDING AFFINITY PREDICTED BY RF-SCORE:    0.00 PKD
ROOT
HETATM    1  C   UNL     1      -5.277  12.584  73.887  1.00  0.00     0.407 C  
HETATM    2  C   UNL     1      -5.272  13.468  72.681  1.00  0.00    -0.080 A  
HETATM    3  C   UNL     1      -5.152  14.835  72.858  1.00  0.00    -0.163 A  
HETATM    4  N   UNL     1      -5.133  15.728  71.860  1.00  0.00    -0.176 NA 
HETATM    5  C   UNL     1      -5.273  15.237  70.628  1.00  0.00    -0.138 A  
HETATM    6  C   UNL     1      -5.344  13.025  71.362  1.00  0.00    -0.147 A  
HETATM    7  N   UNL     1      -5.366  13.920  70.357  1.00  0.00    -0.105 NA 
ENDROOT
BRANCH   5   8
HETATM    8  N   UNL     1      -5.322  16.199  69.617  1.00  0.00    -0.122 NA 
HETATM    9  H   UNL     1      -4.482  16.769  69.518  1.00  0.00     0.000 HD 
BRANCH   8  10
HETATM   10  C   UNL     1      -6.355  16.496  68.717  1.00  0.00    -0.145 A  
HETATM   11  C   UNL     1      -7.244  17.538  68.950  1.00  0.00    -0.249 A  
HETATM   12  C   UNL     1      -7.694  15.872  66.770  1.00  0.00    -0.245 A  
HETATM   13  C   UNL     1      -8.606  16.885  67.053  1.00  0.00    -0.205 A  
HETATM   14  C   UNL     1      -8.352  17.738  68.134  1.00  0.00    -0.264 A  
HETATM   15  C   UNL     1      -6.575  15.677  67.599  1.00  0.00    -0.198 A  
BRANCH  13  16
HETATM   16  O   UNL     1      -9.730  16.972  66.261  1.00  0.00    -0.272 OA 
BRANCH  16  17
HETATM   17  C   UNL     1     -10.929  16.748  67.005  1.00  0.00     0.043 C  
BRANCH  17  18
HETATM   18  C   UNL     1     -11.176  15.288  67.387  1.00  0.00    -0.311 C  
BRANCH  18  19
HETATM   19  N   UNL     1     -11.769  15.238  68.733  1.00  0.00    -0.355 NA 
HETATM   20  C   UNL     1     -11.117  16.121  69.708  1.00  0.00    -0.350 C  
HETATM   21  C   UNL     1     -11.764  13.904  69.318  1.00  0.00    -0.334 C  
HETATM   22  C   UNL     1     -11.408  15.501  71.067  1.00  0.00    -0.421 C  
HETATM   23  C   UNL     1     -12.142  14.206  70.759  1.00  0.00    -0.419 C  
ENDBRANCH  18  19
ENDBRANCH  17  18
ENDBRANCH  16  17
ENDBRANCH  13  16
ENDBRANCH   8  10
ENDBRANCH   5   8
BRANCH   6  24
HETATM   24  N   UNL     1      -5.501  11.638  71.102  1.00  0.00    -0.335 NA 
HETATM   25  H   UNL     1      -5.079  11.042  71.814  1.00  0.00     0.000 HD 
BRANCH  24  26
HETATM   26  C   UNL     1      -6.124  10.912  70.057  1.00  0.00    -0.121 A  
HETATM   27  C   UNL     1      -5.689  10.896  68.729  1.00  0.00    -0.040 A  
HETATM   28  C   UNL     1      -7.355  10.286  70.329  1.00  0.00    -0.032 A  
HETATM   29  C   UNL     1      -6.445  10.295  67.707  1.00  0.00    -0.062 A  
HETATM   30  C   UNL     1      -7.692   9.737  67.985  1.00  0.00    -0.083 A  
HETATM   31  C   UNL     1      -8.155   9.758  69.299  1.00  0.00    -0.115 A  
BRANCH  31  32
HETATM   32  S   UNL     1      -9.748   9.071  69.677  1.00  0.00    -0.179 S  
HETATM   33  O   UNL     1     -10.247   9.773  70.841  1.00  0.00    -0.271 OA 
HETATM   34  O   UNL     1     -10.521   9.023  68.455  1.00  0.00    -0.211 OA 
BRANCH  32  35
HETATM   35  N   UNL     1      -9.441   7.505  70.203  1.00  0.00    -0.161 N  
HETATM   36  C   UNL     1      -9.702   5.191  70.940  1.00  0.00    -0.252 C  
HETATM   37  C   UNL     1     -11.308   6.898  71.741  1.00  0.00    -0.295 C  
HETATM   38  C   UNL     1     -11.333   6.148  69.329  1.00  0.00    -0.361 C  
HETATM   39  C   UNL     1     -10.458   6.477  70.538  1.00  0.00    -0.207 C  
HETATM   40  H   UNL     1      -8.463   7.234  70.301  1.00  0.00     0.000 HD 
ENDBRANCH  32  35
ENDBRANCH  31  32
ENDBRANCH  24  26
ENDBRANCH   6  24
TORSDOF 10
ENDMDL
MODEL      223
REMARK 921   NORMALIZED FREE ENERGY PREDICTED BY IDOCK:   -4.48 KCAL/MOL
REMARK 922        TOTAL FREE ENERGY PREDICTED BY IDOCK:   -8.44 KCAL/MOL
REMARK 923 INTER-LIGAND FREE ENERGY PREDICTED BY IDOCK:   -8.13 KCAL/MOL
REMARK 924 INTRA-LIGAND FREE ENERGY PREDICTED BY IDOCK:   -0.31 KCAL/MOL
REMARK 927      BINDING AFFINITY PREDICTED BY RF-SCORE:    0.00 PKD
ROOT
HETATM    1  C   UNL     1      -5.898   4.343  65.492  1.00  0.00    -0.022 C  
HETATM    2  C   UNL     1      -6.643   5.540  64.994  1.00  0.00    -0.040 A  
HETATM    3  C   UNL     1      -6.424   5.968  63.696  1.00  0.00    -0.029 A  
HETATM    4  N   UNL     1      -7.030   7.022  63.135  1.00  0.00    -0.055 NA 
HETATM    5  C   UNL     1      -7.869   7.704  63.916  1.00  0.00    -0.122 A  
HETATM    6  C   UNL     1      -7.585   6.261  65.725  1.00  0.00    -0.084 A  
HETATM    7  N   UNL     1      -8.167   7.345  65.181  1.00  0.00    -0.131 NA 
ENDROOT
BRANCH   5   8
HETATM    8  N   UNL     1      -8.428   8.839  63.325  1.00  0.00    -0.349 NA 
HETATM    9  H   UNL     1      -8.189   8.980  62.344  1.00  0.00     0.000 HD 
BRANCH   8  10
HETATM   10  C   UNL     1      -9.269   9.812  63.882  1.00  0.00    -0.198 A  
HETATM   11  C   UNL     1      -9.738  10.883  63.131  1.00  0.00    -0.396 A  
HETATM   12  C   UNL     1     -10.297  10.825  65.854  1.00  0.00    -0.302 A  
HETATM   13  C   UNL     1     -10.708  11.919  65.096  1.00  0.00    -0.291 A  
HETATM   14  C   UNL     1     -10.450  11.921  63.721  1.00  0.00    -0.468 A  
HETATM   15  C   UNL     1      -9.579   9.779  65.250  1.00  0.00    -0.368 A  
BRANCH  13  16
HETATM   16  O   UNL     1     -11.329  12.957  65.758  1.00  0.00    -0.297 OA 
BRANCH  16  17
HETATM   17  C   UNL     1     -10.433  13.649  66.630  1.00  0.00    -0.272 C  
BRANCH  17  18
HETATM   18  C   UNL     1     -11.116  14.571  67.640  1.00  0.00    -0.304 C  
BRANCH  18  19
HETATM   19  N   UNL     1     -11.863  13.752  68.608  1.00  0.00    -0.357 NA 
HETATM   20  C   UNL     1     -12.191  14.450  69.858  1.00  0.00    -0.340 C  
HETATM   21  C   UNL     1     -11.169  12.529  68.990  1.00  0.00    -0.268 C  
HETATM   22  C   UNL     1     -12.360  13.353  70.899  1.00  0.00    -0.436 C  
HETATM   23  C   UNL     1     -12.004  12.065  70.172  1.00  0.00    -0.401 C  
ENDBRANCH  18  19
ENDBRANCH  17  18
ENDBRANCH  16  17
ENDBRANCH  13  16
ENDBRANCH   8  10
ENDBRANCH   5   8
BRANCH   6  24
HETATM   24  N   UNL     1      -7.839   5.902  67.075  1.00  0.00    -0.101 NA 
HETATM   25  H   UNL     1      -7.005   5.596  67.577  1.00  0.00     0.000 HD 
BRANCH  24  26
HETATM   26  C   UNL     1      -9.013   5.881  67.869  1.00  0.00    -0.111 A  
HETATM   27  C   UNL     1     -10.180   6.595  67.583  1.00  0.00    -0.220 A  
HETATM   28  C   UNL     1      -8.959   5.225  69.113  1.00  0.00    -0.124 A  
HETATM   29  C   UNL     1     -11.248   6.667  68.495  1.00  0.00    -0.227 A  
HETATM   30  C   UNL     1     -11.150   6.066  69.748  1.00  0.00    -0.476 A  
HETATM   31  C   UNL     1      -9.988   5.363  70.062  1.00  0.00    -0.233 A  
BRANCH  31  32
HETATM   32  S   UNL     1      -9.829   4.603  71.659  1.00  0.00    -0.194 S  
HETATM   33  O   UNL     1     -10.737   5.295  72.550  1.00  0.00    -0.217 OA 
HETATM   34  O   UNL     1      -9.912   3.170  71.487  1.00  0.00    -0.160 OA 
BRANCH  32  35
HETATM   35  N   UNL     1      -8.289   5.011  72.192  1.00  0.00    -0.122 N  
HETATM   36  C   UNL     1      -6.410   6.121  73.289  1.00  0.00    -0.064 C  
HETATM   37  C   UNL     1      -8.217   7.501  72.306  1.00  0.00    -0.120 C  
HETATM   38  C   UNL     1      -8.639   6.130  74.385  1.00  0.00    -0.124 C  
HETATM   39  C   UNL     1      -7.932   6.182  73.032  1.00  0.00    -0.108 C  
HETATM   40  H   UNL     1      -7.525   4.395  71.913  1.00  0.00     0.000 HD 
ENDBRANCH  32  35
ENDBRANCH  31  32
ENDBRANCH  24  26
ENDBRANCH   6  24
TORSDOF 10
ENDMDL
MODEL      224
REMARK 921   NORMALIZED FREE ENERGY PREDICTED BY IDOCK:   -4.46 KCAL/MOL
REMARK 922        TOTAL FREE ENERGY PREDICTED BY IDOCK:   -8.42 KCAL/MOL
REMARK 923 INTER-LIGAND FREE ENERGY PREDICTED BY IDOCK:   -7.41 KCAL/MOL
REMARK 924 INTRA-LIGAND FREE ENERGY PREDICTED BY IDOCK:   -1.00 KCAL/MOL
REMARK 927      BINDING AFFINITY PREDICTED BY RF-SCORE:    0.00 PKD
ROOT
HETATM    1  C   UNL     1     -10.125  11.785  63.488  1.00  0.00    -0.463 C  
HETATM    2  C   UNL     1     -10.437  11.658  64.945  1.00  0.00    -0.339 A  
HETATM    3  C   UNL     1     -11.726  11.918  65.375  1.00  0.00    -0.162 A  
HETATM    4  N   UNL     1     -12.129  11.837  66.650  1.00  0.00    -0.353 NA 
HETATM    5  C   UNL     1     -11.194  11.513  67.543  1.00  0.00    -0.298 A  
HETATM    6  C   UNL     1      -9.533  11.257  65.927  1.00  0.00    -0.222 A  
HETATM    7  N   UNL     1      -9.922  11.212  67.214  1.00  0.00    -0.182 NA 
ENDROOT
BRANCH   5   8
HETATM    8  N   UNL     1     -11.629  11.508  68.871  1.00  0.00    -0.290 NA 
HETATM    9  H   UNL     1     -12.172  12.324  69.153  1.00  0.00     0.000 HD 
BRANCH   8  10
HETATM   10  C   UNL     1     -11.430  10.547  69.871  1.00  0.00    -0.310 A  
HETATM   11  C   UNL     1     -10.165  10.050  70.160  1.00  0.00    -0.297 A  
HETATM   12  C   UNL     1     -12.359   8.923  71.443  1.00  0.00    -0.368 A  
HETATM   13  C   UNL     1     -11.090   8.398  71.674  1.00  0.00    -0.278 A  
HETATM   14  C   UNL     1      -9.989   8.995  71.048  1.00  0.00    -0.349 A  
HETATM   15  C   UNL     1     -12.528   9.990  70.545  1.00  0.00    -0.254 A  
BRANCH  13  16
HETATM   16  O   UNL     1     -10.994   7.295  72.495  1.00  0.00    -0.246 OA 
BRANCH  16  17
HETATM   17  C   UNL     1     -10.025   7.478  73.529  1.00  0.00    -0.315 C  
BRANCH  17  18
HETATM   18  C   UNL     1      -9.263   6.210  73.916  1.00  0.00    -0.131 C  
BRANCH  18  19
HETATM   19  N   UNL     1      -9.957   5.042  73.351  1.00  0.00    -0.153 NA 
HETATM   20  C   UNL     1     -10.695   4.246  74.341  1.00  0.00    -0.155 C  
HETATM   21  C   UNL     1      -9.067   4.117  72.661  1.00  0.00    -0.109 C  
HETATM   22  C   UNL     1     -10.786   2.849  73.745  1.00  0.00    -0.305 C  
HETATM   23  C   UNL     1      -9.977   2.918  72.459  1.00  0.00    -0.229 C  
ENDBRANCH  18  19
ENDBRANCH  17  18
ENDBRANCH  16  17
ENDBRANCH  13  16
ENDBRANCH   8  10
ENDBRANCH   5   8
BRANCH   6  24
HETATM   24  N   UNL     1      -8.184  11.003  65.567  1.00  0.00    -0.351 NA 
HETATM   25  H   UNL     1      -7.512  11.566  66.089  1.00  0.00     0.000 HD 
BRANCH  24  26
HETATM   26  C   UNL     1      -7.578  10.128  64.631  1.00  0.00    -0.135 A  
HETATM   27  C   UNL     1      -6.970  10.533  63.440  1.00  0.00     0.051 A  
HETATM   28  C   UNL     1      -7.731   8.742  64.826  1.00  0.00    -0.113 A  
HETATM   29  C   UNL     1      -6.539   9.607  62.474  1.00  0.00    -0.098 A  
HETATM   30  C   UNL     1      -6.757   8.243  62.655  1.00  0.00    -0.087 A  
HETATM   31  C   UNL     1      -7.379   7.816  63.827  1.00  0.00    -0.096 A  
BRANCH  31  32
HETATM   32  S   UNL     1      -7.685   6.085  64.075  1.00  0.00    -0.109 S  
HETATM   33  O   UNL     1      -8.545   5.647  62.995  1.00  0.00    -0.066 OA 
HETATM   34  O   UNL     1      -6.419   5.432  64.323  1.00  0.00    -0.038 OA 
BRANCH  32  35
HETATM   35  N   UNL     1      -8.635   5.998  65.459  1.00  0.00    -0.167 N  
HETATM   36  C   UNL     1      -9.458   5.504  67.705  1.00  0.00    -0.125 C  
HETATM   37  C   UNL     1      -8.203   3.760  66.472  1.00  0.00    -0.100 C  
HETATM   38  C   UNL     1      -7.020   5.816  67.341  1.00  0.00    -0.065 C  
HETATM   39  C   UNL     1      -8.300   5.271  66.709  1.00  0.00    -0.108 C  
HETATM   40  H   UNL     1      -9.527   6.492  65.439  1.00  0.00     0.000 HD 
ENDBRANCH  32  35
ENDBRANCH  31  32
ENDBRANCH  24  26
ENDBRANCH   6  24
TORSDOF 10
ENDMDL
MODEL      225
REMARK 921   NORMALIZED FREE ENERGY PREDICTED BY IDOCK:   -4.46 KCAL/MOL
REMARK 922        TOTAL FREE ENERGY PREDICTED BY IDOCK:   -8.41 KCAL/MOL
REMARK 923 INTER-LIGAND FREE ENERGY PREDICTED BY IDOCK:   -7.09 KCAL/MOL
REMARK 924 INTRA-LIGAND FREE ENERGY PREDICTED BY IDOCK:   -1.32 KCAL/MOL
REMARK 927      BINDING AFFINITY PREDICTED BY RF-SCORE:    0.00 PKD
ROOT
HETATM    1  C   UNL     1      -5.506   3.296  69.649  1.00  0.00    -0.016 C  
HETATM    2  C   UNL     1      -5.719   4.517  68.812  1.00  0.00    -0.017 A  
HETATM    3  C   UNL     1      -5.142   4.572  67.556  1.00  0.00    -0.007 A  
HETATM    4  N   UNL     1      -5.261   5.607  66.713  1.00  0.00    -0.005 NA 
HETATM    5  C   UNL     1      -5.961   6.651  67.158  1.00  0.00    -0.021 A  
HETATM    6  C   UNL     1      -6.493   5.617  69.179  1.00  0.00    -0.042 A  
HETATM    7  N   UNL     1      -6.583   6.675  68.354  1.00  0.00    -0.056 NA 
ENDROOT
BRANCH   5   8
HETATM    8  N   UNL     1      -6.005   7.741  66.287  1.00  0.00    -0.037 NA 
HETATM    9  H   UNL     1      -5.097   8.115  66.013  1.00  0.00     0.000 HD 
BRANCH   8  10
HETATM   10  C   UNL     1      -7.113   8.396  65.732  1.00  0.00    -0.071 A  
HETATM   11  C   UNL     1      -6.965   9.391  64.774  1.00  0.00    -0.098 A  
HETATM   12  C   UNL     1      -9.509   8.876  65.770  1.00  0.00    -0.272 A  
HETATM   13  C   UNL     1      -9.332   9.909  64.854  1.00  0.00    -0.268 A  
HETATM   14  C   UNL     1      -8.052  10.138  64.335  1.00  0.00    -0.163 A  
HETATM   15  C   UNL     1      -8.405   8.125  66.209  1.00  0.00    -0.119 A  
BRANCH  13  16
HETATM   16  O   UNL     1     -10.434  10.670  64.528  1.00  0.00    -0.345 OA 
BRANCH  16  17
HETATM   17  C   UNL     1     -10.077  11.842  63.791  1.00  0.00    -0.391 C  
BRANCH  17  18
HETATM   18  C   UNL     1     -11.266  12.639  63.252  1.00  0.00    -0.194 C  
BRANCH  18  19
HETATM   19  N   UNL     1     -11.593  13.714  64.202  1.00  0.00    -0.375 NA 
HETATM   20  C   UNL     1     -10.421  14.324  64.844  1.00  0.00    -0.430 C  
HETATM   21  C   UNL     1     -12.476  13.288  65.279  1.00  0.00    -0.489 C  
HETATM   22  C   UNL     1     -10.936  14.899  66.155  1.00  0.00    -0.334 C  
HETATM   23  C   UNL     1     -12.394  14.475  66.223  1.00  0.00    -0.211 C  
ENDBRANCH  18  19
ENDBRANCH  17  18
ENDBRANCH  16  17
ENDBRANCH  13  16
ENDBRANCH   8  10
ENDBRANCH   5   8
BRANCH   6  24
HETATM   24  N   UNL     1      -7.089   5.647  70.467  1.00  0.00    -0.064 NA 
HETATM   25  H   UNL     1      -7.113   4.735  70.925  1.00  0.00     0.000 HD 
BRANCH  24  26
HETATM   26  C   UNL     1      -7.659   6.683  71.248  1.00  0.00    -0.093 A  
HETATM   27  C   UNL     1      -7.379   6.908  72.599  1.00  0.00    -0.082 A  
HETATM   28  C   UNL     1      -8.695   7.447  70.679  1.00  0.00    -0.142 A  
HETATM   29  C   UNL     1      -8.102   7.843  73.361  1.00  0.00    -0.228 A  
HETATM   30  C   UNL     1      -9.166   8.543  72.797  1.00  0.00    -0.230 A  
HETATM   31  C   UNL     1      -9.475   8.323  71.456  1.00  0.00    -0.186 A  
BRANCH  31  32
HETATM   32  S   UNL     1     -10.838   9.188  70.718  1.00  0.00    -0.294 S  
HETATM   33  O   UNL     1     -11.327   8.363  69.632  1.00  0.00     0.009 OA 
HETATM   34  O   UNL     1     -11.726   9.620  71.775  1.00  0.00    -0.388 OA 
BRANCH  32  35
HETATM   35  N   UNL     1     -10.159  10.536  69.978  1.00  0.00    -0.416 N  
HETATM   36  C   UNL     1      -9.839  12.584  68.688  1.00  0.00    -0.083 C  
HETATM   37  C   UNL     1     -11.366  10.839  67.817  1.00  0.00    -0.354 C  
HETATM   38  C   UNL     1     -12.001  12.200  69.849  1.00  0.00    -0.380 C  
HETATM   39  C   UNL     1     -10.863  11.505  69.103  1.00  0.00    -0.195 C  
HETATM   40  H   UNL     1      -9.167  10.704  70.147  1.00  0.00     0.000 HD 
ENDBRANCH  32  35
ENDBRANCH  31  32
ENDBRANCH  24  26
ENDBRANCH   6  24
TORSDOF 10
ENDMDL
MODEL      226
REMARK 921   NORMALIZED FREE ENERGY PREDICTED BY IDOCK:   -4.36 KCAL/MOL
REMARK 922        TOTAL FREE ENERGY PREDICTED BY IDOCK:   -8.25 KCAL/MOL
REMARK 923 INTER-LIGAND FREE ENERGY PREDICTED BY IDOCK:   -6.09 KCAL/MOL
REMARK 924 INTRA-LIGAND FREE ENERGY PREDICTED BY IDOCK:   -2.16 KCAL/MOL
REMARK 927      BINDING AFFINITY PREDICTED BY RF-SCORE:    0.00 PKD
ROOT
HETATM    1  C   UNL     1      -8.793   4.850  63.097  1.00  0.00    -0.081 C  
HETATM    2  C   UNL     1      -8.529   4.487  64.523  1.00  0.00    -0.128 A  
HETATM    3  C   UNL     1      -9.376   3.591  65.151  1.00  0.00    -0.156 A  
HETATM    4  N   UNL     1      -9.243   3.187  66.421  1.00  0.00    -0.153 NA 
HETATM    5  C   UNL     1      -8.237   3.728  67.109  1.00  0.00    -0.095 A  
HETATM    6  C   UNL     1      -7.460   4.956  65.285  1.00  0.00    -0.077 A  
HETATM    7  N   UNL     1      -7.345   4.585  66.573  1.00  0.00    -0.080 NA 
ENDROOT
BRANCH   5   8
HETATM    8  N   UNL     1      -8.170   3.343  68.450  1.00  0.00    -0.072 NA 
HETATM    9  H   UNL     1      -7.861   2.384  68.611  1.00  0.00     0.000 HD 
BRANCH   8  10
HETATM   10  C   UNL     1      -8.464   4.078  69.605  1.00  0.00    -0.060 A  
HETATM   11  C   UNL     1      -7.556   4.983  70.142  1.00  0.00    -0.060 A  
HETATM   12  C   UNL     1      -9.899   4.464  71.546  1.00  0.00    -0.259 A  
HETATM   13  C   UNL     1      -8.950   5.322  72.096  1.00  0.00    -0.129 A  
HETATM   14  C   UNL     1      -7.790   5.601  71.364  1.00  0.00    -0.111 A  
HETATM   15  C   UNL     1      -9.656   3.844  70.308  1.00  0.00    -0.271 A  
BRANCH  13  16
HETATM   16  O   UNL     1      -9.201   5.830  73.352  1.00  0.00    -0.133 OA 
BRANCH  16  17
HETATM   17  C   UNL     1     -10.518   6.375  73.457  1.00  0.00    -0.282 C  
BRANCH  17  18
HETATM   18  C   UNL     1     -10.651   7.814  72.957  1.00  0.00    -0.379 C  
BRANCH  18  19
HETATM   19  N   UNL     1     -11.810   7.903  72.055  1.00  0.00    -0.301 NA 
HETATM   20  C   UNL     1     -12.628   9.108  72.246  1.00  0.00    -0.355 C  
HETATM   21  C   UNL     1     -12.717   6.768  72.163  1.00  0.00    -0.093 C  
HETATM   22  C   UNL     1     -14.014   8.737  71.736  1.00  0.00    -0.475 C  
HETATM   23  C   UNL     1     -13.916   7.264  71.372  1.00  0.00    -0.429 C  
ENDBRANCH  18  19
ENDBRANCH  17  18
ENDBRANCH  16  17
ENDBRANCH  13  16
ENDBRANCH   8  10
ENDBRANCH   5   8
BRANCH   6  24
HETATM   24  N   UNL     1      -6.567   5.904  64.720  1.00  0.00    -0.041 NA 
HETATM   25  H   UNL     1      -5.666   5.505  64.457  1.00  0.00     0.000 HD 
BRANCH  24  26
HETATM   26  C   UNL     1      -6.671   7.290  64.445  1.00  0.00    -0.043 A  
HETATM   27  C   UNL     1      -6.070   7.934  63.359  1.00  0.00    -0.063 A  
HETATM   28  C   UNL     1      -7.288   8.111  65.407  1.00  0.00    -0.069 A  
HETATM   29  C   UNL     1      -6.069   9.334  63.234  1.00  0.00    -0.090 A  
HETATM   30  C   UNL     1      -6.628  10.133  64.230  1.00  0.00    -0.114 A  
HETATM   31  C   UNL     1      -7.217   9.514  65.331  1.00  0.00    -0.095 A  
BRANCH  31  32
HETATM   32  S   UNL     1      -7.920  10.509  66.622  1.00  0.00    -0.130 S  
HETATM   33  O   UNL     1      -6.840  11.287  67.194  1.00  0.00    -0.095 OA 
HETATM   34  O   UNL     1      -9.102  11.159  66.100  1.00  0.00    -0.189 OA 
BRANCH  32  35
HETATM   35  N   UNL     1      -8.368   9.423  67.824  1.00  0.00    -0.115 N  
HETATM   36  C   UNL     1      -9.665   8.034  69.357  1.00  0.00    -0.170 C  
HETATM   37  C   UNL     1     -10.448  10.330  68.857  1.00  0.00    -0.231 C  
HETATM   38  C   UNL     1     -10.568   8.524  67.095  1.00  0.00    -0.314 C  
HETATM   39  C   UNL     1      -9.754   9.107  68.249  1.00  0.00    -0.154 C  
HETATM   40  H   UNL     1      -7.615   8.933  68.307  1.00  0.00     0.000 HD 
ENDBRANCH  32  35
ENDBRANCH  31  32
ENDBRANCH  24  26
ENDBRANCH   6  24
TORSDOF 10
ENDMDL
MODEL      227
REMARK 921   NORMALIZED FREE ENERGY PREDICTED BY IDOCK:   -4.36 KCAL/MOL
REMARK 922        TOTAL FREE ENERGY PREDICTED BY IDOCK:   -8.25 KCAL/MOL
REMARK 923 INTER-LIGAND FREE ENERGY PREDICTED BY IDOCK:   -6.46 KCAL/MOL
REMARK 924 INTRA-LIGAND FREE ENERGY PREDICTED BY IDOCK:   -1.79 KCAL/MOL
REMARK 927      BINDING AFFINITY PREDICTED BY RF-SCORE:    0.00 PKD
ROOT
HETATM    1  C   UNL     1      -6.114   6.288  70.273  1.00  0.00    -0.030 C  
HETATM    2  C   UNL     1      -6.351   7.764  70.235  1.00  0.00    -0.037 A  
HETATM    3  C   UNL     1      -5.332   8.613  70.631  1.00  0.00    -0.027 A  
HETATM    4  N   UNL     1      -5.421   9.949  70.639  1.00  0.00    -0.050 NA 
HETATM    5  C   UNL     1      -6.594  10.463  70.267  1.00  0.00    -0.141 A  
HETATM    6  C   UNL     1      -7.522   8.378  69.794  1.00  0.00    -0.072 A  
HETATM    7  N   UNL     1      -7.632   9.718  69.838  1.00  0.00    -0.133 NA 
ENDROOT
BRANCH   5   8
HETATM    8  N   UNL     1      -6.679  11.855  70.357  1.00  0.00    -0.380 NA 
HETATM    9  H   UNL     1      -6.498  12.242  71.283  1.00  0.00     0.000 HD 
BRANCH   8  10
HETATM   10  C   UNL     1      -6.974  12.797  69.363  1.00  0.00     0.110 A  
HETATM   11  C   UNL     1      -6.657  14.140  69.517  1.00  0.00    -0.124 A  
HETATM   12  C   UNL     1      -8.124  13.371  67.284  1.00  0.00    -0.147 A  
HETATM   13  C   UNL     1      -7.848  14.720  67.487  1.00  0.00    -0.188 A  
HETATM   14  C   UNL     1      -7.081  15.092  68.597  1.00  0.00    -0.115 A  
HETATM   15  C   UNL     1      -7.691  12.414  68.218  1.00  0.00    -0.140 A  
BRANCH  13  16
HETATM   16  O   UNL     1      -8.374  15.622  66.587  1.00  0.00    -0.253 OA 
BRANCH  16  17
HETATM   17  C   UNL     1      -9.718  15.984  66.913  1.00  0.00    -0.235 C  
BRANCH  17  18
HETATM   18  C   UNL     1     -10.744  15.659  65.828  1.00  0.00    -0.341 C  
BRANCH  18  19
HETATM   19  N   UNL     1     -11.515  14.474  66.237  1.00  0.00    -0.353 NA 
HETATM   20  C   UNL     1     -11.642  14.314  67.691  1.00  0.00    -0.368 C  
HETATM   21  C   UNL     1     -10.966  13.223  65.731  1.00  0.00    -0.270 C  
HETATM   22  C   UNL     1     -11.875  12.826  67.912  1.00  0.00    -0.392 C  
HETATM   23  C   UNL     1     -11.759  12.202  66.530  1.00  0.00    -0.392 C  
ENDBRANCH  18  19
ENDBRANCH  17  18
ENDBRANCH  16  17
ENDBRANCH  13  16
ENDBRANCH   8  10
ENDBRANCH   5   8
BRANCH   6  24
HETATM   24  N   UNL     1      -8.623   7.571  69.403  1.00  0.00    -0.133 NA 
HETATM   25  H   UNL     1      -9.349   7.503  70.116  1.00  0.00     0.000 HD 
BRANCH  24  26
HETATM   26  C   UNL     1      -8.921   6.842  68.225  1.00  0.00    -0.124 A  
HETATM   27  C   UNL     1      -9.537   5.588  68.199  1.00  0.00    -0.144 A  
HETATM   28  C   UNL     1      -8.428   7.332  67.001  1.00  0.00    -0.118 A  
HETATM   29  C   UNL     1      -9.652   4.841  67.013  1.00  0.00    -0.187 A  
HETATM   30  C   UNL     1      -9.100   5.314  65.824  1.00  0.00    -0.161 A  
HETATM   31  C   UNL     1      -8.465   6.554  65.829  1.00  0.00    -0.148 A  
BRANCH  31  32
HETATM   32  S   UNL     1      -7.737   7.171  64.332  1.00  0.00    -0.118 S  
HETATM   33  O   UNL     1      -6.529   7.878  64.707  1.00  0.00    -0.048 OA 
HETATM   34  O   UNL     1      -7.692   6.091  63.372  1.00  0.00    -0.083 OA 
BRANCH  32  35
HETATM   35  N   UNL     1      -8.792   8.359  63.784  1.00  0.00    -0.297 N  
HETATM   36  C   UNL     1      -9.758  10.494  63.097  1.00  0.00    -0.351 C  
HETATM   37  C   UNL     1      -8.243  10.433  65.055  1.00  0.00    -0.152 C  
HETATM   38  C   UNL     1      -7.338  10.075  62.724  1.00  0.00    -0.132 C  
HETATM   39  C   UNL     1      -8.501   9.811  63.679  1.00  0.00    -0.184 C  
HETATM   40  H   UNL     1      -9.721   8.053  63.495  1.00  0.00     0.000 HD 
ENDBRANCH  32  35
ENDBRANCH  31  32
ENDBRANCH  24  26
ENDBRANCH   6  24
TORSDOF 10
ENDMDL
MODEL      228
REMARK 921   NORMALIZED FREE ENERGY PREDICTED BY IDOCK:   -4.26 KCAL/MOL
REMARK 922        TOTAL FREE ENERGY PREDICTED BY IDOCK:   -8.10 KCAL/MOL
REMARK 923 INTER-LIGAND FREE ENERGY PREDICTED BY IDOCK:   -6.81 KCAL/MOL
REMARK 924 INTRA-LIGAND FREE ENERGY PREDICTED BY IDOCK:   -1.29 KCAL/MOL
REMARK 927      BINDING AFFINITY PREDICTED BY RF-SCORE:    0.00 PKD
ROOT
HETATM    1  C   UNL     1     -10.222  16.142  67.945  1.00  0.00    -0.261 C  
HETATM    2  C   UNL     1     -10.262  14.906  67.105  1.00  0.00    -0.245 A  
HETATM    3  C   UNL     1     -11.361  14.687  66.293  1.00  0.00    -0.347 A  
HETATM    4  N   UNL     1     -11.512  13.622  65.496  1.00  0.00    -0.302 NA 
HETATM    5  C   UNL     1     -10.536  12.714  65.535  1.00  0.00    -0.276 A  
HETATM    6  C   UNL     1      -9.252  13.947  67.040  1.00  0.00    -0.250 A  
HETATM    7  N   UNL     1      -9.416  12.856  66.271  1.00  0.00    -0.236 NA 
ENDROOT
BRANCH   5   8
HETATM    8  N   UNL     1     -10.758  11.581  64.748  1.00  0.00    -0.301 NA 
HETATM    9  H   UNL     1     -11.731  11.414  64.492  1.00  0.00     0.000 HD 
BRANCH   8  10
HETATM   10  C   UNL     1      -9.841  10.641  64.259  1.00  0.00    -0.330 A  
HETATM   11  C   UNL     1      -9.612  10.490  62.897  1.00  0.00    -0.355 A  
HETATM   12  C   UNL     1      -8.391   8.713  64.653  1.00  0.00    -0.165 A  
HETATM   13  C   UNL     1      -8.222   8.542  63.282  1.00  0.00    -0.141 A  
HETATM   14  C   UNL     1      -8.814   9.462  62.409  1.00  0.00    -0.257 A  
HETATM   15  C   UNL     1      -9.199   9.756  65.139  1.00  0.00    -0.297 A  
BRANCH  13  16
HETATM   16  O   UNL     1      -7.494   7.450  62.860  1.00  0.00    -0.091 OA 
BRANCH  16  17
HETATM   17  C   UNL     1      -8.140   6.217  63.184  1.00  0.00    -0.060 C  
BRANCH  17  18
HETATM   18  C   UNL     1      -7.264   5.224  63.949  1.00  0.00    -0.050 C  
BRANCH  18  19
HETATM   19  N   UNL     1      -7.449   5.434  65.393  1.00  0.00    -0.076 NA 
HETATM   20  C   UNL     1      -6.628   4.557  66.238  1.00  0.00    -0.045 C  
HETATM   21  C   UNL     1      -8.827   5.257  65.833  1.00  0.00    -0.145 C  
HETATM   22  C   UNL     1      -7.371   4.465  67.563  1.00  0.00    -0.069 C  
HETATM   23  C   UNL     1      -8.662   5.239  67.343  1.00  0.00    -0.106 C  
ENDBRANCH  18  19
ENDBRANCH  17  18
ENDBRANCH  16  17
ENDBRANCH  13  16
ENDBRANCH   8  10
ENDBRANCH   5   8
BRANCH   6  24
HETATM   24  N   UNL     1      -8.108  14.087  67.869  1.00  0.00    -0.141 NA 
HETATM   25  H   UNL     1      -7.717  15.029  67.866  1.00  0.00     0.000 HD 
BRANCH  24  26
HETATM   26  C   UNL     1      -7.398  13.186  68.701  1.00  0.00    -0.102 A  
HETATM   27  C   UNL     1      -6.176  13.467  69.318  1.00  0.00    -0.103 A  
HETATM   28  C   UNL     1      -7.866  11.862  68.793  1.00  0.00    -0.052 A  
HETATM   29  C   UNL     1      -5.439  12.476  69.991  1.00  0.00    -0.115 A  
HETATM   30  C   UNL     1      -5.887  11.157  70.016  1.00  0.00    -0.112 A  
HETATM   31  C   UNL     1      -7.094  10.849  69.391  1.00  0.00    -0.131 A  
BRANCH  31  32
HETATM   32  S   UNL     1      -7.678   9.172  69.392  1.00  0.00    -0.083 S  
HETATM   33  O   UNL     1      -8.457   8.994  68.185  1.00  0.00    -0.127 OA 
HETATM   34  O   UNL     1      -6.559   8.304  69.684  1.00  0.00    -0.036 OA 
BRANCH  32  35
HETATM   35  N   UNL     1      -8.788   9.091  70.652  1.00  0.00    -0.199 N  
HETATM   36  C   UNL     1     -10.849   8.873  71.943  1.00  0.00    -0.433 C  
HETATM   37  C   UNL     1     -10.896  10.118  69.802  1.00  0.00    -0.320 C  
HETATM   38  C   UNL     1     -10.602   7.609  69.818  1.00  0.00    -0.245 C  
HETATM   39  C   UNL     1     -10.257   8.923  70.517  1.00  0.00    -0.204 C  
HETATM   40  H   UNL     1      -8.417   9.163  71.599  1.00  0.00     0.000 HD 
ENDBRANCH  32  35
ENDBRANCH  31  32
ENDBRANCH  24  26
ENDBRANCH   6  24
TORSDOF 10
ENDMDL
MODEL      229
REMARK 921   NORMALIZED FREE ENERGY PREDICTED BY IDOCK:   -4.25 KCAL/MOL
REMARK 922        TOTAL FREE ENERGY PREDICTED BY IDOCK:   -8.08 KCAL/MOL
REMARK 923 INTER-LIGAND FREE ENERGY PREDICTED BY IDOCK:   -7.99 KCAL/MOL
REMARK 924 INTRA-LIGAND FREE ENERGY PREDICTED BY IDOCK:   -0.09 KCAL/MOL
REMARK 927      BINDING AFFINITY PREDICTED BY RF-SCORE:    0.00 PKD
ROOT
HETATM    1  C   UNL     1     -14.033  13.210  72.320  1.00  0.00    -0.490 C  
HETATM    2  C   UNL     1     -13.188  13.865  71.274  1.00  0.00    -0.352 A  
HETATM    3  C   UNL     1     -13.234  15.243  71.148  1.00  0.00    -0.498 A  
HETATM    4  N   UNL     1     -12.525  15.944  70.254  1.00  0.00    -0.273 NA 
HETATM    5  C   UNL     1     -11.758  15.236  69.424  1.00  0.00    -0.341 A  
HETATM    6  C   UNL     1     -12.312  13.201  70.418  1.00  0.00    -0.279 A  
HETATM    7  N   UNL     1     -11.628  13.896  69.492  1.00  0.00    -0.285 NA 
ENDROOT
BRANCH   5   8
HETATM    8  N   UNL     1     -11.089  15.990  68.458  1.00  0.00    -0.329 NA 
HETATM    9  H   UNL     1     -11.648  16.249  67.645  1.00  0.00     0.000 HD 
BRANCH   8  10
HETATM   10  C   UNL     1      -9.763  16.443  68.440  1.00  0.00    -0.229 A  
HETATM   11  C   UNL     1      -8.697  15.565  68.288  1.00  0.00    -0.170 A  
HETATM   12  C   UNL     1      -8.149  18.240  68.808  1.00  0.00    -0.260 A  
HETATM   13  C   UNL     1      -7.096  17.335  68.712  1.00  0.00    -0.238 A  
HETATM   14  C   UNL     1      -7.382  15.996  68.417  1.00  0.00    -0.131 A  
HETATM   15  C   UNL     1      -9.475  17.796  68.675  1.00  0.00    -0.283 A  
BRANCH  13  16
HETATM   16  O   UNL     1      -5.822  17.809  68.940  1.00  0.00    -0.177 OA 
BRANCH  16  17
HETATM   17  C   UNL     1      -5.252  18.399  67.770  1.00  0.00    -0.156 C  
BRANCH  17  18
HETATM   18  C   UNL     1      -5.155  19.925  67.810  1.00  0.00    -0.175 C  
BRANCH  18  19
HETATM   19  N   UNL     1      -6.179  20.494  66.920  1.00  0.00    -0.192 NA 
HETATM   20  C   UNL     1      -7.525  20.541  67.506  1.00  0.00    -0.314 C  
HETATM   21  C   UNL     1      -6.307  19.782  65.655  1.00  0.00    -0.224 C  
HETATM   22  C   UNL     1      -8.479  20.540  66.321  1.00  0.00     0.034 C  
HETATM   23  C   UNL     1      -7.588  20.383  65.100  1.00  0.00     0.299 C  
ENDBRANCH  18  19
ENDBRANCH  17  18
ENDBRANCH  16  17
ENDBRANCH  13  16
ENDBRANCH   8  10
ENDBRANCH   5   8
BRANCH   6  24
HETATM   24  N   UNL     1     -12.235  11.784  70.467  1.00  0.00    -0.365 NA 
HETATM   25  H   UNL     1     -13.029  11.351  70.938  1.00  0.00     0.000 HD 
BRANCH  24  26
HETATM   26  C   UNL     1     -11.282  10.848  69.994  1.00  0.00    -0.263 A  
HETATM   27  C   UNL     1     -11.195  10.397  68.674  1.00  0.00    -0.305 A  
HETATM   28  C   UNL     1     -10.462  10.204  70.939  1.00  0.00     0.164 A  
HETATM   29  C   UNL     1     -10.340   9.344  68.304  1.00  0.00    -0.251 A  
HETATM   30  C   UNL     1      -9.584   8.676  69.265  1.00  0.00    -0.166 A  
HETATM   31  C   UNL     1      -9.668   9.096  70.591  1.00  0.00    -0.256 A  
BRANCH  31  32
HETATM   32  S   UNL     1      -8.730   8.249  71.839  1.00  0.00    -0.188 S  
HETATM   33  O   UNL     1      -7.369   8.735  71.748  1.00  0.00    -0.187 OA 
HETATM   34  O   UNL     1      -9.461   8.326  73.084  1.00  0.00    -0.257 OA 
BRANCH  32  35
HETATM   35  N   UNL     1      -8.663   6.648  71.332  1.00  0.00    -0.129 N  
HETATM   36  C   UNL     1      -9.001   4.237  71.147  1.00  0.00    -0.166 C  
HETATM   37  C   UNL     1      -8.765   5.250  73.394  1.00  0.00    -0.115 C  
HETATM   38  C   UNL     1     -10.841   5.663  72.016  1.00  0.00    -0.300 C  
HETATM   39  C   UNL     1      -9.323   5.492  71.988  1.00  0.00    -0.147 C  
HETATM   40  H   UNL     1      -8.117   6.452  70.493  1.00  0.00     0.000 HD 
ENDBRANCH  32  35
ENDBRANCH  31  32
ENDBRANCH  24  26
ENDBRANCH   6  24
TORSDOF 10
ENDMDL
MODEL      230
REMARK 921   NORMALIZED FREE ENERGY PREDICTED BY IDOCK:   -4.21 KCAL/MOL
REMARK 922        TOTAL FREE ENERGY PREDICTED BY IDOCK:   -8.02 KCAL/MOL
REMARK 923 INTER-LIGAND FREE ENERGY PREDICTED BY IDOCK:   -7.39 KCAL/MOL
REMARK 924 INTRA-LIGAND FREE ENERGY PREDICTED BY IDOCK:   -0.63 KCAL/MOL
REMARK 927      BINDING AFFINITY PREDICTED BY RF-SCORE:    0.00 PKD
ROOT
HETATM    1  C   UNL     1     -12.581  14.545  68.052  1.00  0.00     0.539 C  
HETATM    2  C   UNL     1     -11.455  13.803  67.405  1.00  0.00    -0.372 A  
HETATM    3  C   UNL     1     -11.750  12.829  66.468  1.00  0.00    -0.400 A  
HETATM    4  N   UNL     1     -10.833  12.099  65.820  1.00  0.00    -0.271 NA 
HETATM    5  C   UNL     1      -9.560  12.329  66.147  1.00  0.00    -0.240 A  
HETATM    6  C   UNL     1     -10.101  14.035  67.642  1.00  0.00    -0.241 A  
HETATM    7  N   UNL     1      -9.177  13.278  67.024  1.00  0.00    -0.231 NA 
ENDROOT
BRANCH   5   8
HETATM    8  N   UNL     1      -8.633  11.503  65.508  1.00  0.00    -0.391 NA 
HETATM    9  H   UNL     1      -7.932  11.988  64.949  1.00  0.00     0.000 HD 
BRANCH   8  10
HETATM   10  C   UNL     1      -8.524  10.106  65.522  1.00  0.00    -0.153 A  
HETATM   11  C   UNL     1      -8.031   9.404  64.430  1.00  0.00    -0.131 A  
HETATM   12  C   UNL     1      -9.042   7.967  66.584  1.00  0.00    -0.199 A  
HETATM   13  C   UNL     1      -8.597   7.282  65.456  1.00  0.00    -0.075 A  
HETATM   14  C   UNL     1      -8.060   8.015  64.391  1.00  0.00    -0.123 A  
HETATM   15  C   UNL     1      -9.007   9.371  66.616  1.00  0.00    -0.170 A  
BRANCH  13  16
HETATM   16  O   UNL     1      -8.738   5.911  65.444  1.00  0.00    -0.153 OA 
BRANCH  16  17
HETATM   17  C   UNL     1      -9.843   5.478  66.241  1.00  0.00    -0.145 C  
BRANCH  17  18
HETATM   18  C   UNL     1      -9.549   4.271  67.132  1.00  0.00    -0.194 C  
BRANCH  18  19
HETATM   19  N   UNL     1      -9.459   4.718  68.531  1.00  0.00    -0.137 NA 
HETATM   20  C   UNL     1     -10.469   5.715  68.908  1.00  0.00    -0.240 C  
HETATM   21  C   UNL     1      -8.165   5.293  68.873  1.00  0.00    -0.089 C  
HETATM   22  C   UNL     1      -9.864   6.476  70.078  1.00  0.00    -0.183 C  
HETATM   23  C   UNL     1      -8.460   5.912  70.229  1.00  0.00    -0.127 C  
ENDBRANCH  18  19
ENDBRANCH  17  18
ENDBRANCH  16  17
ENDBRANCH  13  16
ENDBRANCH   8  10
ENDBRANCH   5   8
BRANCH   6  24
HETATM   24  N   UNL     1      -9.721  14.997  68.614  1.00  0.00    -0.212 NA 
HETATM   25  H   UNL     1      -9.470  14.587  69.514  1.00  0.00     0.000 HD 
BRANCH  24  26
HETATM   26  C   UNL     1      -9.619  16.410  68.591  1.00  0.00    -0.240 A  
HETATM   27  C   UNL     1     -10.658  17.278  68.241  1.00  0.00    -0.383 A  
HETATM   28  C   UNL     1      -8.348  16.985  68.778  1.00  0.00    -0.237 A  
HETATM   29  C   UNL     1     -10.447  18.658  68.073  1.00  0.00    -0.395 A  
HETATM   30  C   UNL     1      -9.169  19.199  68.200  1.00  0.00    -0.377 A  
HETATM   31  C   UNL     1      -8.114  18.350  68.529  1.00  0.00    -0.319 A  
BRANCH  31  32
HETATM   32  S   UNL     1      -6.473  19.010  68.678  1.00  0.00    -0.262 S  
HETATM   33  O   UNL     1      -6.589  20.452  68.622  1.00  0.00    -0.300 OA 
HETATM   34  O   UNL     1      -5.825  18.363  69.798  1.00  0.00    -0.235 OA 
BRANCH  32  35
HETATM   35  N   UNL     1      -5.690  18.573  67.257  1.00  0.00    -0.141 N  
HETATM   36  C   UNL     1      -5.131  18.227  64.905  1.00  0.00    -0.135 C  
HETATM   37  C   UNL     1      -7.471  17.899  65.647  1.00  0.00     0.066 C  
HETATM   38  C   UNL     1      -6.468  20.216  65.560  1.00  0.00    -0.282 C  
HETATM   39  C   UNL     1      -6.214  18.743  65.879  1.00  0.00    -0.211 C  
HETATM   40  H   UNL     1      -4.765  18.152  67.350  1.00  0.00     0.000 HD 
ENDBRANCH  32  35
ENDBRANCH  31  32
ENDBRANCH  24  26
ENDBRANCH   6  24
TORSDOF 10
ENDMDL
MODEL      231
REMARK 921   NORMALIZED FREE ENERGY PREDICTED BY IDOCK:   -4.19 KCAL/MOL
REMARK 922        TOTAL FREE ENERGY PREDICTED BY IDOCK:   -7.99 KCAL/MOL
REMARK 923 INTER-LIGAND FREE ENERGY PREDICTED BY IDOCK:   -6.89 KCAL/MOL
REMARK 924 INTRA-LIGAND FREE ENERGY PREDICTED BY IDOCK:   -1.11 KCAL/MOL
REMARK 927      BINDING AFFINITY PREDICTED BY RF-SCORE:    0.00 PKD
ROOT
HETATM    1  C   UNL     1      -6.857   6.575  74.192  1.00  0.00    -0.077 C  
HETATM    2  C   UNL     1      -6.647   7.679  73.205  1.00  0.00    -0.072 A  
HETATM    3  C   UNL     1      -5.796   8.718  73.539  1.00  0.00    -0.100 A  
HETATM    4  N   UNL     1      -5.525   9.759  72.741  1.00  0.00    -0.292 NA 
HETATM    5  C   UNL     1      -6.159   9.783  71.568  1.00  0.00     0.099 A  
HETATM    6  C   UNL     1      -7.217   7.738  71.935  1.00  0.00    -0.069 A  
HETATM    7  N   UNL     1      -6.981   8.802  71.146  1.00  0.00    -0.074 NA 
ENDROOT
BRANCH   5   8
HETATM    8  N   UNL     1      -5.911  10.918  70.792  1.00  0.00    -0.317 NA 
HETATM    9  H   UNL     1      -5.041  11.406  71.001  1.00  0.00     0.000 HD 
BRANCH   8  10
HETATM   10  C   UNL     1      -6.683  11.483  69.768  1.00  0.00    -0.047 A  
HETATM   11  C   UNL     1      -6.407  12.748  69.265  1.00  0.00    -0.108 A  
HETATM   12  C   UNL     1      -8.688  11.432  68.371  1.00  0.00    -0.157 A  
HETATM   13  C   UNL     1      -8.427  12.725  67.923  1.00  0.00    -0.173 A  
HETATM   14  C   UNL     1      -7.258  13.364  68.354  1.00  0.00    -0.110 A  
HETATM   15  C   UNL     1      -7.821  10.816  69.290  1.00  0.00    -0.124 A  
BRANCH  13  16
HETATM   16  O   UNL     1      -9.356  13.313  67.094  1.00  0.00    -0.222 OA 
BRANCH  16  17
HETATM   17  C   UNL     1     -10.204  14.223  67.798  1.00  0.00    -0.235 C  
BRANCH  17  18
HETATM   18  C   UNL     1     -10.720  15.391  66.957  1.00  0.00    -0.321 C  
BRANCH  18  19
HETATM   19  N   UNL     1      -9.853  16.560  67.175  1.00  0.00    -0.249 NA 
HETATM   20  C   UNL     1      -8.738  16.666  66.226  1.00  0.00    -0.324 C  
HETATM   21  C   UNL     1      -9.265  16.603  68.508  1.00  0.00    -0.234 C  
HETATM   22  C   UNL     1      -7.674  17.480  66.946  1.00  0.00    -0.248 C  
HETATM   23  C   UNL     1      -8.230  17.704  68.343  1.00  0.00    -0.289 C  
ENDBRANCH  18  19
ENDBRANCH  17  18
ENDBRANCH  16  17
ENDBRANCH  13  16
ENDBRANCH   8  10
ENDBRANCH   5   8
BRANCH   6  24
HETATM   24  N   UNL     1      -8.127   6.725  71.534  1.00  0.00    -0.109 NA 
HETATM   25  H   UNL     1      -8.026   5.858  72.063  1.00  0.00     0.000 HD 
BRANCH  24  26
HETATM   26  C   UNL     1      -9.145   6.669  70.550  1.00  0.00    -0.152 A  
HETATM   27  C   UNL     1     -10.503   6.478  70.820  1.00  0.00    -0.262 A  
HETATM   28  C   UNL     1      -8.758   6.648  69.198  1.00  0.00    -0.130 A  
HETATM   29  C   UNL     1     -11.441   6.262  69.795  1.00  0.00    -0.449 A  
HETATM   30  C   UNL     1     -11.029   6.180  68.466  1.00  0.00    -0.404 A  
HETATM   31  C   UNL     1      -9.677   6.349  68.174  1.00  0.00    -0.122 A  
BRANCH  31  32
HETATM   32  S   UNL     1      -9.122   6.230  66.492  1.00  0.00    -0.155 S  
HETATM   33  O   UNL     1      -7.677   6.154  66.526  1.00  0.00    -0.099 OA 
HETATM   34  O   UNL     1      -9.901   5.207  65.831  1.00  0.00    -0.164 OA 
BRANCH  32  35
HETATM   35  N   UNL     1      -9.470   7.724  65.804  1.00  0.00    -0.405 N  
HETATM   36  C   UNL     1      -9.308   9.832  64.581  1.00  0.00    -0.318 C  
HETATM   37  C   UNL     1      -7.365   9.057  65.908  1.00  0.00    -0.093 C  
HETATM   38  C   UNL     1      -8.026   7.858  63.785  1.00  0.00    -0.119 C  
HETATM   39  C   UNL     1      -8.529   8.577  65.036  1.00  0.00    -0.164 C  
HETATM   40  H   UNL     1     -10.419   8.079  65.927  1.00  0.00     0.000 HD 
ENDBRANCH  32  35
ENDBRANCH  31  32
ENDBRANCH  24  26
ENDBRANCH   6  24
TORSDOF 10
ENDMDL
MODEL      232
REMARK 921   NORMALIZED FREE ENERGY PREDICTED BY IDOCK:   -4.19 KCAL/MOL
REMARK 922        TOTAL FREE ENERGY PREDICTED BY IDOCK:   -7.99 KCAL/MOL
REMARK 923 INTER-LIGAND FREE ENERGY PREDICTED BY IDOCK:   -6.39 KCAL/MOL
REMARK 924 INTRA-LIGAND FREE ENERGY PREDICTED BY IDOCK:   -1.60 KCAL/MOL
REMARK 927      BINDING AFFINITY PREDICTED BY RF-SCORE:    0.00 PKD
ROOT
HETATM    1  C   UNL     1      -8.775   4.365  62.797  1.00  0.00    -0.113 C  
HETATM    2  C   UNL     1      -8.568   4.177  64.266  1.00  0.00    -0.112 A  
HETATM    3  C   UNL     1      -9.275   3.181  64.916  1.00  0.00    -0.147 A  
HETATM    4  N   UNL     1      -9.176   2.913  66.225  1.00  0.00    -0.130 NA 
HETATM    5  C   UNL     1      -8.355   3.697  66.925  1.00  0.00    -0.103 A  
HETATM    6  C   UNL     1      -7.678   4.908  65.051  1.00  0.00    -0.083 A  
HETATM    7  N   UNL     1      -7.604   4.671  66.373  1.00  0.00    -0.089 NA 
ENDROOT
BRANCH   5   8
HETATM    8  N   UNL     1      -8.329   3.440  68.298  1.00  0.00    -0.080 NA 
HETATM    9  H   UNL     1      -7.917   2.546  68.564  1.00  0.00     0.000 HD 
BRANCH   8  10
HETATM   10  C   UNL     1      -8.784   4.229  69.362  1.00  0.00    -0.087 A  
HETATM   11  C   UNL     1      -8.062   4.342  70.544  1.00  0.00    -0.066 A  
HETATM   12  C   UNL     1     -10.575   5.523  70.407  1.00  0.00    -0.350 A  
HETATM   13  C   UNL     1      -9.862   5.575  71.601  1.00  0.00    -0.173 A  
HETATM   14  C   UNL     1      -8.584   5.005  71.648  1.00  0.00    -0.132 A  
HETATM   15  C   UNL     1     -10.040   4.852  69.294  1.00  0.00    -0.248 A  
BRANCH  13  16
HETATM   16  O   UNL     1     -10.473   6.167  72.685  1.00  0.00    -0.194 OA 
BRANCH  16  17
HETATM   17  C   UNL     1     -11.066   7.422  72.346  1.00  0.00    -0.287 C  
BRANCH  17  18
HETATM   18  C   UNL     1     -10.067   8.513  71.959  1.00  0.00    -0.316 C  
BRANCH  18  19
HETATM   19  N   UNL     1     -10.807   9.710  71.527  1.00  0.00    -0.261 NA 
HETATM   20  C   UNL     1     -12.249   9.655  71.801  1.00  0.00    -0.384 C  
HETATM   21  C   UNL     1     -10.669   9.994  70.105  1.00  0.00    -0.307 C  
HETATM   22  C   UNL     1     -12.886  10.594  70.787  1.00  0.00    -0.439 C  
HETATM   23  C   UNL     1     -11.737  11.057  69.905  1.00  0.00    -0.424 C  
ENDBRANCH  18  19
ENDBRANCH  17  18
ENDBRANCH  16  17
ENDBRANCH  13  16
ENDBRANCH   8  10
ENDBRANCH   5   8
BRANCH   6  24
HETATM   24  N   UNL     1      -6.941   5.968  64.461  1.00  0.00    -0.050 NA 
HETATM   25  H   UNL     1      -5.974   5.721  64.250  1.00  0.00     0.000 HD 
BRANCH  24  26
HETATM   26  C   UNL     1      -7.273   7.299  64.104  1.00  0.00    -0.076 A  
HETATM   27  C   UNL     1      -6.665   8.021  63.073  1.00  0.00    -0.084 A  
HETATM   28  C   UNL     1      -8.161   8.005  64.935  1.00  0.00    -0.137 A  
HETATM   29  C   UNL     1      -6.918   9.391  62.878  1.00  0.00    -0.096 A  
HETATM   30  C   UNL     1      -7.751  10.088  63.751  1.00  0.00    -0.148 A  
HETATM   31  C   UNL     1      -8.353   9.392  64.797  1.00  0.00    -0.154 A  
BRANCH  31  32
HETATM   32  S   UNL     1      -9.404  10.260  65.935  1.00  0.00    -0.194 S  
HETATM   33  O   UNL     1      -9.551  11.610  65.432  1.00  0.00    -0.226 OA 
HETATM   34  O   UNL     1     -10.565   9.438  66.195  1.00  0.00    -0.065 OA 
BRANCH  32  35
HETATM   35  N   UNL     1      -8.502  10.409  67.345  1.00  0.00    -0.122 N  
HETATM   36  C   UNL     1      -7.032  11.251  69.104  1.00  0.00    -0.114 C  
HETATM   37  C   UNL     1      -6.445  11.681  66.737  1.00  0.00    -0.106 C  
HETATM   38  C   UNL     1      -8.414  12.851  67.801  1.00  0.00    -0.185 C  
HETATM   39  C   UNL     1      -7.622  11.548  67.708  1.00  0.00    -0.111 C  
HETATM   40  H   UNL     1      -8.565   9.643  68.016  1.00  0.00     0.000 HD 
ENDBRANCH  32  35
ENDBRANCH  31  32
ENDBRANCH  24  26
ENDBRANCH   6  24
TORSDOF 10
ENDMDL
MODEL      233
REMARK 921   NORMALIZED FREE ENERGY PREDICTED BY IDOCK:   -4.19 KCAL/MOL
REMARK 922        TOTAL FREE ENERGY PREDICTED BY IDOCK:   -7.99 KCAL/MOL
REMARK 923 INTER-LIGAND FREE ENERGY PREDICTED BY IDOCK:   -7.81 KCAL/MOL
REMARK 924 INTRA-LIGAND FREE ENERGY PREDICTED BY IDOCK:   -0.18 KCAL/MOL
REMARK 927      BINDING AFFINITY PREDICTED BY RF-SCORE:    0.00 PKD
ROOT
HETATM    1  C   UNL     1      -6.209   4.642  65.801  1.00  0.00    -0.031 C  
HETATM    2  C   UNL     1      -6.972   5.813  65.269  1.00  0.00    -0.063 A  
HETATM    3  C   UNL     1      -6.867   6.122  63.924  1.00  0.00    -0.038 A  
HETATM    4  N   UNL     1      -7.500   7.141  63.330  1.00  0.00    -0.089 NA 
HETATM    5  C   UNL     1      -8.249   7.910  64.121  1.00  0.00    -0.027 A  
HETATM    6  C   UNL     1      -7.827   6.620  66.017  1.00  0.00    -0.104 A  
HETATM    7  N   UNL     1      -8.435   7.670  65.435  1.00  0.00    -0.127 NA 
ENDROOT
BRANCH   5   8
HETATM    8  N   UNL     1      -8.837   9.007  63.486  1.00  0.00    -0.429 NA 
HETATM    9  H   UNL     1      -8.730   9.030  62.473  1.00  0.00     0.000 HD 
BRANCH   8  10
HETATM   10  C   UNL     1      -9.553  10.078  64.037  1.00  0.00    -0.177 A  
HETATM   11  C   UNL     1     -10.037  11.112  63.245  1.00  0.00    -0.426 A  
HETATM   12  C   UNL     1     -10.299  11.319  66.006  1.00  0.00    -0.302 A  
HETATM   13  C   UNL     1     -10.724  12.372  65.199  1.00  0.00    -0.292 A  
HETATM   14  C   UNL     1     -10.617  12.242  63.809  1.00  0.00    -0.488 A  
HETATM   15  C   UNL     1      -9.715  10.180  65.428  1.00  0.00    -0.355 A  
BRANCH  13  16
HETATM   16  O   UNL     1     -11.206  13.501  65.825  1.00  0.00    -0.297 OA 
BRANCH  16  17
HETATM   17  C   UNL     1     -10.204  14.148  66.612  1.00  0.00    -0.270 C  
BRANCH  17  18
HETATM   18  C   UNL     1     -10.746  15.146  67.635  1.00  0.00    -0.285 C  
BRANCH  18  19
HETATM   19  N   UNL     1      -9.914  16.360  67.609  1.00  0.00    -0.248 NA 
HETATM   20  C   UNL     1     -10.578  17.554  68.148  1.00  0.00    -0.366 C  
HETATM   21  C   UNL     1      -9.449  16.714  66.274  1.00  0.00    -0.293 C  
HETATM   22  C   UNL     1      -9.876  18.733  67.490  1.00  0.00    -0.360 C  
HETATM   23  C   UNL     1      -8.896  18.110  66.509  1.00  0.00    -0.286 C  
ENDBRANCH  18  19
ENDBRANCH  17  18
ENDBRANCH  16  17
ENDBRANCH  13  16
ENDBRANCH   8  10
ENDBRANCH   5   8
BRANCH   6  24
HETATM   24  N   UNL     1      -7.961   6.385  67.411  1.00  0.00    -0.114 NA 
HETATM   25  H   UNL     1      -7.071   6.384  67.909  1.00  0.00     0.000 HD 
BRANCH  24  26
HETATM   26  C   UNL     1      -9.078   6.152  68.252  1.00  0.00    -0.112 A  
HETATM   27  C   UNL     1     -10.280   6.864  68.196  1.00  0.00    -0.203 A  
HETATM   28  C   UNL     1      -8.923   5.252  69.322  1.00  0.00    -0.126 A  
HETATM   29  C   UNL     1     -11.284   6.701  69.165  1.00  0.00    -0.305 A  
HETATM   30  C   UNL     1     -11.087   5.853  70.253  1.00  0.00    -0.368 A  
HETATM   31  C   UNL     1      -9.889   5.147  70.340  1.00  0.00    -0.218 A  
BRANCH  31  32
HETATM   32  S   UNL     1      -9.604   4.074  71.726  1.00  0.00    -0.164 S  
HETATM   33  O   UNL     1     -10.630   4.365  72.706  1.00  0.00    -0.188 OA 
HETATM   34  O   UNL     1      -9.419   2.730  71.227  1.00  0.00    -0.127 OA 
BRANCH  32  35
HETATM   35  N   UNL     1      -8.169   4.613  72.415  1.00  0.00    -0.112 N  
HETATM   36  C   UNL     1      -6.509   5.910  73.650  1.00  0.00    -0.073 C  
HETATM   37  C   UNL     1      -8.246   7.105  72.350  1.00  0.00    -0.113 C  
HETATM   38  C   UNL     1      -8.858   5.853  74.457  1.00  0.00    -0.126 C  
HETATM   39  C   UNL     1      -7.986   5.858  73.202  1.00  0.00    -0.110 C  
HETATM   40  H   UNL     1      -7.344   4.029  72.279  1.00  0.00     0.000 HD 
ENDBRANCH  32  35
ENDBRANCH  31  32
ENDBRANCH  24  26
ENDBRANCH   6  24
TORSDOF 10
ENDMDL
MODEL      234
REMARK 921   NORMALIZED FREE ENERGY PREDICTED BY IDOCK:   -4.18 KCAL/MOL
REMARK 922        TOTAL FREE ENERGY PREDICTED BY IDOCK:   -7.98 KCAL/MOL
REMARK 923 INTER-LIGAND FREE ENERGY PREDICTED BY IDOCK:   -6.71 KCAL/MOL
REMARK 924 INTRA-LIGAND FREE ENERGY PREDICTED BY IDOCK:   -1.27 KCAL/MOL
REMARK 927      BINDING AFFINITY PREDICTED BY RF-SCORE:    0.00 PKD
ROOT
HETATM    1  C   UNL     1      -8.597   2.880  69.653  1.00  0.00    -0.115 C  
HETATM    2  C   UNL     1      -9.147   3.999  68.826  1.00  0.00    -0.190 A  
HETATM    3  C   UNL     1      -8.879   4.019  67.469  1.00  0.00    -0.115 A  
HETATM    4  N   UNL     1      -9.316   4.963  66.625  1.00  0.00    -0.132 NA 
HETATM    5  C   UNL     1     -10.026   5.953  67.167  1.00  0.00    -0.159 A  
HETATM    6  C   UNL     1      -9.954   5.029  69.306  1.00  0.00    -0.207 A  
HETATM    7  N   UNL     1     -10.362   6.002  68.471  1.00  0.00    -0.184 NA 
ENDROOT
BRANCH   5   8
HETATM    8  N   UNL     1     -10.404   6.959  66.274  1.00  0.00    -0.430 NA 
HETATM    9  H   UNL     1     -11.073   6.675  65.558  1.00  0.00     0.000 HD 
BRANCH   8  10
HETATM   10  C   UNL     1     -10.000   8.299  66.217  1.00  0.00    -0.109 A  
HETATM   11  C   UNL     1     -10.055   9.122  67.335  1.00  0.00    -0.289 A  
HETATM   12  C   UNL     1      -9.354  10.248  64.890  1.00  0.00    -0.306 A  
HETATM   13  C   UNL     1      -9.472  11.067  66.010  1.00  0.00    -0.207 A  
HETATM   14  C   UNL     1      -9.793  10.484  67.242  1.00  0.00    -0.209 A  
HETATM   15  C   UNL     1      -9.619   8.871  64.993  1.00  0.00     0.358 A  
BRANCH  13  16
HETATM   16  O   UNL     1      -9.289  12.421  65.832  1.00  0.00    -0.181 OA 
BRANCH  16  17
HETATM   17  C   UNL     1     -10.511  13.150  65.964  1.00  0.00    -0.284 C  
BRANCH  17  18
HETATM   18  C   UNL     1     -10.386  14.468  66.729  1.00  0.00    -0.269 C  
BRANCH  18  19
HETATM   19  N   UNL     1      -9.015  14.981  66.578  1.00  0.00    -0.281 NA 
HETATM   20  C   UNL     1      -8.124  14.650  67.699  1.00  0.00    -0.173 C  
HETATM   21  C   UNL     1      -8.952  16.427  66.416  1.00  0.00    -0.305 C  
HETATM   22  C   UNL     1      -7.045  15.723  67.683  1.00  0.00    -0.192 C  
HETATM   23  C   UNL     1      -7.464  16.685  66.583  1.00  0.00    -0.311 C  
ENDBRANCH  18  19
ENDBRANCH  17  18
ENDBRANCH  16  17
ENDBRANCH  13  16
ENDBRANCH   8  10
ENDBRANCH   5   8
BRANCH   6  24
HETATM   24  N   UNL     1     -10.245   5.094  70.694  1.00  0.00    -0.253 NA 
HETATM   25  H   UNL     1     -10.781   4.295  71.034  1.00  0.00     0.000 HD 
BRANCH  24  26
HETATM   26  C   UNL     1      -9.944   6.041  71.705  1.00  0.00    -0.179 A  
HETATM   27  C   UNL     1     -10.898   6.760  72.432  1.00  0.00    -0.270 A  
HETATM   28  C   UNL     1      -8.598   6.406  71.890  1.00  0.00    -0.127 A  
HETATM   29  C   UNL     1     -10.536   7.805  73.299  1.00  0.00    -0.358 A  
HETATM   30  C   UNL     1      -9.203   8.194  73.421  1.00  0.00    -0.291 A  
HETATM   31  C   UNL     1      -8.237   7.504  72.691  1.00  0.00    -0.112 A  
BRANCH  31  32
HETATM   32  S   UNL     1      -6.534   7.992  72.813  1.00  0.00    -0.083 S  
HETATM   33  O   UNL     1      -6.511   9.305  73.424  1.00  0.00    -0.314 OA 
HETATM   34  O   UNL     1      -5.789   6.895  73.390  1.00  0.00    -0.053 OA 
BRANCH  32  35
HETATM   35  N   UNL     1      -6.029   8.233  71.228  1.00  0.00    -0.034 N  
HETATM   36  C   UNL     1      -5.552   9.230  69.050  1.00  0.00    -0.036 C  
HETATM   37  C   UNL     1      -7.680   9.785  70.188  1.00  0.00    -0.188 C  
HETATM   38  C   UNL     1      -5.485  10.655  71.084  1.00  0.00    -0.059 C  
HETATM   39  C   UNL     1      -6.200   9.473  70.431  1.00  0.00    -0.064 C  
HETATM   40  H   UNL     1      -5.559   7.452  70.770  1.00  0.00     0.000 HD 
ENDBRANCH  32  35
ENDBRANCH  31  32
ENDBRANCH  24  26
ENDBRANCH   6  24
TORSDOF 10
ENDMDL
MODEL      235
REMARK 921   NORMALIZED FREE ENERGY PREDICTED BY IDOCK:   -4.18 KCAL/MOL
REMARK 922        TOTAL FREE ENERGY PREDICTED BY IDOCK:   -7.97 KCAL/MOL
REMARK 923 INTER-LIGAND FREE ENERGY PREDICTED BY IDOCK:   -7.10 KCAL/MOL
REMARK 924 INTRA-LIGAND FREE ENERGY PREDICTED BY IDOCK:   -0.87 KCAL/MOL
REMARK 927      BINDING AFFINITY PREDICTED BY RF-SCORE:    0.00 PKD
ROOT
HETATM    1  C   UNL     1     -11.493  15.436  64.874  1.00  0.00    -0.311 C  
HETATM    2  C   UNL     1     -11.196  13.987  65.094  1.00  0.00    -0.329 A  
HETATM    3  C   UNL     1     -10.654  13.253  64.053  1.00  0.00    -0.192 A  
HETATM    4  N   UNL     1     -10.343  11.953  64.127  1.00  0.00    -0.308 NA 
HETATM    5  C   UNL     1     -10.617  11.346  65.282  1.00  0.00    -0.277 A  
HETATM    6  C   UNL     1     -11.390  13.301  66.291  1.00  0.00    -0.309 A  
HETATM    7  N   UNL     1     -11.117  11.985  66.359  1.00  0.00    -0.303 NA 
ENDROOT
BRANCH   5   8
HETATM    8  N   UNL     1     -10.350   9.975  65.302  1.00  0.00    -0.177 NA 
HETATM    9  H   UNL     1     -10.868   9.422  64.620  1.00  0.00     0.000 HD 
BRANCH   8  10
HETATM   10  C   UNL     1      -9.475   9.249  66.121  1.00  0.00    -0.236 A  
HETATM   11  C   UNL     1      -8.102   9.259  65.906  1.00  0.00    -0.111 A  
HETATM   12  C   UNL     1      -9.128   7.564  67.857  1.00  0.00    -0.130 A  
HETATM   13  C   UNL     1      -7.763   7.545  67.586  1.00  0.00    -0.115 A  
HETATM   14  C   UNL     1      -7.253   8.426  66.625  1.00  0.00    -0.077 A  
HETATM   15  C   UNL     1      -9.980   8.410  67.126  1.00  0.00    -0.304 A  
BRANCH  13  16
HETATM   16  O   UNL     1      -6.989   6.631  68.270  1.00  0.00    -0.071 OA 
BRANCH  16  17
HETATM   17  C   UNL     1      -7.749   5.901  69.235  1.00  0.00    -0.094 C  
BRANCH  17  18
HETATM   18  C   UNL     1      -7.428   4.407  69.298  1.00  0.00    -0.055 C  
BRANCH  18  19
HETATM   19  N   UNL     1      -7.626   3.931  70.676  1.00  0.00    -0.044 NA 
HETATM   20  C   UNL     1      -8.791   3.054  70.846  1.00  0.00    -0.082 C  
HETATM   21  C   UNL     1      -7.777   5.009  71.644  1.00  0.00    -0.106 C  
HETATM   22  C   UNL     1      -9.183   3.188  72.311  1.00  0.00    -0.157 C  
HETATM   23  C   UNL     1      -8.248   4.247  72.872  1.00  0.00    -0.094 C  
ENDBRANCH  18  19
ENDBRANCH  17  18
ENDBRANCH  16  17
ENDBRANCH  13  16
ENDBRANCH   8  10
ENDBRANCH   5   8
BRANCH   6  24
HETATM   24  N   UNL     1     -11.973  13.979  67.394  1.00  0.00    -0.421 NA 
HETATM   25  H   UNL     1     -12.983  13.854  67.459  1.00  0.00     0.000 HD 
BRANCH  24  26
HETATM   26  C   UNL     1     -11.439  14.795  68.423  1.00  0.00    -0.314 A  
HETATM   27  C   UNL     1     -11.447  14.468  69.782  1.00  0.00    -0.327 A  
HETATM   28  C   UNL     1     -11.012  16.092  68.085  1.00  0.00    -0.341 A  
HETATM   29  C   UNL     1     -11.057  15.390  70.769  1.00  0.00    -0.371 A  
HETATM   30  C   UNL     1     -10.699  16.691  70.420  1.00  0.00     0.115 A  
HETATM   31  C   UNL     1     -10.702  17.045  69.072  1.00  0.00    -0.271 A  
BRANCH  31  32
HETATM   32  S   UNL     1     -10.268  18.701  68.601  1.00  0.00    -0.227 S  
HETATM   33  O   UNL     1     -11.225  19.122  67.599  1.00  0.00    -0.261 OA 
HETATM   34  O   UNL     1     -10.069  19.476  69.805  1.00  0.00    -0.128 OA 
BRANCH  32  35
HETATM   35  N   UNL     1      -8.806  18.560  67.784  1.00  0.00    -0.272 N  
HETATM   36  C   UNL     1      -6.440  18.656  67.188  1.00  0.00    -0.196 C  
HETATM   37  C   UNL     1      -7.453  20.560  68.406  1.00  0.00     0.045 C  
HETATM   38  C   UNL     1      -7.087  18.347  69.567  1.00  0.00     0.042 C  
HETATM   39  C   UNL     1      -7.484  19.035  68.262  1.00  0.00    -0.292 C  
HETATM   40  H   UNL     1      -8.830  18.104  66.871  1.00  0.00     0.000 HD 
ENDBRANCH  32  35
ENDBRANCH  31  32
ENDBRANCH  24  26
ENDBRANCH   6  24
TORSDOF 10
ENDMDL
MODEL      236
REMARK 921   NORMALIZED FREE ENERGY PREDICTED BY IDOCK:   -4.17 KCAL/MOL
REMARK 922        TOTAL FREE ENERGY PREDICTED BY IDOCK:   -7.96 KCAL/MOL
REMARK 923 INTER-LIGAND FREE ENERGY PREDICTED BY IDOCK:   -6.15 KCAL/MOL
REMARK 924 INTRA-LIGAND FREE ENERGY PREDICTED BY IDOCK:   -1.81 KCAL/MOL
REMARK 927      BINDING AFFINITY PREDICTED BY RF-SCORE:    0.00 PKD
ROOT
HETATM    1  C   UNL     1     -11.006  16.612  70.182  1.00  0.00    -0.110 C  
HETATM    2  C   UNL     1     -11.138  15.516  69.173  1.00  0.00    -0.272 A  
HETATM    3  C   UNL     1     -12.396  15.012  68.896  1.00  0.00     0.012 A  
HETATM    4  N   UNL     1     -12.643  14.035  68.014  1.00  0.00     0.294 NA 
HETATM    5  C   UNL     1     -11.580  13.512  67.402  1.00  0.00    -0.356 A  
HETATM    6  C   UNL     1     -10.084  14.967  68.443  1.00  0.00    -0.225 A  
HETATM    7  N   UNL     1     -10.321  13.959  67.585  1.00  0.00    -0.240 NA 
ENDROOT
BRANCH   5   8
HETATM    8  N   UNL     1     -11.863  12.447  66.544  1.00  0.00    -0.563 NA 
HETATM    9  H   UNL     1     -12.803  12.061  66.627  1.00  0.00     0.000 HD 
BRANCH   8  10
HETATM   10  C   UNL     1     -11.046  11.833  65.586  1.00  0.00    -0.285 A  
HETATM   11  C   UNL     1     -10.920  12.347  64.301  1.00  0.00    -0.396 A  
HETATM   12  C   UNL     1      -9.706   9.913  64.882  1.00  0.00    -0.332 A  
HETATM   13  C   UNL     1      -9.641  10.416  63.585  1.00  0.00    -0.310 A  
HETATM   14  C   UNL     1     -10.227  11.657  63.313  1.00  0.00    -0.445 A  
HETATM   15  C   UNL     1     -10.407  10.617  65.876  1.00  0.00    -0.291 A  
BRANCH  13  16
HETATM   16  O   UNL     1      -9.018   9.640  62.631  1.00  0.00    -0.240 OA 
BRANCH  16  17
HETATM   17  C   UNL     1      -7.849   8.996  63.143  1.00  0.00    -0.133 C  
BRANCH  17  18
HETATM   18  C   UNL     1      -7.604   7.592  62.587  1.00  0.00    -0.112 C  
BRANCH  18  19
HETATM   19  N   UNL     1      -6.900   6.792  63.601  1.00  0.00    -0.051 NA 
HETATM   20  C   UNL     1      -7.772   5.894  64.369  1.00  0.00    -0.099 C  
HETATM   21  C   UNL     1      -6.177   7.598  64.576  1.00  0.00    -0.044 C  
HETATM   22  C   UNL     1      -7.049   5.662  65.687  1.00  0.00    -0.067 C  
HETATM   23  C   UNL     1      -5.820   6.555  65.622  1.00  0.00    -0.026 C  
ENDBRANCH  18  19
ENDBRANCH  17  18
ENDBRANCH  16  17
ENDBRANCH  13  16
ENDBRANCH   8  10
ENDBRANCH   5   8
BRANCH   6  24
HETATM   24  N   UNL     1      -8.760  15.411  68.695  1.00  0.00    -0.180 NA 
HETATM   25  H   UNL     1      -8.645  16.421  68.601  1.00  0.00     0.000 HD 
BRANCH  24  26
HETATM   26  C   UNL     1      -7.564  14.740  69.051  1.00  0.00    -0.141 A  
HETATM   27  C   UNL     1      -6.284  15.295  68.968  1.00  0.00    -0.103 A  
HETATM   28  C   UNL     1      -7.641  13.369  69.361  1.00  0.00     0.452 A  
HETATM   29  C   UNL     1      -5.125  14.525  69.173  1.00  0.00    -0.079 A  
HETATM   30  C   UNL     1      -5.220  13.156  69.415  1.00  0.00    -0.075 A  
HETATM   31  C   UNL     1      -6.485  12.576  69.484  1.00  0.00    -0.083 A  
BRANCH  31  32
HETATM   32  S   UNL     1      -6.634  10.831  69.772  1.00  0.00    -0.139 S  
HETATM   33  O   UNL     1      -6.007  10.161  68.652  1.00  0.00    -0.041 OA 
HETATM   34  O   UNL     1      -6.210  10.559  71.128  1.00  0.00    -0.336 OA 
BRANCH  32  35
HETATM   35  N   UNL     1      -8.275  10.496  69.626  1.00  0.00    -0.362 N  
HETATM   36  C   UNL     1     -10.439   9.366  69.609  1.00  0.00    -0.236 C  
HETATM   37  C   UNL     1      -8.445   8.160  68.769  1.00  0.00    -0.126 C  
HETATM   38  C   UNL     1      -8.703   8.649  71.234  1.00  0.00    -0.246 C  
HETATM   39  C   UNL     1      -8.921   9.173  69.816  1.00  0.00    -0.162 C  
HETATM   40  H   UNL     1      -8.885  11.277  69.384  1.00  0.00     0.000 HD 
ENDBRANCH  32  35
ENDBRANCH  31  32
ENDBRANCH  24  26
ENDBRANCH   6  24
TORSDOF 10
ENDMDL
MODEL      237
REMARK 921   NORMALIZED FREE ENERGY PREDICTED BY IDOCK:   -4.16 KCAL/MOL
REMARK 922        TOTAL FREE ENERGY PREDICTED BY IDOCK:   -7.94 KCAL/MOL
REMARK 923 INTER-LIGAND FREE ENERGY PREDICTED BY IDOCK:   -6.79 KCAL/MOL
REMARK 924 INTRA-LIGAND FREE ENERGY PREDICTED BY IDOCK:   -1.15 KCAL/MOL
REMARK 927      BINDING AFFINITY PREDICTED BY RF-SCORE:    0.00 PKD
ROOT
HETATM    1  C   UNL     1     -12.242  16.035  68.847  1.00  0.00     0.204 C  
HETATM    2  C   UNL     1     -10.931  15.319  68.767  1.00  0.00    -0.260 A  
HETATM    3  C   UNL     1      -9.954  15.610  69.703  1.00  0.00    -0.289 A  
HETATM    4  N   UNL     1      -8.745  15.037  69.737  1.00  0.00     0.004 NA 
HETATM    5  C   UNL     1      -8.483  14.155  68.772  1.00  0.00    -0.069 A  
HETATM    6  C   UNL     1     -10.609  14.337  67.831  1.00  0.00    -0.240 A  
HETATM    7  N   UNL     1      -9.382  13.787  67.836  1.00  0.00    -0.203 NA 
ENDROOT
BRANCH   5   8
HETATM    8  N   UNL     1      -7.189  13.630  68.792  1.00  0.00    -0.102 NA 
HETATM    9  H   UNL     1      -6.473  14.225  68.375  1.00  0.00     0.000 HD 
BRANCH   8  10
HETATM   10  C   UNL     1      -6.730  12.408  69.301  1.00  0.00    -0.067 A  
HETATM   11  C   UNL     1      -7.272  11.198  68.885  1.00  0.00    -0.106 A  
HETATM   12  C   UNL     1      -5.407  11.178  70.947  1.00  0.00    -0.119 A  
HETATM   13  C   UNL     1      -6.005   9.983  70.557  1.00  0.00    -0.092 A  
HETATM   14  C   UNL     1      -6.918  10.001  69.496  1.00  0.00    -0.078 A  
HETATM   15  C   UNL     1      -5.769  12.384  70.324  1.00  0.00    -0.166 A  
BRANCH  13  16
HETATM   16  O   UNL     1      -5.679   8.845  71.263  1.00  0.00    -0.037 OA 
BRANCH  16  17
HETATM   17  C   UNL     1      -6.839   8.144  71.716  1.00  0.00    -0.073 C  
BRANCH  17  18
HETATM   18  C   UNL     1      -6.983   8.071  73.237  1.00  0.00    -0.103 C  
BRANCH  18  19
HETATM   19  N   UNL     1      -8.184   7.289  73.568  1.00  0.00    -0.113 NA 
HETATM   20  C   UNL     1      -8.302   6.027  72.826  1.00  0.00    -0.118 C  
HETATM   21  C   UNL     1      -9.427   8.016  73.344  1.00  0.00    -0.237 C  
HETATM   22  C   UNL     1      -9.790   5.708  72.811  1.00  0.00    -0.183 C  
HETATM   23  C   UNL     1     -10.454   6.903  73.477  1.00  0.00    -0.382 C  
ENDBRANCH  18  19
ENDBRANCH  17  18
ENDBRANCH  16  17
ENDBRANCH  13  16
ENDBRANCH   8  10
ENDBRANCH   5   8
BRANCH   6  24
HETATM   24  N   UNL     1     -11.548  14.008  66.819  1.00  0.00    -0.366 NA 
HETATM   25  H   UNL     1     -12.497  14.321  67.029  1.00  0.00     0.000 HD 
BRANCH  24  26
HETATM   26  C   UNL     1     -11.439  13.335  65.577  1.00  0.00    -0.311 A  
HETATM   27  C   UNL     1     -12.309  13.511  64.497  1.00  0.00    -0.406 A  
HETATM   28  C   UNL     1     -10.489  12.303  65.465  1.00  0.00    -0.296 A  
HETATM   29  C   UNL     1     -12.250  12.692  63.356  1.00  0.00    -0.610 A  
HETATM   30  C   UNL     1     -11.346  11.634  63.290  1.00  0.00    -0.288 A  
HETATM   31  C   UNL     1     -10.481  11.428  64.363  1.00  0.00    -0.330 A  
BRANCH  31  32
HETATM   32  S   UNL     1      -9.331  10.076  64.314  1.00  0.00    -0.263 S  
HETATM   33  O   UNL     1      -9.789   9.094  65.275  1.00  0.00    -0.087 OA 
HETATM   34  O   UNL     1      -9.120   9.712  62.930  1.00  0.00    -0.258 OA 
BRANCH  32  35
HETATM   35  N   UNL     1      -7.901  10.686  64.952  1.00  0.00    -0.340 N  
HETATM   36  C   UNL     1      -5.571  10.963  65.629  1.00  0.00    -0.115 C  
HETATM   37  C   UNL     1      -6.624   8.730  65.823  1.00  0.00    -0.060 C  
HETATM   38  C   UNL     1      -6.097   9.703  63.552  1.00  0.00    -0.105 C  
HETATM   39  C   UNL     1      -6.585  10.001  64.969  1.00  0.00    -0.124 C  
HETATM   40  H   UNL     1      -7.942  11.617  65.368  1.00  0.00     0.000 HD 
ENDBRANCH  32  35
ENDBRANCH  31  32
ENDBRANCH  24  26
ENDBRANCH   6  24
TORSDOF 10
ENDMDL
MODEL      238
REMARK 921   NORMALIZED FREE ENERGY PREDICTED BY IDOCK:   -4.12 KCAL/MOL
REMARK 922        TOTAL FREE ENERGY PREDICTED BY IDOCK:   -7.88 KCAL/MOL
REMARK 923 INTER-LIGAND FREE ENERGY PREDICTED BY IDOCK:   -6.75 KCAL/MOL
REMARK 924 INTRA-LIGAND FREE ENERGY PREDICTED BY IDOCK:   -1.13 KCAL/MOL
REMARK 927      BINDING AFFINITY PREDICTED BY RF-SCORE:    0.00 PKD
ROOT
HETATM    1  C   UNL     1      -8.328   8.214  73.954  1.00  0.00    -0.311 C  
HETATM    2  C   UNL     1      -8.794   7.200  72.959  1.00  0.00    -0.153 A  
HETATM    3  C   UNL     1      -8.686   5.857  73.276  1.00  0.00    -0.117 A  
HETATM    4  N   UNL     1      -9.069   4.857  72.472  1.00  0.00    -0.131 NA 
HETATM    5  C   UNL     1      -9.552   5.211  71.280  1.00  0.00    -0.162 A  
HETATM    6  C   UNL     1      -9.373   7.493  71.725  1.00  0.00    -0.144 A  
HETATM    7  N   UNL     1      -9.722   6.493  70.897  1.00  0.00    -0.176 NA 
ENDROOT
BRANCH   5   8
HETATM    8  N   UNL     1      -9.874   4.145  70.438  1.00  0.00    -0.198 NA 
HETATM    9  H   UNL     1     -10.678   3.589  70.729  1.00  0.00     0.000 HD 
BRANCH   8  10
HETATM   10  C   UNL     1      -9.257   3.727  69.252  1.00  0.00    -0.160 A  
HETATM   11  C   UNL     1      -9.680   2.591  68.573  1.00  0.00     0.069 A  
HETATM   12  C   UNL     1      -7.404   3.908  67.668  1.00  0.00    -0.067 A  
HETATM   13  C   UNL     1      -7.810   2.735  67.037  1.00  0.00    -0.075 A  
HETATM   14  C   UNL     1      -8.976   2.099  67.480  1.00  0.00    -0.183 A  
HETATM   15  C   UNL     1      -8.123   4.400  68.771  1.00  0.00    -0.077 A  
BRANCH  13  16
HETATM   16  O   UNL     1      -7.017   2.250  66.019  1.00  0.00    -0.042 OA 
BRANCH  16  17
HETATM   17  C   UNL     1      -6.983   3.136  64.898  1.00  0.00    -0.053 C  
BRANCH  17  18
HETATM   18  C   UNL     1      -8.331   3.335  64.205  1.00  0.00    -0.090 C  
BRANCH  18  19
HETATM   19  N   UNL     1      -8.442   4.736  63.767  1.00  0.00    -0.124 NA 
HETATM   20  C   UNL     1      -7.987   4.972  62.390  1.00  0.00    -0.074 C  
HETATM   21  C   UNL     1      -7.704   5.667  64.610  1.00  0.00    -0.099 C  
HETATM   22  C   UNL     1      -7.590   6.440  62.345  1.00  0.00    -0.076 C  
HETATM   23  C   UNL     1      -7.754   6.935  63.774  1.00  0.00    -0.118 C  
ENDBRANCH  18  19
ENDBRANCH  17  18
ENDBRANCH  16  17
ENDBRANCH  13  16
ENDBRANCH   8  10
ENDBRANCH   5   8
BRANCH   6  24
HETATM   24  N   UNL     1      -9.487   8.848  71.316  1.00  0.00    -0.250 NA 
HETATM   25  H   UNL     1     -10.006   9.428  71.976  1.00  0.00     0.000 HD 
BRANCH  24  26
HETATM   26  C   UNL     1      -9.027   9.560  70.180  1.00  0.00    -0.236 A  
HETATM   27  C   UNL     1      -7.728  10.048  70.019  1.00  0.00    -0.181 A  
HETATM   28  C   UNL     1      -9.974   9.944  69.213  1.00  0.00    -0.217 A  
HETATM   29  C   UNL     1      -7.380  10.892  68.949  1.00  0.00    -0.111 A  
HETATM   30  C   UNL     1      -8.345  11.313  68.037  1.00  0.00    -0.136 A  
HETATM   31  C   UNL     1      -9.652  10.853  68.189  1.00  0.00    -0.164 A  
BRANCH  31  32
HETATM   32  S   UNL     1     -10.906  11.389  67.052  1.00  0.00    -0.295 S  
HETATM   33  O   UNL     1     -10.738  10.616  65.839  1.00  0.00    -0.152 OA 
HETATM   34  O   UNL     1     -12.173  11.404  67.750  1.00  0.00    -0.537 OA 
BRANCH  32  35
HETATM   35  N   UNL     1     -10.483  12.962  66.635  1.00  0.00    -0.260 N  
HETATM   36  C   UNL     1     -10.366  15.140  65.538  1.00  0.00    -0.399 C  
HETATM   37  C   UNL     1     -10.671  13.109  64.153  1.00  0.00    -0.399 C  
HETATM   38  C   UNL     1     -12.539  13.940  65.636  1.00  0.00    -0.553 C  
HETATM   39  C   UNL     1     -11.030  13.745  65.500  1.00  0.00    -0.299 C  
HETATM   40  H   UNL     1      -9.785  13.421  67.219  1.00  0.00     0.000 HD 
ENDBRANCH  32  35
ENDBRANCH  31  32
ENDBRANCH  24  26
ENDBRANCH   6  24
TORSDOF 10
ENDMDL
MODEL      239
REMARK 921   NORMALIZED FREE ENERGY PREDICTED BY IDOCK:   -4.03 KCAL/MOL
REMARK 922        TOTAL FREE ENERGY PREDICTED BY IDOCK:   -7.73 KCAL/MOL
REMARK 923 INTER-LIGAND FREE ENERGY PREDICTED BY IDOCK:   -6.30 KCAL/MOL
REMARK 924 INTRA-LIGAND FREE ENERGY PREDICTED BY IDOCK:   -1.43 KCAL/MOL
REMARK 927      BINDING AFFINITY PREDICTED BY RF-SCORE:    0.00 PKD
ROOT
HETATM    1  C   UNL     1      -7.978   6.315  62.339  1.00  0.00    -0.104 C  
HETATM    2  C   UNL     1      -7.464   7.251  63.385  1.00  0.00    -0.101 A  
HETATM    3  C   UNL     1      -6.538   8.213  63.022  1.00  0.00    -0.085 A  
HETATM    4  N   UNL     1      -6.006   9.108  63.865  1.00  0.00    -0.078 NA 
HETATM    5  C   UNL     1      -6.391   9.018  65.139  1.00  0.00    -0.061 A  
HETATM    6  C   UNL     1      -7.870   7.265  64.719  1.00  0.00    -0.126 A  
HETATM    7  N   UNL     1      -7.310   8.135  65.578  1.00  0.00    -0.071 NA 
ENDROOT
BRANCH   5   8
HETATM    8  N   UNL     1      -5.764   9.917  66.005  1.00  0.00    -0.056 NA 
HETATM    9  H   UNL     1      -4.759   9.786  66.113  1.00  0.00     0.000 HD 
BRANCH   8  10
HETATM   10  C   UNL     1      -6.313  10.972  66.746  1.00  0.00    -0.114 A  
HETATM   11  C   UNL     1      -7.685  11.100  66.921  1.00  0.00    -0.148 A  
HETATM   12  C   UNL     1      -6.031  13.125  67.868  1.00  0.00    -0.134 A  
HETATM   13  C   UNL     1      -7.412  13.263  67.981  1.00  0.00    -0.138 A  
HETATM   14  C   UNL     1      -8.233  12.223  67.531  1.00  0.00    -0.170 A  
HETATM   15  C   UNL     1      -5.485  11.986  67.252  1.00  0.00    -0.128 A  
BRANCH  13  16
HETATM   16  O   UNL     1      -7.895  14.440  68.512  1.00  0.00    -0.125 OA 
BRANCH  16  17
HETATM   17  C   UNL     1      -8.573  15.231  67.534  1.00  0.00    -0.177 C  
BRANCH  17  18
HETATM   18  C   UNL     1      -9.774  16.012  68.071  1.00  0.00    -0.217 C  
BRANCH  18  19
HETATM   19  N   UNL     1     -10.394  15.246  69.163  1.00  0.00    -0.237 NA 
HETATM   20  C   UNL     1     -11.530  14.414  68.743  1.00  0.00    -0.289 C  
HETATM   21  C   UNL     1     -10.878  16.081  70.255  1.00  0.00    -0.321 C  
HETATM   22  C   UNL     1     -12.377  14.231  69.994  1.00  0.00    -0.403 C  
HETATM   23  C   UNL     1     -11.701  15.085  71.055  1.00  0.00    -0.379 C  
ENDBRANCH  18  19
ENDBRANCH  17  18
ENDBRANCH  16  17
ENDBRANCH  13  16
ENDBRANCH   8  10
ENDBRANCH   5   8
BRANCH   6  24
HETATM   24  N   UNL     1      -8.794   6.288  65.173  1.00  0.00    -0.364 NA 
HETATM   25  H   UNL     1      -9.500   6.043  64.479  1.00  0.00     0.000 HD 
BRANCH  24  26
HETATM   26  C   UNL     1      -8.937   5.582  66.394  1.00  0.00    -0.131 A  
HETATM   27  C   UNL     1      -8.736   4.207  66.547  1.00  0.00    -0.115 A  
HETATM   28  C   UNL     1      -9.467   6.273  67.500  1.00  0.00    -0.115 A  
HETATM   29  C   UNL     1      -9.058   3.539  67.742  1.00  0.00    -0.197 A  
HETATM   30  C   UNL     1      -9.642   4.228  68.803  1.00  0.00    -0.219 A  
HETATM   31  C   UNL     1      -9.868   5.597  68.666  1.00  0.00    -0.145 A  
BRANCH  31  32
HETATM   32  S   UNL     1     -10.629   6.495  69.995  1.00  0.00    -0.252 S  
HETATM   33  O   UNL     1     -11.991   6.777  69.591  1.00  0.00    -0.128 OA 
HETATM   34  O   UNL     1     -10.355   5.795  71.230  1.00  0.00    -0.206 OA 
BRANCH  32  35
HETATM   35  N   UNL     1      -9.857   7.988  70.019  1.00  0.00    -0.184 N  
HETATM   36  C   UNL     1      -8.250   9.784  70.412  1.00  0.00    -0.119 C  
HETATM   37  C   UNL     1      -8.675   8.135  72.210  1.00  0.00    -0.243 C  
HETATM   38  C   UNL     1      -7.430   7.457  70.120  1.00  0.00    -0.087 C  
HETATM   39  C   UNL     1      -8.570   8.299  70.691  1.00  0.00    -0.136 C  
HETATM   40  H   UNL     1     -10.316   8.753  69.526  1.00  0.00     0.000 HD 
ENDBRANCH  32  35
ENDBRANCH  31  32
ENDBRANCH  24  26
ENDBRANCH   6  24
TORSDOF 10
ENDMDL
MODEL      240
REMARK 921   NORMALIZED FREE ENERGY PREDICTED BY IDOCK:   -4.02 KCAL/MOL
REMARK 922        TOTAL FREE ENERGY PREDICTED BY IDOCK:   -7.72 KCAL/MOL
REMARK 923 INTER-LIGAND FREE ENERGY PREDICTED BY IDOCK:   -6.68 KCAL/MOL
REMARK 924 INTRA-LIGAND FREE ENERGY PREDICTED BY IDOCK:   -1.04 KCAL/MOL
REMARK 927      BINDING AFFINITY PREDICTED BY RF-SCORE:    0.00 PKD
ROOT
HETATM    1  C   UNL     1      -5.126  11.992  71.992  1.00  0.00     0.134 C  
HETATM    2  C   UNL     1      -5.491  13.171  71.148  1.00  0.00    -0.184 A  
HETATM    3  C   UNL     1      -5.259  14.442  71.643  1.00  0.00    -0.170 A  
HETATM    4  N   UNL     1      -5.541  15.573  70.984  1.00  0.00    -0.022 NA 
HETATM    5  C   UNL     1      -6.111  15.432  69.788  1.00  0.00    -0.147 A  
HETATM    6  C   UNL     1      -6.025  13.103  69.863  1.00  0.00    -0.138 A  
HETATM    7  N   UNL     1      -6.347  14.235  69.212  1.00  0.00    -0.103 NA 
ENDROOT
BRANCH   5   8
HETATM    8  N   UNL     1      -6.459  16.629  69.158  1.00  0.00    -0.187 NA 
HETATM    9  H   UNL     1      -5.793  17.392  69.279  1.00  0.00     0.000 HD 
BRANCH   8  10
HETATM   10  C   UNL     1      -7.586  16.936  68.386  1.00  0.00    -0.209 A  
HETATM   11  C   UNL     1      -8.874  16.768  68.880  1.00  0.00    -0.228 A  
HETATM   12  C   UNL     1      -8.560  17.502  66.216  1.00  0.00    -0.234 A  
HETATM   13  C   UNL     1      -9.840  17.271  66.714  1.00  0.00    -0.294 A  
HETATM   14  C   UNL     1      -9.987  16.934  68.064  1.00  0.00    -0.279 A  
HETATM   15  C   UNL     1      -7.439  17.333  67.047  1.00  0.00    -0.223 A  
BRANCH  13  16
HETATM   16  O   UNL     1     -10.894  17.363  65.831  1.00  0.00    -0.193 OA 
BRANCH  16  17
HETATM   17  C   UNL     1     -10.999  16.207  64.998  1.00  0.00    -0.344 C  
BRANCH  17  18
HETATM   18  C   UNL     1     -11.181  14.892  65.756  1.00  0.00    -0.334 C  
BRANCH  18  19
HETATM   19  N   UNL     1     -11.574  13.840  64.805  1.00  0.00    -0.347 NA 
HETATM   20  C   UNL     1     -12.532  12.868  65.348  1.00  0.00    -0.454 C  
HETATM   21  C   UNL     1     -10.447  13.068  64.297  1.00  0.00    -0.402 C  
HETATM   22  C   UNL     1     -12.329  11.603  64.525  1.00  0.00     0.135 C  
HETATM   23  C   UNL     1     -11.158  11.916  63.607  1.00  0.00    -0.517 C  
ENDBRANCH  18  19
ENDBRANCH  17  18
ENDBRANCH  16  17
ENDBRANCH  13  16
ENDBRANCH   8  10
ENDBRANCH   5   8
BRANCH   6  24
HETATM   24  N   UNL     1      -6.321  11.833  69.300  1.00  0.00    -0.093 NA 
HETATM   25  H   UNL     1      -5.615  11.125  69.503  1.00  0.00     0.000 HD 
BRANCH  24  26
HETATM   26  C   UNL     1      -7.396  11.347  68.515  1.00  0.00    -0.105 A  
HETATM   27  C   UNL     1      -8.607  12.019  68.320  1.00  0.00    -0.174 A  
HETATM   28  C   UNL     1      -7.314  10.032  68.022  1.00  0.00    -0.087 A  
HETATM   29  C   UNL     1      -9.697  11.411  67.673  1.00  0.00    -0.183 A  
HETATM   30  C   UNL     1      -9.618  10.086  67.248  1.00  0.00    -0.188 A  
HETATM   31  C   UNL     1      -8.427   9.390  67.448  1.00  0.00    -0.125 A  
BRANCH  31  32
HETATM   32  S   UNL     1      -8.306   7.695  66.934  1.00  0.00    -0.127 S  
HETATM   33  O   UNL     1      -6.969   7.246  67.265  1.00  0.00    -0.073 OA 
HETATM   34  O   UNL     1      -9.466   6.989  67.429  1.00  0.00    -0.129 OA 
BRANCH  32  35
HETATM   35  N   UNL     1      -8.355   7.737  65.255  1.00  0.00    -0.193 N  
HETATM   36  C   UNL     1      -7.893   8.252  62.913  1.00  0.00    -0.143 C  
HETATM   37  C   UNL     1      -7.781  10.071  64.590  1.00  0.00    -0.146 C  
HETATM   38  C   UNL     1      -6.027   8.254  64.553  1.00  0.00    -0.060 C  
HETATM   39  C   UNL     1      -7.509   8.579  64.373  1.00  0.00    -0.110 C  
HETATM   40  H   UNL     1      -9.031   7.126  64.798  1.00  0.00     0.000 HD 
ENDBRANCH  32  35
ENDBRANCH  31  32
ENDBRANCH  24  26
ENDBRANCH   6  24
TORSDOF 10
ENDMDL
MODEL      241
REMARK 921   NORMALIZED FREE ENERGY PREDICTED BY IDOCK:   -4.01 KCAL/MOL
REMARK 922        TOTAL FREE ENERGY PREDICTED BY IDOCK:   -7.70 KCAL/MOL
REMARK 923 INTER-LIGAND FREE ENERGY PREDICTED BY IDOCK:   -7.10 KCAL/MOL
REMARK 924 INTRA-LIGAND FREE ENERGY PREDICTED BY IDOCK:   -0.60 KCAL/MOL
REMARK 927      BINDING AFFINITY PREDICTED BY RF-SCORE:    0.00 PKD
ROOT
HETATM    1  C   UNL     1      -6.783   6.303  73.815  1.00  0.00    -0.075 C  
HETATM    2  C   UNL     1      -6.573   7.464  72.896  1.00  0.00    -0.064 A  
HETATM    3  C   UNL     1      -5.723   8.482  73.292  1.00  0.00    -0.081 A  
HETATM    4  N   UNL     1      -5.452   9.570  72.559  1.00  0.00    -0.218 NA 
HETATM    5  C   UNL     1      -6.085   9.664  71.390  1.00  0.00     0.001 A  
HETATM    6  C   UNL     1      -7.143   7.600  71.631  1.00  0.00    -0.063 A  
HETATM    7  N   UNL     1      -6.906   8.709  70.908  1.00  0.00    -0.054 NA 
ENDROOT
BRANCH   5   8
HETATM    8  N   UNL     1      -5.837  10.843  70.683  1.00  0.00    -0.212 NA 
HETATM    9  H   UNL     1      -4.971  11.322  70.927  1.00  0.00     0.000 HD 
BRANCH   8  10
HETATM   10  C   UNL     1      -6.604  11.465  69.689  1.00  0.00    -0.128 A  
HETATM   11  C   UNL     1      -6.530  12.834  69.463  1.00  0.00    -0.077 A  
HETATM   12  C   UNL     1      -8.425  11.359  68.062  1.00  0.00    -0.145 A  
HETATM   13  C   UNL     1      -8.375  12.740  67.893  1.00  0.00    -0.172 A  
HETATM   14  C   UNL     1      -7.395  13.468  68.579  1.00  0.00    -0.114 A  
HETATM   15  C   UNL     1      -7.546  10.725  68.957  1.00  0.00    -0.126 A  
BRANCH  13  16
HETATM   16  O   UNL     1      -9.319  13.318  67.073  1.00  0.00    -0.226 OA 
BRANCH  16  17
HETATM   17  C   UNL     1     -10.616  13.333  67.674  1.00  0.00    -0.236 C  
BRANCH  17  18
HETATM   18  C   UNL     1     -11.558  12.236  67.178  1.00  0.00    -0.353 C  
BRANCH  18  19
HETATM   19  N   UNL     1     -12.159  12.659  65.903  1.00  0.00    -0.563 NA 
HETATM   20  C   UNL     1     -11.638  11.948  64.729  1.00  0.00    -0.236 C  
HETATM   21  C   UNL     1     -11.994  14.081  65.630  1.00  0.00    -0.397 C  
HETATM   22  C   UNL     1     -11.867  12.890  63.555  1.00  0.00    -0.605 C  
HETATM   23  C   UNL     1     -12.427  14.160  64.176  1.00  0.00    -0.267 C  
ENDBRANCH  18  19
ENDBRANCH  17  18
ENDBRANCH  16  17
ENDBRANCH  13  16
ENDBRANCH   8  10
ENDBRANCH   5   8
BRANCH   6  24
HETATM   24  N   UNL     1      -8.051   6.612  71.169  1.00  0.00    -0.111 NA 
HETATM   25  H   UNL     1      -7.972   5.724  71.666  1.00  0.00     0.000 HD 
BRANCH  24  26
HETATM   26  C   UNL     1      -9.047   6.606  70.161  1.00  0.00    -0.155 A  
HETATM   27  C   UNL     1     -10.404   6.859  70.380  1.00  0.00    -0.221 A  
HETATM   28  C   UNL     1      -8.683   6.163  68.875  1.00  0.00    -0.123 A  
HETATM   29  C   UNL     1     -11.366   6.671  69.372  1.00  0.00    -0.331 A  
HETATM   30  C   UNL     1     -10.996   6.171  68.125  1.00  0.00    -0.398 A  
HETATM   31  C   UNL     1      -9.650   5.893  67.889  1.00  0.00    -0.115 A  
BRANCH  31  32
HETATM   32  S   UNL     1      -9.154   5.237  66.317  1.00  0.00    -0.144 S  
HETATM   33  O   UNL     1      -7.807   4.729  66.475  1.00  0.00    -0.097 OA 
HETATM   34  O   UNL     1     -10.213   4.382  65.829  1.00  0.00    -0.241 OA 
BRANCH  32  35
HETATM   35  N   UNL     1      -9.008   6.571  65.306  1.00  0.00    -0.362 N  
HETATM   36  C   UNL     1      -8.128   8.487  64.072  1.00  0.00    -0.156 C  
HETATM   37  C   UNL     1      -7.392   8.118  66.408  1.00  0.00    -0.080 C  
HETATM   38  C   UNL     1      -6.634   6.564  64.566  1.00  0.00    -0.038 C  
HETATM   39  C   UNL     1      -7.790   7.398  65.115  1.00  0.00    -0.123 C  
HETATM   40  H   UNL     1      -9.835   6.838  64.772  1.00  0.00     0.000 HD 
ENDBRANCH  32  35
ENDBRANCH  31  32
ENDBRANCH  24  26
ENDBRANCH   6  24
TORSDOF 10
ENDMDL
MODEL      242
REMARK 921   NORMALIZED FREE ENERGY PREDICTED BY IDOCK:   -4.00 KCAL/MOL
REMARK 922        TOTAL FREE ENERGY PREDICTED BY IDOCK:   -7.68 KCAL/MOL
REMARK 923 INTER-LIGAND FREE ENERGY PREDICTED BY IDOCK:   -6.41 KCAL/MOL
REMARK 924 INTRA-LIGAND FREE ENERGY PREDICTED BY IDOCK:   -1.28 KCAL/MOL
REMARK 927      BINDING AFFINITY PREDICTED BY RF-SCORE:    0.00 PKD
ROOT
HETATM    1  C   UNL     1      -5.126  12.210  74.516  1.00  0.00     0.140 C  
HETATM    2  C   UNL     1      -5.148  12.913  73.196  1.00  0.00     0.181 A  
HETATM    3  C   UNL     1      -5.146  14.296  73.178  1.00  0.00    -0.314 A  
HETATM    4  N   UNL     1      -5.163  15.038  72.063  1.00  0.00    -0.088 NA 
HETATM    5  C   UNL     1      -5.217  14.369  70.911  1.00  0.00    -0.131 A  
HETATM    6  C   UNL     1      -5.136  12.284  71.952  1.00  0.00     0.044 A  
HETATM    7  N   UNL     1      -5.193  13.023  70.830  1.00  0.00    -0.132 NA 
ENDROOT
BRANCH   5   8
HETATM    8  N   UNL     1      -5.307  15.170  69.771  1.00  0.00    -0.096 NA 
HETATM    9  H   UNL     1      -4.434  15.608  69.478  1.00  0.00     0.000 HD 
BRANCH   8  10
HETATM   10  C   UNL     1      -6.420  15.461  68.970  1.00  0.00    -0.113 A  
HETATM   11  C   UNL     1      -7.221  16.570  69.215  1.00  0.00    -0.213 A  
HETATM   12  C   UNL     1      -8.003  14.775  67.240  1.00  0.00    -0.232 A  
HETATM   13  C   UNL     1      -8.824  15.860  67.539  1.00  0.00    -0.189 A  
HETATM   14  C   UNL     1      -8.403  16.774  68.512  1.00  0.00    -0.243 A  
HETATM   15  C   UNL     1      -6.809  14.576  67.953  1.00  0.00    -0.177 A  
BRANCH  13  16
HETATM   16  O   UNL     1     -10.025  15.956  66.871  1.00  0.00    -0.238 OA 
BRANCH  16  17
HETATM   17  C   UNL     1     -11.135  15.640  67.715  1.00  0.00    -0.311 C  
BRANCH  17  18
HETATM   18  C   UNL     1     -10.988  14.332  68.494  1.00  0.00    -0.252 C  
BRANCH  18  19
HETATM   19  N   UNL     1     -11.072  14.619  69.934  1.00  0.00    -0.234 NA 
HETATM   20  C   UNL     1     -12.042  13.785  70.657  1.00  0.00    -0.333 C  
HETATM   21  C   UNL     1     -11.420  16.003  70.230  1.00  0.00    -0.359 C  
HETATM   22  C   UNL     1     -12.434  14.597  71.883  1.00  0.00    -0.412 C  
HETATM   23  C   UNL     1     -11.717  15.928  71.718  1.00  0.00    -0.575 C  
ENDBRANCH  18  19
ENDBRANCH  17  18
ENDBRANCH  16  17
ENDBRANCH  13  16
ENDBRANCH   8  10
ENDBRANCH   5   8
BRANCH   6  24
HETATM   24  N   UNL     1      -5.170  10.866  71.891  1.00  0.00    -0.316 NA 
HETATM   25  H   UNL     1      -4.590  10.415  72.598  1.00  0.00     0.000 HD 
BRANCH  24  26
HETATM   26  C   UNL     1      -5.846   9.948  71.048  1.00  0.00    -0.082 A  
HETATM   27  C   UNL     1      -5.463   8.618  70.851  1.00  0.00    -0.028 A  
HETATM   28  C   UNL     1      -6.880  10.439  70.230  1.00  0.00    -0.132 A  
HETATM   29  C   UNL     1      -6.070   7.808  69.875  1.00  0.00    -0.026 A  
HETATM   30  C   UNL     1      -7.047   8.331  69.031  1.00  0.00    -0.065 A  
HETATM   31  C   UNL     1      -7.433   9.660  69.197  1.00  0.00    -0.079 A  
BRANCH  31  32
HETATM   32  S   UNL     1      -8.662  10.356  68.122  1.00  0.00    -0.128 S  
HETATM   33  O   UNL     1      -9.753   9.407  68.054  1.00  0.00    -0.140 OA 
HETATM   34  O   UNL     1      -8.897  11.724  68.529  1.00  0.00    -0.169 OA 
BRANCH  32  35
HETATM   35  N   UNL     1      -7.969  10.344  66.590  1.00  0.00    -0.116 N  
HETATM   36  C   UNL     1      -7.542   9.947  64.219  1.00  0.00    -0.139 C  
HETATM   37  C   UNL     1      -8.508   8.124  65.590  1.00  0.00    -0.170 C  
HETATM   38  C   UNL     1      -9.886  10.161  65.017  1.00  0.00    -0.392 C  
HETATM   39  C   UNL     1      -8.499   9.643  65.394  1.00  0.00    -0.145 C  
HETATM   40  H   UNL     1      -7.103  10.868  66.472  1.00  0.00     0.000 HD 
ENDBRANCH  32  35
ENDBRANCH  31  32
ENDBRANCH  24  26
ENDBRANCH   6  24
TORSDOF 10
ENDMDL
MODEL      243
REMARK 921   NORMALIZED FREE ENERGY PREDICTED BY IDOCK:   -3.99 KCAL/MOL
REMARK 922        TOTAL FREE ENERGY PREDICTED BY IDOCK:   -7.68 KCAL/MOL
REMARK 923 INTER-LIGAND FREE ENERGY PREDICTED BY IDOCK:   -6.62 KCAL/MOL
REMARK 924 INTRA-LIGAND FREE ENERGY PREDICTED BY IDOCK:   -1.06 KCAL/MOL
REMARK 927      BINDING AFFINITY PREDICTED BY RF-SCORE:    0.00 PKD
ROOT
HETATM    1  C   UNL     1      -7.179   2.681  68.472  1.00  0.00    -0.048 C  
HETATM    2  C   UNL     1      -7.558   3.517  67.291  1.00  0.00    -0.078 A  
HETATM    3  C   UNL     1      -6.719   3.535  66.190  1.00  0.00    -0.045 A  
HETATM    4  N   UNL     1      -6.950   4.240  65.075  1.00  0.00    -0.056 NA 
HETATM    5  C   UNL     1      -8.053   4.989  65.069  1.00  0.00    -0.113 A  
HETATM    6  C   UNL     1      -8.726   4.270  67.183  1.00  0.00    -0.106 A  
HETATM    7  N   UNL     1      -8.943   5.012  66.081  1.00  0.00    -0.127 NA 
ENDROOT
BRANCH   5   8
HETATM    8  N   UNL     1      -8.226   5.767  63.922  1.00  0.00    -0.217 NA 
HETATM    9  H   UNL     1      -8.296   5.245  63.049  1.00  0.00     0.000 HD 
BRANCH   8  10
HETATM   10  C   UNL     1      -8.319   7.159  63.795  1.00  0.00     0.205 A  
HETATM   11  C   UNL     1      -8.511   7.979  64.900  1.00  0.00    -0.066 A  
HETATM   12  C   UNL     1      -8.557   9.130  62.369  1.00  0.00    -0.226 A  
HETATM   13  C   UNL     1      -8.806   9.926  63.485  1.00  0.00    -0.234 A  
HETATM   14  C   UNL     1      -8.747   9.341  64.756  1.00  0.00    -0.220 A  
HETATM   15  C   UNL     1      -8.317   7.754  62.524  1.00  0.00    -0.052 A  
BRANCH  13  16
HETATM   16  O   UNL     1      -9.124  11.249  63.268  1.00  0.00    -0.211 OA 
BRANCH  16  17
HETATM   17  C   UNL     1     -10.537  11.458  63.206  1.00  0.00    -0.305 C  
BRANCH  17  18
HETATM   18  C   UNL     1     -11.146  12.060  64.473  1.00  0.00    -0.331 C  
BRANCH  18  19
HETATM   19  N   UNL     1     -10.541  13.379  64.715  1.00  0.00    -0.383 NA 
HETATM   20  C   UNL     1      -9.821  13.484  65.991  1.00  0.00    -0.265 C  
HETATM   21  C   UNL     1     -11.506  14.470  64.697  1.00  0.00    -0.387 C  
HETATM   22  C   UNL     1      -9.832  14.965  66.338  1.00  0.00    -0.292 C  
HETATM   23  C   UNL     1     -10.676  15.615  65.253  1.00  0.00    -0.444 C  
ENDBRANCH  18  19
ENDBRANCH  17  18
ENDBRANCH  16  17
ENDBRANCH  13  16
ENDBRANCH   8  10
ENDBRANCH   5   8
BRANCH   6  24
HETATM   24  N   UNL     1      -9.620   4.327  68.284  1.00  0.00    -0.153 NA 
HETATM   25  H   UNL     1     -10.447   3.742  68.166  1.00  0.00     0.000 HD 
BRANCH  24  26
HETATM   26  C   UNL     1      -9.599   5.030  69.514  1.00  0.00    -0.167 A  
HETATM   27  C   UNL     1      -9.956   4.483  70.750  1.00  0.00    -0.269 A  
HETATM   28  C   UNL     1      -9.355   6.416  69.481  1.00  0.00    -0.146 A  
HETATM   29  C   UNL     1     -10.078   5.276  71.905  1.00  0.00    -0.252 A  
HETATM   30  C   UNL     1      -9.895   6.655  71.839  1.00  0.00    -0.174 A  
HETATM   31  C   UNL     1      -9.556   7.226  70.613  1.00  0.00    -0.172 A  
BRANCH  31  32
HETATM   32  S   UNL     1      -9.337   8.984  70.496  1.00  0.00    -0.239 S  
HETATM   33  O   UNL     1     -10.169   9.584  71.518  1.00  0.00    -0.247 OA 
HETATM   34  O   UNL     1      -7.918   9.260  70.443  1.00  0.00    -0.120 OA 
BRANCH  32  35
HETATM   35  N   UNL     1     -10.044   9.422  69.036  1.00  0.00    -0.187 N  
HETATM   36  C   UNL     1     -11.305  10.599  67.308  1.00  0.00    -0.122 C  
HETATM   37  C   UNL     1     -12.235  10.470  69.599  1.00  0.00    -0.208 C  
HETATM   38  C   UNL     1     -10.210  11.902  69.118  1.00  0.00     0.089 C  
HETATM   39  C   UNL     1     -10.930  10.591  68.806  1.00  0.00    -0.251 C  
HETATM   40  H   UNL     1      -9.845   8.829  68.231  1.00  0.00     0.000 HD 
ENDBRANCH  32  35
ENDBRANCH  31  32
ENDBRANCH  24  26
ENDBRANCH   6  24
TORSDOF 10
ENDMDL
MODEL      244
REMARK 921   NORMALIZED FREE ENERGY PREDICTED BY IDOCK:   -3.99 KCAL/MOL
REMARK 922        TOTAL FREE ENERGY PREDICTED BY IDOCK:   -7.66 KCAL/MOL
REMARK 923 INTER-LIGAND FREE ENERGY PREDICTED BY IDOCK:   -6.61 KCAL/MOL
REMARK 924 INTRA-LIGAND FREE ENERGY PREDICTED BY IDOCK:   -1.05 KCAL/MOL
REMARK 927      BINDING AFFINITY PREDICTED BY RF-SCORE:    0.00 PKD
ROOT
HETATM    1  C   UNL     1     -10.977   9.699  67.312  1.00  0.00    -0.107 C  
HETATM    2  C   UNL     1      -9.808  10.593  67.573  1.00  0.00    -0.194 A  
HETATM    3  C   UNL     1      -9.217  11.247  66.506  1.00  0.00    -0.188 A  
HETATM    4  N   UNL     1      -8.169  12.074  66.612  1.00  0.00    -0.111 NA 
HETATM    5  C   UNL     1      -7.664  12.231  67.836  1.00  0.00    -0.133 A  
HETATM    6  C   UNL     1      -9.268  10.862  68.830  1.00  0.00    -0.160 A  
HETATM    7  N   UNL     1      -8.190  11.659  68.937  1.00  0.00    -0.046 NA 
ENDROOT
BRANCH   5   8
HETATM    8  N   UNL     1      -6.527  13.040  67.901  1.00  0.00    -0.112 NA 
HETATM    9  H   UNL     1      -5.641  12.558  67.754  1.00  0.00     0.000 HD 
BRANCH   8  10
HETATM   10  C   UNL     1      -6.426  14.417  68.139  1.00  0.00    -0.136 A  
HETATM   11  C   UNL     1      -5.359  15.162  67.651  1.00  0.00    -0.000 A  
HETATM   12  C   UNL     1      -7.189  16.408  69.334  1.00  0.00    -0.172 A  
HETATM   13  C   UNL     1      -6.082  17.122  68.883  1.00  0.00    -0.169 A  
HETATM   14  C   UNL     1      -5.185  16.494  68.010  1.00  0.00    -0.115 A  
HETATM   15  C   UNL     1      -7.359  15.063  68.966  1.00  0.00    -0.151 A  
BRANCH  13  16
HETATM   16  O   UNL     1      -5.918  18.409  69.348  1.00  0.00    -0.230 OA 
BRANCH  16  17
HETATM   17  C   UNL     1      -7.094  19.200  69.161  1.00  0.00    -0.314 C  
BRANCH  17  18
HETATM   18  C   UNL     1      -7.356  19.615  67.713  1.00  0.00    -0.271 C  
BRANCH  18  19
HETATM   19  N   UNL     1      -8.799  19.514  67.439  1.00  0.00    -0.299 NA 
HETATM   20  C   UNL     1      -9.291  18.136  67.317  1.00  0.00    -0.252 C  
HETATM   21  C   UNL     1      -9.207  20.207  66.224  1.00  0.00    -0.284 C  
HETATM   22  C   UNL     1     -10.544  18.233  66.458  1.00  0.00    -0.313 C  
HETATM   23  C   UNL     1     -10.627  19.695  66.048  1.00  0.00    -0.584 C  
ENDBRANCH  18  19
ENDBRANCH  17  18
ENDBRANCH  16  17
ENDBRANCH  13  16
ENDBRANCH   8  10
ENDBRANCH   5   8
BRANCH   6  24
HETATM   24  N   UNL     1      -9.800  10.203  69.969  1.00  0.00    -0.404 NA 
HETATM   25  H   UNL     1     -10.632  10.656  70.348  1.00  0.00     0.000 HD 
BRANCH  24  26
HETATM   26  C   UNL     1      -9.414   9.044  70.688  1.00  0.00    -0.236 A  
HETATM   27  C   UNL     1      -9.642   8.841  72.052  1.00  0.00    -0.356 A  
HETATM   28  C   UNL     1      -8.607   8.097  70.031  1.00  0.00    -0.129 A  
HETATM   29  C   UNL     1      -9.086   7.749  72.743  1.00  0.00    -0.242 A  
HETATM   30  C   UNL     1      -8.237   6.857  72.090  1.00  0.00    -0.105 A  
HETATM   31  C   UNL     1      -7.980   7.051  70.734  1.00  0.00    -0.101 A  
BRANCH  31  32
HETATM   32  S   UNL     1      -6.887   5.941  69.882  1.00  0.00    -0.066 S  
HETATM   33  O   UNL     1      -7.051   6.188  68.465  1.00  0.00    -0.077 OA 
HETATM   34  O   UNL     1      -5.583   6.026  70.502  1.00  0.00    -0.013 OA 
BRANCH  32  35
HETATM   35  N   UNL     1      -7.526   4.407  70.140  1.00  0.00    -0.046 N  
HETATM   36  C   UNL     1      -8.730   2.300  69.874  1.00  0.00    -0.117 C  
HETATM   37  C   UNL     1      -9.786   4.397  69.087  1.00  0.00    -0.240 C  
HETATM   38  C   UNL     1      -7.795   3.430  67.870  1.00  0.00    -0.072 C  
HETATM   39  C   UNL     1      -8.443   3.675  69.231  1.00  0.00    -0.065 C  
HETATM   40  H   UNL     1      -7.257   3.935  71.003  1.00  0.00     0.000 HD 
ENDBRANCH  32  35
ENDBRANCH  31  32
ENDBRANCH  24  26
ENDBRANCH   6  24
TORSDOF 10
ENDMDL
MODEL      245
REMARK 921   NORMALIZED FREE ENERGY PREDICTED BY IDOCK:   -3.97 KCAL/MOL
REMARK 922        TOTAL FREE ENERGY PREDICTED BY IDOCK:   -7.64 KCAL/MOL
REMARK 923 INTER-LIGAND FREE ENERGY PREDICTED BY IDOCK:   -7.69 KCAL/MOL
REMARK 924 INTRA-LIGAND FREE ENERGY PREDICTED BY IDOCK:    0.05 KCAL/MOL
REMARK 927      BINDING AFFINITY PREDICTED BY RF-SCORE:    0.00 PKD
ROOT
HETATM    1  C   UNL     1      -6.410   7.849  68.162  1.00  0.00    -0.050 C  
HETATM    2  C   UNL     1      -7.382   8.816  67.566  1.00  0.00    -0.081 A  
HETATM    3  C   UNL     1      -8.126   9.620  68.412  1.00  0.00    -0.104 A  
HETATM    4  N   UNL     1      -9.025  10.523  68.001  1.00  0.00    -0.133 NA 
HETATM    5  C   UNL     1      -9.216  10.606  66.684  1.00  0.00    -0.164 A  
HETATM    6  C   UNL     1      -7.588   9.009  66.201  1.00  0.00    -0.095 A  
HETATM    7  N   UNL     1      -8.518   9.886  65.783  1.00  0.00    -0.131 NA 
ENDROOT
BRANCH   5   8
HETATM    8  N   UNL     1     -10.211  11.504  66.291  1.00  0.00    -0.223 NA 
HETATM    9  H   UNL     1     -11.106  11.081  66.044  1.00  0.00     0.000 HD 
BRANCH   8  10
HETATM   10  C   UNL     1     -10.162  12.901  66.188  1.00  0.00    -0.278 A  
HETATM   11  C   UNL     1     -10.512  13.555  65.013  1.00  0.00    -0.390 A  
HETATM   12  C   UNL     1      -9.466  15.055  67.108  1.00  0.00    -0.223 A  
HETATM   13  C   UNL     1      -9.767  15.684  65.902  1.00  0.00    -0.353 A  
HETATM   14  C   UNL     1     -10.324  14.925  64.867  1.00  0.00    -0.347 A  
HETATM   15  C   UNL     1      -9.661  13.671  67.249  1.00  0.00    -0.238 A  
BRANCH  13  16
HETATM   16  O   UNL     1      -9.472  17.026  65.791  1.00  0.00    -0.518 OA 
BRANCH  16  17
HETATM   17  C   UNL     1      -8.075  17.283  65.955  1.00  0.00    -0.151 C  
BRANCH  17  18
HETATM   18  C   UNL     1      -7.661  17.649  67.381  1.00  0.00    -0.200 C  
BRANCH  18  19
HETATM   19  N   UNL     1      -8.340  18.895  67.773  1.00  0.00    -0.275 NA 
HETATM   20  C   UNL     1      -9.580  18.688  68.533  1.00  0.00    -0.361 C  
HETATM   21  C   UNL     1      -8.688  19.745  66.642  1.00  0.00    -0.354 C  
HETATM   22  C   UNL     1     -10.409  19.942  68.297  1.00  0.00    -0.526 C  
HETATM   23  C   UNL     1      -9.604  20.763  67.301  1.00  0.00    -0.494 C  
ENDBRANCH  18  19
ENDBRANCH  17  18
ENDBRANCH  16  17
ENDBRANCH  13  16
ENDBRANCH   8  10
ENDBRANCH   5   8
BRANCH   6  24
HETATM   24  N   UNL     1      -6.885   8.198  65.272  1.00  0.00    -0.058 NA 
HETATM   25  H   UNL     1      -6.094   8.672  64.836  1.00  0.00     0.000 HD 
BRANCH  24  26
HETATM   26  C   UNL     1      -7.056   6.864  64.825  1.00  0.00    -0.060 A  
HETATM   27  C   UNL     1      -6.248   6.232  63.876  1.00  0.00    -0.029 A  
HETATM   28  C   UNL     1      -8.208   6.169  65.241  1.00  0.00    -0.142 A  
HETATM   29  C   UNL     1      -6.570   4.968  63.350  1.00  0.00    -0.026 A  
HETATM   30  C   UNL     1      -7.748   4.325  63.726  1.00  0.00    -0.074 A  
HETATM   31  C   UNL     1      -8.579   4.944  64.658  1.00  0.00    -0.149 A  
BRANCH  31  32
HETATM   32  S   UNL     1     -10.094   4.155  65.140  1.00  0.00    -0.173 S  
HETATM   33  O   UNL     1     -10.809   5.090  65.985  1.00  0.00    -0.283 OA 
HETATM   34  O   UNL     1     -10.716   3.607  63.955  1.00  0.00    -0.268 OA 
BRANCH  32  35
HETATM   35  N   UNL     1      -9.635   2.900  66.158  1.00  0.00    -0.392 N  
HETATM   36  C   UNL     1      -8.792   1.617  68.058  1.00  0.00    -0.145 C  
HETATM   37  C   UNL     1      -7.615   3.690  67.387  1.00  0.00    -0.074 C  
HETATM   38  C   UNL     1      -9.899   3.805  68.459  1.00  0.00     0.033 C  
HETATM   39  C   UNL     1      -8.998   3.040  67.491  1.00  0.00    -0.161 C  
HETATM   40  H   UNL     1      -9.812   1.951  65.829  1.00  0.00     0.000 HD 
ENDBRANCH  32  35
ENDBRANCH  31  32
ENDBRANCH  24  26
ENDBRANCH   6  24
TORSDOF 10
ENDMDL
MODEL      246
REMARK 921   NORMALIZED FREE ENERGY PREDICTED BY IDOCK:   -3.93 KCAL/MOL
REMARK 922        TOTAL FREE ENERGY PREDICTED BY IDOCK:   -7.58 KCAL/MOL
REMARK 923 INTER-LIGAND FREE ENERGY PREDICTED BY IDOCK:   -7.20 KCAL/MOL
REMARK 924 INTRA-LIGAND FREE ENERGY PREDICTED BY IDOCK:   -0.38 KCAL/MOL
REMARK 927      BINDING AFFINITY PREDICTED BY RF-SCORE:    0.00 PKD
ROOT
HETATM    1  C   UNL     1      -6.156   7.676  68.763  1.00  0.00    -0.031 C  
HETATM    2  C   UNL     1      -7.564   8.152  68.923  1.00  0.00    -0.098 A  
HETATM    3  C   UNL     1      -8.107   8.212  70.194  1.00  0.00    -0.113 A  
HETATM    4  N   UNL     1      -9.353   8.621  70.467  1.00  0.00    -0.166 NA 
HETATM    5  C   UNL     1     -10.105   8.956  69.418  1.00  0.00    -0.202 A  
HETATM    6  C   UNL     1      -8.388   8.583  67.885  1.00  0.00    -0.126 A  
HETATM    7  N   UNL     1      -9.653   8.958  68.148  1.00  0.00    -0.143 NA 
ENDROOT
BRANCH   5   8
HETATM    8  N   UNL     1     -11.421   9.308  69.728  1.00  0.00    -0.437 NA 
HETATM    9  H   UNL     1     -12.086   8.535  69.742  1.00  0.00     0.000 HD 
BRANCH   8  10
HETATM   10  C   UNL     1     -11.961  10.566  70.025  1.00  0.00    -0.288 A  
HETATM   11  C   UNL     1     -11.912  11.612  69.111  1.00  0.00    -0.378 A  
HETATM   12  C   UNL     1     -12.891  12.124  71.663  1.00  0.00    -0.390 A  
HETATM   13  C   UNL     1     -12.779  13.171  70.752  1.00  0.00    -0.184 A  
HETATM   14  C   UNL     1     -12.316  12.895  69.460  1.00  0.00    -0.040 A  
HETATM   15  C   UNL     1     -12.482  10.829  71.301  1.00  0.00    -0.504 A  
BRANCH  13  16
HETATM   16  O   UNL     1     -13.110  14.436  71.189  1.00  0.00    -0.334 OA 
BRANCH  16  17
HETATM   17  C   UNL     1     -12.027  15.067  71.875  1.00  0.00    -0.382 C  
BRANCH  17  18
HETATM   18  C   UNL     1     -11.335  16.177  71.083  1.00  0.00    -0.316 C  
BRANCH  18  19
HETATM   19  N   UNL     1     -10.836  15.622  69.814  1.00  0.00    -0.280 NA 
HETATM   20  C   UNL     1      -9.388  15.770  69.622  1.00  0.00    -0.176 C  
HETATM   21  C   UNL     1     -11.469  16.205  68.639  1.00  0.00    -0.340 C  
HETATM   22  C   UNL     1      -9.178  15.741  68.115  1.00  0.00    -0.189 C  
HETATM   23  C   UNL     1     -10.578  15.680  67.526  1.00  0.00    -0.297 C  
ENDBRANCH  18  19
ENDBRANCH  17  18
ENDBRANCH  16  17
ENDBRANCH  13  16
ENDBRANCH   8  10
ENDBRANCH   5   8
BRANCH   6  24
HETATM   24  N   UNL     1      -7.912   8.520  66.549  1.00  0.00    -0.098 NA 
HETATM   25  H   UNL     1      -7.651   9.430  66.168  1.00  0.00     0.000 HD 
BRANCH  24  26
HETATM   26  C   UNL     1      -7.724   7.453  65.636  1.00  0.00    -0.104 A  
HETATM   27  C   UNL     1      -6.800   7.456  64.587  1.00  0.00    -0.047 A  
HETATM   28  C   UNL     1      -8.629   6.377  65.681  1.00  0.00    -0.138 A  
HETATM   29  C   UNL     1      -6.778   6.441  63.614  1.00  0.00    -0.040 A  
HETATM   30  C   UNL     1      -7.724   5.418  63.639  1.00  0.00    -0.083 A  
HETATM   31  C   UNL     1      -8.667   5.404  64.664  1.00  0.00    -0.054 A  
BRANCH  31  32
HETATM   32  S   UNL     1      -9.895   4.123  64.708  1.00  0.00    -0.172 S  
HETATM   33  O   UNL     1     -10.944   4.571  65.600  1.00  0.00    -0.218 OA 
HETATM   34  O   UNL     1     -10.196   3.738  63.347  1.00  0.00    -0.176 OA 
BRANCH  32  35
HETATM   35  N   UNL     1      -9.162   2.834  65.500  1.00  0.00    -0.239 N  
HETATM   36  C   UNL     1      -7.900   1.479  67.092  1.00  0.00    -0.061 C  
HETATM   37  C   UNL     1      -7.036   3.714  66.462  1.00  0.00    -0.063 C  
HETATM   38  C   UNL     1      -9.105   3.498  67.896  1.00  0.00    -0.200 C  
HETATM   39  C   UNL     1      -8.320   2.918  66.720  1.00  0.00    -0.094 C  
HETATM   40  H   UNL     1      -9.311   1.906  65.106  1.00  0.00     0.000 HD 
ENDBRANCH  32  35
ENDBRANCH  31  32
ENDBRANCH  24  26
ENDBRANCH   6  24
TORSDOF 10
ENDMDL
MODEL      247
REMARK 921   NORMALIZED FREE ENERGY PREDICTED BY IDOCK:   -3.86 KCAL/MOL
REMARK 922        TOTAL FREE ENERGY PREDICTED BY IDOCK:   -7.47 KCAL/MOL
REMARK 923 INTER-LIGAND FREE ENERGY PREDICTED BY IDOCK:   -6.35 KCAL/MOL
REMARK 924 INTRA-LIGAND FREE ENERGY PREDICTED BY IDOCK:   -1.12 KCAL/MOL
REMARK 927      BINDING AFFINITY PREDICTED BY RF-SCORE:    0.00 PKD
ROOT
HETATM    1  C   UNL     1      -7.436  18.371  68.885  1.00  0.00    -0.263 C  
HETATM    2  C   UNL     1      -6.893  16.984  68.754  1.00  0.00    -0.199 A  
HETATM    3  C   UNL     1      -5.720  16.791  68.045  1.00  0.00    -0.118 A  
HETATM    4  N   UNL     1      -5.134  15.601  67.860  1.00  0.00    -0.123 NA 
HETATM    5  C   UNL     1      -5.765  14.548  68.379  1.00  0.00    -0.106 A  
HETATM    6  C   UNL     1      -7.456  15.844  69.326  1.00  0.00    -0.219 A  
HETATM    7  N   UNL     1      -6.894  14.641  69.110  1.00  0.00    -0.117 NA 
ENDROOT
BRANCH   5   8
HETATM    8  N   UNL     1      -5.168  13.315  68.107  1.00  0.00    -0.094 NA 
HETATM    9  H   UNL     1      -4.441  13.332  67.393  1.00  0.00     0.000 HD 
BRANCH   8  10
HETATM   10  C   UNL     1      -5.421  12.057  68.672  1.00  0.00    -0.049 A  
HETATM   11  C   UNL     1      -5.196  10.884  67.963  1.00  0.00    -0.036 A  
HETATM   12  C   UNL     1      -6.399  10.714  70.464  1.00  0.00    -0.076 A  
HETATM   13  C   UNL     1      -6.220   9.555  69.713  1.00  0.00    -0.040 A  
HETATM   14  C   UNL     1      -5.583   9.649  68.470  1.00  0.00    -0.039 A  
HETATM   15  C   UNL     1      -6.004  11.958  69.945  1.00  0.00    -0.148 A  
BRANCH  13  16
HETATM   16  O   UNL     1      -6.708   8.375  70.232  1.00  0.00    -0.035 OA 
BRANCH  16  17
HETATM   17  C   UNL     1      -8.130   8.286  70.118  1.00  0.00    -0.112 C  
BRANCH  17  18
HETATM   18  C   UNL     1      -8.897   8.767  71.350  1.00  0.00    -0.225 C  
BRANCH  18  19
HETATM   19  N   UNL     1     -10.340   8.629  71.100  1.00  0.00    -0.214 NA 
HETATM   20  C   UNL     1     -11.161   8.609  72.318  1.00  0.00    -0.328 C  
HETATM   21  C   UNL     1     -10.686   7.429  70.351  1.00  0.00    -0.237 C  
HETATM   22  C   UNL     1     -12.432   7.865  71.933  1.00  0.00    -0.352 C  
HETATM   23  C   UNL     1     -12.198   7.404  70.503  1.00  0.00    -0.034 C  
ENDBRANCH  18  19
ENDBRANCH  17  18
ENDBRANCH  16  17
ENDBRANCH  13  16
ENDBRANCH   8  10
ENDBRANCH   5   8
BRANCH   6  24
HETATM   24  N   UNL     1      -8.677  15.958  70.041  1.00  0.00     0.406 NA 
HETATM   25  H   UNL     1      -8.573  16.398  70.956  1.00  0.00     0.000 HD 
BRANCH  24  26
HETATM   26  C   UNL     1     -10.012  15.586  69.745  1.00  0.00    -0.274 A  
HETATM   27  C   UNL     1     -11.148  16.204  70.277  1.00  0.00    -0.375 A  
HETATM   28  C   UNL     1     -10.222  14.418  68.988  1.00  0.00    -0.185 A  
HETATM   29  C   UNL     1     -12.438  15.682  70.079  1.00  0.00    -0.249 A  
HETATM   30  C   UNL     1     -12.619  14.489  69.382  1.00  0.00     0.024 A  
HETATM   31  C   UNL     1     -11.500  13.846  68.857  1.00  0.00    -0.301 A  
BRANCH  31  32
HETATM   32  S   UNL     1     -11.701  12.315  67.980  1.00  0.00    -0.321 S  
HETATM   33  O   UNL     1     -12.164  11.334  68.940  1.00  0.00    -0.494 OA 
HETATM   34  O   UNL     1     -12.453  12.580  66.774  1.00  0.00    -0.318 OA 
BRANCH  32  35
HETATM   35  N   UNL     1     -10.144  11.832  67.570  1.00  0.00    -0.190 N  
HETATM   36  C   UNL     1      -8.224  10.861  66.416  1.00  0.00    -0.163 C  
HETATM   37  C   UNL     1     -10.365   9.617  66.448  1.00  0.00    -0.246 C  
HETATM   38  C   UNL     1     -10.134  11.731  65.086  1.00  0.00    -0.298 C  
HETATM   39  C   UNL     1      -9.760  11.023  66.387  1.00  0.00    -0.201 C  
HETATM   40  H   UNL     1      -9.392  12.124  68.193  1.00  0.00     0.000 HD 
ENDBRANCH  32  35
ENDBRANCH  31  32
ENDBRANCH  24  26
ENDBRANCH   6  24
TORSDOF 10
ENDMDL
MODEL      248
REMARK 921   NORMALIZED FREE ENERGY PREDICTED BY IDOCK:   -3.83 KCAL/MOL
REMARK 922        TOTAL FREE ENERGY PREDICTED BY IDOCK:   -7.41 KCAL/MOL
REMARK 923 INTER-LIGAND FREE ENERGY PREDICTED BY IDOCK:   -6.04 KCAL/MOL
REMARK 924 INTRA-LIGAND FREE ENERGY PREDICTED BY IDOCK:   -1.38 KCAL/MOL
REMARK 927      BINDING AFFINITY PREDICTED BY RF-SCORE:    0.00 PKD
ROOT
HETATM    1  C   UNL     1      -5.662   8.277  68.069  1.00  0.00    -0.035 C  
HETATM    2  C   UNL     1      -6.920   9.083  68.103  1.00  0.00    -0.077 A  
HETATM    3  C   UNL     1      -7.310   9.661  69.299  1.00  0.00    -0.079 A  
HETATM    4  N   UNL     1      -8.413  10.405  69.456  1.00  0.00    -0.140 NA 
HETATM    5  C   UNL     1      -9.181  10.553  68.377  1.00  0.00    -0.154 A  
HETATM    6  C   UNL     1      -7.738   9.341  67.004  1.00  0.00    -0.095 A  
HETATM    7  N   UNL     1      -8.867  10.054  67.165  1.00  0.00    -0.135 NA 
ENDROOT
BRANCH   5   8
HETATM    8  N   UNL     1     -10.359  11.272  68.591  1.00  0.00    -0.195 NA 
HETATM    9  H   UNL     1     -11.109  10.752  69.048  1.00  0.00     0.000 HD 
BRANCH   8  10
HETATM   10  C   UNL     1     -10.663  12.603  68.272  1.00  0.00    -0.230 A  
HETATM   11  C   UNL     1     -11.024  12.976  66.984  1.00  0.00    -0.289 A  
HETATM   12  C   UNL     1     -10.670  14.966  68.894  1.00  0.00    -0.245 A  
HETATM   13  C   UNL     1     -10.974  15.325  67.583  1.00  0.00    -0.311 A  
HETATM   14  C   UNL     1     -11.183  14.314  66.638  1.00  0.00    -0.337 A  
HETATM   15  C   UNL     1     -10.513  13.612  69.236  1.00  0.00     0.072 A  
BRANCH  13  16
HETATM   16  O   UNL     1     -11.027  16.670  67.285  1.00  0.00    -0.212 OA 
BRANCH  16  17
HETATM   17  C   UNL     1      -9.828  17.350  67.662  1.00  0.00    -0.282 C  
BRANCH  17  18
HETATM   18  C   UNL     1      -8.667  17.180  66.682  1.00  0.00    -0.252 C  
BRANCH  18  19
HETATM   19  N   UNL     1      -7.498  16.660  67.410  1.00  0.00    -0.151 NA 
HETATM   20  C   UNL     1      -7.347  15.201  67.338  1.00  0.00    -0.205 C  
HETATM   21  C   UNL     1      -7.496  17.005  68.825  1.00  0.00    -0.242 C  
HETATM   22  C   UNL     1      -6.549  14.819  68.576  1.00  0.00    -0.094 C  
HETATM   23  C   UNL     1      -6.381  16.117  69.350  1.00  0.00    -0.179 C  
ENDBRANCH  18  19
ENDBRANCH  17  18
ENDBRANCH  16  17
ENDBRANCH  13  16
ENDBRANCH   8  10
ENDBRANCH   5   8
BRANCH   6  24
HETATM   24  N   UNL     1      -7.421   8.756  65.750  1.00  0.00    -0.085 NA 
HETATM   25  H   UNL     1      -7.045   9.423  65.075  1.00  0.00     0.000 HD 
BRANCH  24  26
HETATM   26  C   UNL     1      -7.519   7.436  65.244  1.00  0.00    -0.085 A  
HETATM   27  C   UNL     1      -6.728   6.918  64.213  1.00  0.00    -0.045 A  
HETATM   28  C   UNL     1      -8.583   6.633  65.692  1.00  0.00    -0.130 A  
HETATM   29  C   UNL     1      -6.987   5.661  63.641  1.00  0.00    -0.049 A  
HETATM   30  C   UNL     1      -8.084   4.908  64.053  1.00  0.00    -0.116 A  
HETATM   31  C   UNL     1      -8.897   5.412  65.067  1.00  0.00    -0.082 A  
BRANCH  31  32
HETATM   32  S   UNL     1     -10.313   4.482  65.598  1.00  0.00    -0.184 S  
HETATM   33  O   UNL     1     -11.014   5.295  66.570  1.00  0.00    -0.213 OA 
HETATM   34  O   UNL     1     -10.993   3.982  64.424  1.00  0.00    -0.276 OA 
BRANCH  32  35
HETATM   35  N   UNL     1      -9.690   3.188  66.472  1.00  0.00    -0.409 N  
HETATM   36  C   UNL     1      -8.563   1.832  68.162  1.00  0.00    -0.098 C  
HETATM   37  C   UNL     1      -7.534   3.970  67.451  1.00  0.00    -0.068 C  
HETATM   38  C   UNL     1      -9.648   3.964  68.834  1.00  0.00    -0.200 C  
HETATM   39  C   UNL     1      -8.875   3.276  67.709  1.00  0.00    -0.131 C  
HETATM   40  H   UNL     1      -9.891   2.253  66.118  1.00  0.00     0.000 HD 
ENDBRANCH  32  35
ENDBRANCH  31  32
ENDBRANCH  24  26
ENDBRANCH   6  24
TORSDOF 10
ENDMDL
MODEL      249
REMARK 921   NORMALIZED FREE ENERGY PREDICTED BY IDOCK:   -3.81 KCAL/MOL
REMARK 922        TOTAL FREE ENERGY PREDICTED BY IDOCK:   -7.38 KCAL/MOL
REMARK 923 INTER-LIGAND FREE ENERGY PREDICTED BY IDOCK:   -5.91 KCAL/MOL
REMARK 924 INTRA-LIGAND FREE ENERGY PREDICTED BY IDOCK:   -1.47 KCAL/MOL
REMARK 927      BINDING AFFINITY PREDICTED BY RF-SCORE:    0.00 PKD
ROOT
HETATM    1  C   UNL     1      -9.181   4.132  63.117  1.00  0.00    -0.129 C  
HETATM    2  C   UNL     1      -9.202   3.593  64.512  1.00  0.00    -0.141 A  
HETATM    3  C   UNL     1      -8.893   2.259  64.716  1.00  0.00    -0.118 A  
HETATM    4  N   UNL     1      -8.876   1.662  65.914  1.00  0.00    -0.120 NA 
HETATM    5  C   UNL     1      -9.215   2.421  66.956  1.00  0.00    -0.079 A  
HETATM    6  C   UNL     1      -9.478   4.339  65.657  1.00  0.00    -0.176 A  
HETATM    7  N   UNL     1      -9.501   3.735  66.858  1.00  0.00    -0.197 NA 
ENDROOT
BRANCH   5   8
HETATM    8  N   UNL     1      -9.257   1.751  68.181  1.00  0.00    -0.164 NA 
HETATM    9  H   UNL     1      -9.500   0.762  68.126  1.00  0.00     0.000 HD 
BRANCH   8  10
HETATM   10  C   UNL     1      -9.016   2.237  69.473  1.00  0.00    -0.103 A  
HETATM   11  C   UNL     1      -8.074   3.230  69.712  1.00  0.00    -0.061 A  
HETATM   12  C   UNL     1      -9.320   2.030  71.889  1.00  0.00    -0.167 A  
HETATM   13  C   UNL     1      -8.330   2.985  72.110  1.00  0.00    -0.069 A  
HETATM   14  C   UNL     1      -7.734   3.605  71.006  1.00  0.00    -0.047 A  
HETATM   15  C   UNL     1      -9.659   1.657  70.578  1.00  0.00    -0.131 A  
BRANCH  13  16
HETATM   16  O   UNL     1      -7.975   3.246  73.416  1.00  0.00    -0.067 OA 
BRANCH  16  17
HETATM   17  C   UNL     1      -8.040   4.641  73.720  1.00  0.00    -0.105 C  
BRANCH  17  18
HETATM   18  C   UNL     1      -9.380   5.105  74.292  1.00  0.00    -0.123 C  
BRANCH  18  19
HETATM   19  N   UNL     1     -10.099   5.876  73.266  1.00  0.00    -0.181 NA 
HETATM   20  C   UNL     1     -10.450   7.241  73.677  1.00  0.00    -0.344 C  
HETATM   21  C   UNL     1     -11.338   5.245  72.830  1.00  0.00    -0.301 C  
HETATM   22  C   UNL     1     -11.652   7.620  72.824  1.00  0.00    -0.334 C  
HETATM   23  C   UNL     1     -11.980   6.366  72.030  1.00  0.00    -0.375 C  
ENDBRANCH  18  19
ENDBRANCH  17  18
ENDBRANCH  16  17
ENDBRANCH  13  16
ENDBRANCH   8  10
ENDBRANCH   5   8
BRANCH   6  24
HETATM   24  N   UNL     1      -9.835   5.707  65.524  1.00  0.00    -0.351 NA 
HETATM   25  H   UNL     1     -10.843   5.862  65.498  1.00  0.00     0.000 HD 
BRANCH  24  26
HETATM   26  C   UNL     1      -9.079   6.901  65.421  1.00  0.00     0.321 A  
HETATM   27  C   UNL     1      -7.852   7.012  64.760  1.00  0.00    -0.126 A  
HETATM   28  C   UNL     1      -9.503   8.019  66.162  1.00  0.00    -0.193 A  
HETATM   29  C   UNL     1      -7.071   8.178  64.837  1.00  0.00    -0.079 A  
HETATM   30  C   UNL     1      -7.477   9.250  65.628  1.00  0.00    -0.094 A  
HETATM   31  C   UNL     1      -8.687   9.156  66.312  1.00  0.00    -0.140 A  
BRANCH  31  32
HETATM   32  S   UNL     1      -9.219  10.500  67.342  1.00  0.00    -0.142 S  
HETATM   33  O   UNL     1      -8.364  11.629  67.040  1.00  0.00    -0.156 OA 
HETATM   34  O   UNL     1     -10.657  10.612  67.233  1.00  0.00    -0.230 OA 
BRANCH  32  35
HETATM   35  N   UNL     1      -8.814  10.045  68.908  1.00  0.00    -0.139 N  
HETATM   36  C   UNL     1      -8.866   9.083  71.152  1.00  0.00    -0.282 C  
HETATM   37  C   UNL     1     -10.932  10.086  70.225  1.00  0.00    -0.377 C  
HETATM   38  C   UNL     1     -10.036   7.914  69.297  1.00  0.00    -0.190 C  
HETATM   39  C   UNL     1      -9.676   9.291  69.853  1.00  0.00    -0.201 C  
HETATM   40  H   UNL     1      -7.888  10.311  69.241  1.00  0.00     0.000 HD 
ENDBRANCH  32  35
ENDBRANCH  31  32
ENDBRANCH  24  26
ENDBRANCH   6  24
TORSDOF 10
ENDMDL
MODEL      250
REMARK 921   NORMALIZED FREE ENERGY PREDICTED BY IDOCK:   -3.75 KCAL/MOL
REMARK 922        TOTAL FREE ENERGY PREDICTED BY IDOCK:   -7.29 KCAL/MOL
REMARK 923 INTER-LIGAND FREE ENERGY PREDICTED BY IDOCK:   -6.11 KCAL/MOL
REMARK 924 INTRA-LIGAND FREE ENERGY PREDICTED BY IDOCK:   -1.18 KCAL/MOL
REMARK 927      BINDING AFFINITY PREDICTED BY RF-SCORE:    0.00 PKD
ROOT
HETATM    1  C   UNL     1      -7.594  18.410  68.729  1.00  0.00    -0.295 C  
HETATM    2  C   UNL     1      -7.018  17.056  68.459  1.00  0.00    -0.197 A  
HETATM    3  C   UNL     1      -5.921  16.953  67.622  1.00  0.00    -0.139 A  
HETATM    4  N   UNL     1      -5.316  15.801  67.306  1.00  0.00    -0.341 NA 
HETATM    5  C   UNL     1      -5.851  14.694  67.823  1.00  0.00    -0.083 A  
HETATM    6  C   UNL     1      -7.478  15.863  69.015  1.00  0.00    -0.194 A  
HETATM    7  N   UNL     1      -6.900  14.699  68.670  1.00  0.00    -0.089 NA 
ENDROOT
BRANCH   5   8
HETATM    8  N   UNL     1      -5.243  13.504  67.416  1.00  0.00    -0.333 NA 
HETATM    9  H   UNL     1      -4.677  13.573  66.570  1.00  0.00     0.000 HD 
BRANCH   8  10
HETATM   10  C   UNL     1      -5.295  12.231  67.999  1.00  0.00    -0.068 A  
HETATM   11  C   UNL     1      -5.156  11.077  67.238  1.00  0.00    -0.043 A  
HETATM   12  C   UNL     1      -5.790  10.821  69.933  1.00  0.00    -0.072 A  
HETATM   13  C   UNL     1      -5.705   9.679  69.141  1.00  0.00    -0.035 A  
HETATM   14  C   UNL     1      -5.352   9.818  67.793  1.00  0.00    -0.036 A  
HETATM   15  C   UNL     1      -5.588  12.090  69.364  1.00  0.00    -0.069 A  
BRANCH  13  16
HETATM   16  O   UNL     1      -6.001   8.469  69.731  1.00  0.00    -0.028 OA 
BRANCH  16  17
HETATM   17  C   UNL     1      -6.327   7.467  68.766  1.00  0.00    -0.039 C  
BRANCH  17  18
HETATM   18  C   UNL     1      -7.826   7.268  68.539  1.00  0.00    -0.122 C  
BRANCH  18  19
HETATM   19  N   UNL     1      -8.095   5.836  68.336  1.00  0.00    -0.107 NA 
HETATM   20  C   UNL     1      -8.766   5.185  69.468  1.00  0.00    -0.099 C  
HETATM   21  C   UNL     1      -6.895   5.055  68.064  1.00  0.00    -0.060 C  
HETATM   22  C   UNL     1      -8.397   3.712  69.360  1.00  0.00    -0.083 C  
HETATM   23  C   UNL     1      -7.424   3.636  68.195  1.00  0.00    -0.061 C  
ENDBRANCH  18  19
ENDBRANCH  17  18
ENDBRANCH  16  17
ENDBRANCH  13  16
ENDBRANCH   8  10
ENDBRANCH   5   8
BRANCH   6  24
HETATM   24  N   UNL     1      -8.620  15.885  69.857  1.00  0.00     0.226 NA 
HETATM   25  H   UNL     1      -8.434  16.269  70.784  1.00  0.00     0.000 HD 
BRANCH  24  26
HETATM   26  C   UNL     1      -9.967  15.484  69.675  1.00  0.00    -0.284 A  
HETATM   27  C   UNL     1     -11.057  16.012  70.374  1.00  0.00    -0.376 A  
HETATM   28  C   UNL     1     -10.221  14.371  68.851  1.00  0.00    -0.215 A  
HETATM   29  C   UNL     1     -12.344  15.455  70.272  1.00  0.00    -0.425 A  
HETATM   30  C   UNL     1     -12.562  14.315  69.502  1.00  0.00    -0.026 A  
HETATM   31  C   UNL     1     -11.487  13.760  68.810  1.00  0.00    -0.303 A  
BRANCH  31  32
HETATM   32  S   UNL     1     -11.733  12.296  67.837  1.00  0.00    -0.305 S  
HETATM   33  O   UNL     1     -12.166  11.252  68.742  1.00  0.00    -0.532 OA 
HETATM   34  O   UNL     1     -12.529  12.649  66.682  1.00  0.00    -0.368 OA 
BRANCH  32  35
HETATM   35  N   UNL     1     -10.198  11.836  67.333  1.00  0.00    -0.198 N  
HETATM   36  C   UNL     1      -8.316  11.026  66.003  1.00  0.00    -0.147 C  
HETATM   37  C   UNL     1     -10.510   9.894  65.800  1.00  0.00    -0.033 C  
HETATM   38  C   UNL     1     -10.181  12.222  64.877  1.00  0.00    -0.307 C  
HETATM   39  C   UNL     1      -9.844  11.257  66.013  1.00  0.00    -0.229 C  
HETATM   40  H   UNL     1      -9.435  11.967  67.998  1.00  0.00     0.000 HD 
ENDBRANCH  32  35
ENDBRANCH  31  32
ENDBRANCH  24  26
ENDBRANCH   6  24
TORSDOF 10
ENDMDL
MODEL      251
REMARK 921   NORMALIZED FREE ENERGY PREDICTED BY IDOCK:   -3.71 KCAL/MOL
REMARK 922        TOTAL FREE ENERGY PREDICTED BY IDOCK:   -7.23 KCAL/MOL
REMARK 923 INTER-LIGAND FREE ENERGY PREDICTED BY IDOCK:   -5.04 KCAL/MOL
REMARK 924 INTRA-LIGAND FREE ENERGY PREDICTED BY IDOCK:   -2.18 KCAL/MOL
REMARK 927      BINDING AFFINITY PREDICTED BY RF-SCORE:    0.00 PKD
ROOT
HETATM    1  C   UNL     1      -8.528   5.367  62.372  1.00  0.00    -0.111 C  
HETATM    2  C   UNL     1      -8.670   4.837  63.763  1.00  0.00    -0.131 A  
HETATM    3  C   UNL     1      -9.597   3.838  64.005  1.00  0.00    -0.160 A  
HETATM    4  N   UNL     1      -9.815   3.282  65.203  1.00  0.00    -0.060 NA 
HETATM    5  C   UNL     1      -9.098   3.768  66.217  1.00  0.00    -0.150 A  
HETATM    6  C   UNL     1      -7.910   5.245  64.859  1.00  0.00    -0.095 A  
HETATM    7  N   UNL     1      -8.153   4.718  66.072  1.00  0.00    -0.106 NA 
ENDROOT
BRANCH   5   8
HETATM    8  N   UNL     1      -9.401   3.218  67.465  1.00  0.00    -0.205 NA 
HETATM    9  H   UNL     1      -9.281   2.208  67.535  1.00  0.00     0.000 HD 
BRANCH   8  10
HETATM   10  C   UNL     1      -9.844   3.851  68.634  1.00  0.00     0.066 A  
HETATM   11  C   UNL     1     -10.773   4.883  68.595  1.00  0.00     0.436 A  
HETATM   12  C   UNL     1      -9.604   4.241  71.035  1.00  0.00    -0.253 A  
HETATM   13  C   UNL     1     -10.493   5.311  70.965  1.00  0.00    -0.203 A  
HETATM   14  C   UNL     1     -11.100   5.603  69.738  1.00  0.00    -0.170 A  
HETATM   15  C   UNL     1      -9.280   3.516  69.875  1.00  0.00    -0.217 A  
BRANCH  13  16
HETATM   16  O   UNL     1     -10.705   6.041  72.114  1.00  0.00    -0.209 OA 
BRANCH  16  17
HETATM   17  C   UNL     1     -10.869   7.434  71.841  1.00  0.00    -0.229 C  
BRANCH  17  18
HETATM   18  C   UNL     1      -9.718   8.316  72.327  1.00  0.00    -0.292 C  
BRANCH  18  19
HETATM   19  N   UNL     1      -8.846   8.637  71.186  1.00  0.00    -0.180 NA 
HETATM   20  C   UNL     1      -7.422   8.740  71.531  1.00  0.00    -0.087 C  
HETATM   21  C   UNL     1      -9.199   9.883  70.519  1.00  0.00     0.126 C  
HETATM   22  C   UNL     1      -6.816   9.644  70.466  1.00  0.00    -0.126 C  
HETATM   23  C   UNL     1      -7.994  10.094  69.617  1.00  0.00    -0.181 C  
ENDBRANCH  18  19
ENDBRANCH  17  18
ENDBRANCH  16  17
ENDBRANCH  13  16
ENDBRANCH   8  10
ENDBRANCH   5   8
BRANCH   6  24
HETATM   24  N   UNL     1      -6.962   6.288  64.696  1.00  0.00    -0.049 NA 
HETATM   25  H   UNL     1      -6.115   5.995  64.208  1.00  0.00     0.000 HD 
BRANCH  24  26
HETATM   26  C   UNL     1      -6.951   7.655  65.071  1.00  0.00    -0.058 A  
HETATM   27  C   UNL     1      -6.023   8.233  65.943  1.00  0.00    -0.044 A  
HETATM   28  C   UNL     1      -8.032   8.461  64.670  1.00  0.00    -0.147 A  
HETATM   29  C   UNL     1      -6.165   9.552  66.409  1.00  0.00    -0.064 A  
HETATM   30  C   UNL     1      -7.277  10.313  66.052  1.00  0.00    -0.128 A  
HETATM   31  C   UNL     1      -8.224   9.751  65.198  1.00  0.00    -0.140 A  
BRANCH  31  32
HETATM   32  S   UNL     1      -9.659  10.691  64.742  1.00  0.00    -0.309 S  
HETATM   33  O   UNL     1      -9.571  10.937  63.318  1.00  0.00    -0.277 OA 
HETATM   34  O   UNL     1     -10.822  10.045  65.309  1.00  0.00     0.338 OA 
BRANCH  32  35
HETATM   35  N   UNL     1      -9.452  12.194  65.464  1.00  0.00    -0.422 N  
HETATM   36  C   UNL     1      -9.761  14.200  66.822  1.00  0.00    -0.283 C  
HETATM   37  C   UNL     1     -11.730  13.173  65.727  1.00  0.00    -0.415 C  
HETATM   38  C   UNL     1     -10.595  12.017  67.665  1.00  0.00    -0.239 C  
HETATM   39  C   UNL     1     -10.393  12.854  66.403  1.00  0.00    -0.268 C  
HETATM   40  H   UNL     1      -8.597  12.702  65.236  1.00  0.00     0.000 HD 
ENDBRANCH  32  35
ENDBRANCH  31  32
ENDBRANCH  24  26
ENDBRANCH   6  24
TORSDOF 10
ENDMDL
MODEL      252
REMARK 921   NORMALIZED FREE ENERGY PREDICTED BY IDOCK:   -3.64 KCAL/MOL
REMARK 922        TOTAL FREE ENERGY PREDICTED BY IDOCK:   -7.12 KCAL/MOL
REMARK 923 INTER-LIGAND FREE ENERGY PREDICTED BY IDOCK:   -7.04 KCAL/MOL
REMARK 924 INTRA-LIGAND FREE ENERGY PREDICTED BY IDOCK:   -0.08 KCAL/MOL
REMARK 927      BINDING AFFINITY PREDICTED BY RF-SCORE:    0.00 PKD
ROOT
HETATM    1  C   UNL     1      -7.555   7.121  64.514  1.00  0.00    -0.107 C  
HETATM    2  C   UNL     1      -8.480   8.260  64.804  1.00  0.00    -0.089 A  
HETATM    3  C   UNL     1      -8.341   9.432  64.081  1.00  0.00    -0.168 A  
HETATM    4  N   UNL     1      -9.107  10.517  64.246  1.00  0.00    -0.212 NA 
HETATM    5  C   UNL     1     -10.036  10.444  65.200  1.00  0.00    -0.308 A  
HETATM    6  C   UNL     1      -9.518   8.234  65.734  1.00  0.00     0.029 A  
HETATM    7  N   UNL     1     -10.265   9.335  65.932  1.00  0.00    -0.141 NA 
ENDROOT
BRANCH   5   8
HETATM    8  N   UNL     1     -10.769  11.616  65.396  1.00  0.00    -0.283 NA 
HETATM    9  H   UNL     1     -11.780  11.517  65.305  1.00  0.00     0.000 HD 
BRANCH   8  10
HETATM   10  C   UNL     1     -10.321  12.908  65.700  1.00  0.00    -0.282 A  
HETATM   11  C   UNL     1      -9.375  13.135  66.693  1.00  0.00    -0.242 A  
HETATM   12  C   UNL     1     -10.563  15.329  65.466  1.00  0.00    -0.390 A  
HETATM   13  C   UNL     1      -9.657  15.535  66.503  1.00  0.00    -0.272 A  
HETATM   14  C   UNL     1      -9.041  14.424  67.091  1.00  0.00    -0.238 A  
HETATM   15  C   UNL     1     -10.894  14.022  65.068  1.00  0.00    -0.401 A  
BRANCH  13  16
HETATM   16  O   UNL     1      -9.438  16.833  66.911  1.00  0.00    -0.228 OA 
BRANCH  16  17
HETATM   17  C   UNL     1      -9.769  17.025  68.288  1.00  0.00    -0.275 C  
BRANCH  17  18
HETATM   18  C   UNL     1     -11.186  16.591  68.668  1.00  0.00    -0.297 C  
BRANCH  18  19
HETATM   19  N   UNL     1     -11.113  15.657  69.802  1.00  0.00    -0.284 NA 
HETATM   20  C   UNL     1     -11.956  14.464  69.651  1.00  0.00    -0.336 C  
HETATM   21  C   UNL     1     -11.481  16.263  71.075  1.00  0.00    -0.302 C  
HETATM   22  C   UNL     1     -12.237  13.989  71.070  1.00  0.00    -0.430 C  
HETATM   23  C   UNL     1     -11.600  15.038  71.967  1.00  0.00    -0.419 C  
ENDBRANCH  18  19
ENDBRANCH  17  18
ENDBRANCH  16  17
ENDBRANCH  13  16
ENDBRANCH   8  10
ENDBRANCH   5   8
BRANCH   6  24
HETATM   24  N   UNL     1      -9.702   7.077  66.537  1.00  0.00    -0.323 NA 
HETATM   25  H   UNL     1     -10.581   6.592  66.353  1.00  0.00     0.000 HD 
BRANCH  24  26
HETATM   26  C   UNL     1      -8.916   6.458  67.539  1.00  0.00    -0.116 A  
HETATM   27  C   UNL     1      -7.900   7.092  68.260  1.00  0.00    -0.122 A  
HETATM   28  C   UNL     1      -9.050   5.069  67.722  1.00  0.00    -0.123 A  
HETATM   29  C   UNL     1      -7.044   6.381  69.119  1.00  0.00    -0.084 A  
HETATM   30  C   UNL     1      -7.151   4.997  69.237  1.00  0.00    -0.056 A  
HETATM   31  C   UNL     1      -8.144   4.339  68.514  1.00  0.00    -0.077 A  
BRANCH  31  32
HETATM   32  S   UNL     1      -8.291   2.574  68.631  1.00  0.00    -0.067 S  
HETATM   33  O   UNL     1      -7.691   2.182  69.890  1.00  0.00    -0.043 OA 
HETATM   34  O   UNL     1      -9.655   2.211  68.318  1.00  0.00    -0.215 OA 
BRANCH  32  35
HETATM   35  N   UNL     1      -7.267   1.965  67.445  1.00  0.00    -0.053 N  
HETATM   36  C   UNL     1      -5.509   1.732  65.767  1.00  0.00    -0.009 C  
HETATM   37  C   UNL     1      -6.771   3.859  65.901  1.00  0.00    -0.045 C  
HETATM   38  C   UNL     1      -5.140   3.222  67.721  1.00  0.00    -0.008 C  
HETATM   39  C   UNL     1      -6.197   2.714  66.741  1.00  0.00    -0.024 C  
HETATM   40  H   UNL     1      -7.394   0.987  67.184  1.00  0.00     0.000 HD 
ENDBRANCH  32  35
ENDBRANCH  31  32
ENDBRANCH  24  26
ENDBRANCH   6  24
TORSDOF 10
ENDMDL
MODEL      253
REMARK 921   NORMALIZED FREE ENERGY PREDICTED BY IDOCK:   -3.61 KCAL/MOL
REMARK 922        TOTAL FREE ENERGY PREDICTED BY IDOCK:   -7.06 KCAL/MOL
REMARK 923 INTER-LIGAND FREE ENERGY PREDICTED BY IDOCK:   -5.86 KCAL/MOL
REMARK 924 INTRA-LIGAND FREE ENERGY PREDICTED BY IDOCK:   -1.21 KCAL/MOL
REMARK 927      BINDING AFFINITY PREDICTED BY RF-SCORE:    0.00 PKD
ROOT
HETATM    1  C   UNL     1      -9.433   4.631  63.634  1.00  0.00     0.077 C  
HETATM    2  C   UNL     1      -9.397   4.031  65.003  1.00  0.00    -0.163 A  
HETATM    3  C   UNL     1      -8.990   2.716  65.143  1.00  0.00    -0.133 A  
HETATM    4  N   UNL     1      -8.914   2.069  66.313  1.00  0.00    -0.120 NA 
HETATM    5  C   UNL     1      -9.293   2.755  67.392  1.00  0.00    -0.138 A  
HETATM    6  C   UNL     1      -9.711   4.704  66.183  1.00  0.00    -0.203 A  
HETATM    7  N   UNL     1      -9.675   4.047  67.356  1.00  0.00    -0.177 NA 
ENDROOT
BRANCH   5   8
HETATM    8  N   UNL     1      -9.271   2.029  68.585  1.00  0.00    -0.151 NA 
HETATM    9  H   UNL     1      -9.670   1.093  68.532  1.00  0.00     0.000 HD 
BRANCH   8  10
HETATM   10  C   UNL     1      -8.781   2.399  69.845  1.00  0.00    -0.067 A  
HETATM   11  C   UNL     1      -7.545   3.017  69.991  1.00  0.00    -0.044 A  
HETATM   12  C   UNL     1      -8.947   2.292  72.281  1.00  0.00    -0.110 A  
HETATM   13  C   UNL     1      -7.681   2.859  72.407  1.00  0.00    -0.054 A  
HETATM   14  C   UNL     1      -6.999   3.250  71.248  1.00  0.00    -0.032 A  
HETATM   15  C   UNL     1      -9.493   2.062  71.007  1.00  0.00    -0.209 A  
BRANCH  13  16
HETATM   16  O   UNL     1      -7.158   2.978  73.676  1.00  0.00    -0.038 OA 
BRANCH  16  17
HETATM   17  C   UNL     1      -7.834   3.978  74.443  1.00  0.00    -0.086 C  
BRANCH  17  18
HETATM   18  C   UNL     1      -8.072   5.294  73.701  1.00  0.00    -0.110 C  
BRANCH  18  19
HETATM   19  N   UNL     1      -7.140   6.309  74.214  1.00  0.00    -0.086 NA 
HETATM   20  C   UNL     1      -7.503   7.689  73.864  1.00  0.00    -0.123 C  
HETATM   21  C   UNL     1      -5.768   6.118  73.762  1.00  0.00    -0.053 C  
HETATM   22  C   UNL     1      -6.198   8.470  73.906  1.00  0.00    -0.137 C  
HETATM   23  C   UNL     1      -5.126   7.428  74.185  1.00  0.00    -0.046 C  
ENDBRANCH  18  19
ENDBRANCH  17  18
ENDBRANCH  16  17
ENDBRANCH  13  16
ENDBRANCH   8  10
ENDBRANCH   5   8
BRANCH   6  24
HETATM   24  N   UNL     1     -10.168   6.046  66.115  1.00  0.00    -0.416 NA 
HETATM   25  H   UNL     1     -11.163   6.126  65.905  1.00  0.00     0.000 HD 
BRANCH  24  26
HETATM   26  C   UNL     1      -9.526   7.299  66.281  1.00  0.00    -0.073 A  
HETATM   27  C   UNL     1      -8.228   7.590  65.851  1.00  0.00    -0.134 A  
HETATM   28  C   UNL     1     -10.168   8.273  67.067  1.00  0.00    -0.380 A  
HETATM   29  C   UNL     1      -7.585   8.793  66.194  1.00  0.00    -0.094 A  
HETATM   30  C   UNL     1      -8.213   9.718  67.027  1.00  0.00    -0.117 A  
HETATM   31  C   UNL     1      -9.500   9.440  67.482  1.00  0.00    -0.127 A  
BRANCH  31  32
HETATM   32  S   UNL     1     -10.315  10.592  68.560  1.00  0.00    -0.192 S  
HETATM   33  O   UNL     1      -9.575  11.835  68.490  1.00  0.00    -0.200 OA 
HETATM   34  O   UNL     1     -11.731  10.559  68.269  1.00  0.00    -0.401 OA 
BRANCH  32  35
HETATM   35  N   UNL     1     -10.053  10.007  70.113  1.00  0.00    -0.361 N  
HETATM   36  C   UNL     1     -10.321   8.893  72.270  1.00  0.00    -0.204 C  
HETATM   37  C   UNL     1     -12.260  10.066  71.272  1.00  0.00    -0.498 C  
HETATM   38  C   UNL     1     -11.399   7.921  70.254  1.00  0.00    -0.158 C  
HETATM   39  C   UNL     1     -11.019   9.235  70.935  1.00  0.00    -0.299 C  
HETATM   40  H   UNL     1      -9.143  10.200  70.532  1.00  0.00     0.000 HD 
ENDBRANCH  32  35
ENDBRANCH  31  32
ENDBRANCH  24  26
ENDBRANCH   6  24
TORSDOF 10
ENDMDL
MODEL      254
REMARK 921   NORMALIZED FREE ENERGY PREDICTED BY IDOCK:   -3.59 KCAL/MOL
REMARK 922        TOTAL FREE ENERGY PREDICTED BY IDOCK:   -7.03 KCAL/MOL
REMARK 923 INTER-LIGAND FREE ENERGY PREDICTED BY IDOCK:   -5.59 KCAL/MOL
REMARK 924 INTRA-LIGAND FREE ENERGY PREDICTED BY IDOCK:   -1.45 KCAL/MOL
REMARK 927      BINDING AFFINITY PREDICTED BY RF-SCORE:    0.00 PKD
ROOT
HETATM    1  C   UNL     1      -5.936   3.080  67.676  1.00  0.00    -0.027 C  
HETATM    2  C   UNL     1      -6.086   4.518  67.296  1.00  0.00    -0.027 A  
HETATM    3  C   UNL     1      -6.630   4.829  66.062  1.00  0.00    -0.045 A  
HETATM    4  N   UNL     1      -6.817   6.076  65.610  1.00  0.00    -0.055 NA 
HETATM    5  C   UNL     1      -6.412   7.060  66.412  1.00  0.00    -0.051 A  
HETATM    6  C   UNL     1      -5.752   5.602  68.107  1.00  0.00    -0.012 A  
HETATM    7  N   UNL     1      -5.900   6.855  67.643  1.00  0.00    -0.020 NA 
ENDROOT
BRANCH   5   8
HETATM    8  N   UNL     1      -6.554   8.344  65.882  1.00  0.00    -0.053 NA 
HETATM    9  H   UNL     1      -5.748   8.690  65.361  1.00  0.00     0.000 HD 
BRANCH   8  10
HETATM   10  C   UNL     1      -7.639   9.227  65.960  1.00  0.00    -0.096 A  
HETATM   11  C   UNL     1      -7.774  10.122  67.014  1.00  0.00    -0.096 A  
HETATM   12  C   UNL     1      -9.839   9.933  65.161  1.00  0.00    -0.348 A  
HETATM   13  C   UNL     1      -9.981  10.780  66.257  1.00  0.00    -0.222 A  
HETATM   14  C   UNL     1      -8.921  10.892  67.165  1.00  0.00    -0.141 A  
HETATM   15  C   UNL     1      -8.675   9.159  65.015  1.00  0.00    -0.222 A  
BRANCH  13  16
HETATM   16  O   UNL     1     -11.179  11.446  66.397  1.00  0.00    -0.283 OA 
BRANCH  16  17
HETATM   17  C   UNL     1     -11.106  12.789  65.913  1.00  0.00    -0.287 C  
BRANCH  17  18
HETATM   18  C   UNL     1     -12.231  13.702  66.403  1.00  0.00    -0.423 C  
BRANCH  18  19
HETATM   19  N   UNL     1     -11.666  14.715  67.309  1.00  0.00    -0.392 NA 
HETATM   20  C   UNL     1     -10.367  15.247  66.879  1.00  0.00    -0.278 C  
HETATM   21  C   UNL     1     -11.483  14.235  68.672  1.00  0.00    -0.296 C  
HETATM   22  C   UNL     1      -9.694  15.740  68.152  1.00  0.00    -0.211 C  
HETATM   23  C   UNL     1     -10.643  15.348  69.274  1.00  0.00    -0.252 C  
ENDBRANCH  18  19
ENDBRANCH  17  18
ENDBRANCH  16  17
ENDBRANCH  13  16
ENDBRANCH   8  10
ENDBRANCH   5   8
BRANCH   6  24
HETATM   24  N   UNL     1      -5.159   5.362  69.375  1.00  0.00    -0.003 NA 
HETATM   25  H   UNL     1      -4.187   5.058  69.317  1.00  0.00     0.000 HD 
BRANCH  24  26
HETATM   26  C   UNL     1      -5.640   5.459  70.704  1.00  0.00    -0.008 A  
HETATM   27  C   UNL     1      -5.376   4.531  71.716  1.00  0.00    -0.004 A  
HETATM   28  C   UNL     1      -6.575   6.469  70.998  1.00  0.00    -0.053 A  
HETATM   29  C   UNL     1      -6.020   4.592  72.965  1.00  0.00    -0.013 A  
HETATM   30  C   UNL     1      -6.990   5.560  73.214  1.00  0.00    -0.084 A  
HETATM   31  C   UNL     1      -7.283   6.485  72.214  1.00  0.00    -0.086 A  
BRANCH  31  32
HETATM   32  S   UNL     1      -8.529   7.718  72.498  1.00  0.00    -0.145 S  
HETATM   33  O   UNL     1      -8.249   8.314  73.788  1.00  0.00    -0.226 OA 
HETATM   34  O   UNL     1      -8.632   8.538  71.312  1.00  0.00    -0.143 OA 
BRANCH  32  35
HETATM   35  N   UNL     1      -9.959   6.861  72.708  1.00  0.00    -0.167 N  
HETATM   36  C   UNL     1     -12.002   5.584  72.307  1.00  0.00     0.037 C  
HETATM   37  C   UNL     1     -11.416   7.433  70.766  1.00  0.00    -0.313 C  
HETATM   38  C   UNL     1     -10.065   5.298  70.777  1.00  0.00    -0.294 C  
HETATM   39  C   UNL     1     -10.821   6.316  71.630  1.00  0.00    -0.251 C  
HETATM   40  H   UNL     1     -10.265   6.701  73.668  1.00  0.00     0.000 HD 
ENDBRANCH  32  35
ENDBRANCH  31  32
ENDBRANCH  24  26
ENDBRANCH   6  24
TORSDOF 10
ENDMDL
MODEL      255
REMARK 921   NORMALIZED FREE ENERGY PREDICTED BY IDOCK:   -3.45 KCAL/MOL
REMARK 922        TOTAL FREE ENERGY PREDICTED BY IDOCK:   -6.81 KCAL/MOL
REMARK 923 INTER-LIGAND FREE ENERGY PREDICTED BY IDOCK:   -7.17 KCAL/MOL
REMARK 924 INTRA-LIGAND FREE ENERGY PREDICTED BY IDOCK:    0.35 KCAL/MOL
REMARK 927      BINDING AFFINITY PREDICTED BY RF-SCORE:    0.00 PKD
ROOT
HETATM    1  C   UNL     1     -10.715   7.282  67.064  1.00  0.00    -0.406 C  
HETATM    2  C   UNL     1     -10.650   8.601  67.764  1.00  0.00    -0.249 A  
HETATM    3  C   UNL     1     -10.648   9.759  67.006  1.00  0.00    -0.199 A  
HETATM    4  N   UNL     1     -10.595  10.996  67.515  1.00  0.00    -0.212 NA 
HETATM    5  C   UNL     1     -10.506  11.084  68.843  1.00  0.00    -0.204 A  
HETATM    6  C   UNL     1     -10.625   8.775  69.147  1.00  0.00    -0.184 A  
HETATM    7  N   UNL     1     -10.531  10.014  69.663  1.00  0.00    -0.230 NA 
ENDROOT
BRANCH   5   8
HETATM    8  N   UNL     1     -10.379  12.384  69.337  1.00  0.00    -0.273 NA 
HETATM    9  H   UNL     1     -10.563  12.489  70.335  1.00  0.00     0.000 HD 
BRANCH   8  10
HETATM   10  C   UNL     1     -10.036  13.565  68.665  1.00  0.00    -0.166 A  
HETATM   11  C   UNL     1     -10.863  14.681  68.688  1.00  0.00    -0.261 A  
HETATM   12  C   UNL     1      -8.604  14.736  67.068  1.00  0.00    -0.260 A  
HETATM   13  C   UNL     1      -9.476  15.822  67.060  1.00  0.00    -0.223 A  
HETATM   14  C   UNL     1     -10.592  15.796  67.904  1.00  0.00    -0.282 A  
HETATM   15  C   UNL     1      -8.884  13.613  67.865  1.00  0.00    -0.188 A  
BRANCH  13  16
HETATM   16  O   UNL     1      -9.199  16.857  66.193  1.00  0.00    -0.365 OA 
BRANCH  16  17
HETATM   17  C   UNL     1      -8.028  17.580  66.577  1.00  0.00    -0.274 C  
BRANCH  17  18
HETATM   18  C   UNL     1      -7.812  17.682  68.088  1.00  0.00    -0.257 C  
BRANCH  18  19
HETATM   19  N   UNL     1      -7.076  18.921  68.384  1.00  0.00    -0.259 NA 
HETATM   20  C   UNL     1      -7.692  20.132  67.827  1.00  0.00    -0.285 C  
HETATM   21  C   UNL     1      -5.698  18.904  67.910  1.00  0.00    -0.194 C  
HETATM   22  C   UNL     1      -6.552  21.131  67.681  1.00  0.00    -0.381 C  
HETATM   23  C   UNL     1      -5.303  20.361  68.081  1.00  0.00    -0.249 C  
ENDBRANCH  18  19
ENDBRANCH  17  18
ENDBRANCH  16  17
ENDBRANCH  13  16
ENDBRANCH   8  10
ENDBRANCH   5   8
BRANCH   6  24
HETATM   24  N   UNL     1     -10.592   7.633  69.990  1.00  0.00    -0.234 NA 
HETATM   25  H   UNL     1     -11.503   7.392  70.381  1.00  0.00     0.000 HD 
BRANCH  24  26
HETATM   26  C   UNL     1      -9.553   6.760  70.399  1.00  0.00    -0.169 A  
HETATM   27  C   UNL     1      -9.188   6.525  71.727  1.00  0.00    -0.149 A  
HETATM   28  C   UNL     1      -8.724   6.207  69.405  1.00  0.00    -0.123 A  
HETATM   29  C   UNL     1      -8.042   5.782  72.061  1.00  0.00    -0.112 A  
HETATM   30  C   UNL     1      -7.198   5.296  71.064  1.00  0.00    -0.069 A  
HETATM   31  C   UNL     1      -7.533   5.534  69.732  1.00  0.00    -0.070 A  
BRANCH  31  32
HETATM   32  S   UNL     1      -6.465   4.944  68.443  1.00  0.00    -0.038 S  
HETATM   33  O   UNL     1      -6.700   5.777  67.282  1.00  0.00    -0.057 OA 
HETATM   34  O   UNL     1      -5.134   4.797  68.989  1.00  0.00     0.000 OA 
BRANCH  32  35
HETATM   35  N   UNL     1      -7.066   3.430  68.029  1.00  0.00    -0.050 N  
HETATM   36  C   UNL     1      -8.348   1.622  67.004  1.00  0.00    -0.083 C  
HETATM   37  C   UNL     1      -9.503   3.732  67.593  1.00  0.00    -0.234 C  
HETATM   38  C   UNL     1      -7.852   3.666  65.682  1.00  0.00    -0.092 C  
HETATM   39  C   UNL     1      -8.178   3.155  67.085  1.00  0.00    -0.084 C  
HETATM   40  H   UNL     1      -6.624   2.622  68.469  1.00  0.00     0.000 HD 
ENDBRANCH  32  35
ENDBRANCH  31  32
ENDBRANCH  24  26
ENDBRANCH   6  24
TORSDOF 10
ENDMDL
MODEL      256
REMARK 921   NORMALIZED FREE ENERGY PREDICTED BY IDOCK:   -3.42 KCAL/MOL
REMARK 922        TOTAL FREE ENERGY PREDICTED BY IDOCK:   -6.76 KCAL/MOL
REMARK 923 INTER-LIGAND FREE ENERGY PREDICTED BY IDOCK:   -5.86 KCAL/MOL
REMARK 924 INTRA-LIGAND FREE ENERGY PREDICTED BY IDOCK:   -0.90 KCAL/MOL
REMARK 927      BINDING AFFINITY PREDICTED BY RF-SCORE:    0.00 PKD
ROOT
HETATM    1  C   UNL     1     -10.643   8.143  66.587  1.00  0.00    -0.076 C  
HETATM    2  C   UNL     1      -9.545   9.099  66.932  1.00  0.00    -0.233 A  
HETATM    3  C   UNL     1      -9.130  10.010  65.976  1.00  0.00    -0.155 A  
HETATM    4  N   UNL     1      -8.161  10.915  66.165  1.00  0.00    -0.167 NA 
HETATM    5  C   UNL     1      -7.555  10.889  67.352  1.00  0.00    -0.100 A  
HETATM    6  C   UNL     1      -8.912   9.180  68.171  1.00  0.00    -0.129 A  
HETATM    7  N   UNL     1      -7.911  10.060  68.353  1.00  0.00    -0.096 NA 
ENDROOT
BRANCH   5   8
HETATM    8  N   UNL     1      -6.501  11.796  67.491  1.00  0.00    -0.082 NA 
HETATM    9  H   UNL     1      -5.574  11.417  67.302  1.00  0.00     0.000 HD 
BRANCH   8  10
HETATM   10  C   UNL     1      -6.531  13.150  67.852  1.00  0.00    -0.138 A  
HETATM   11  C   UNL     1      -5.457  13.994  67.596  1.00  0.00     0.048 A  
HETATM   12  C   UNL     1      -7.599  14.979  69.072  1.00  0.00    -0.160 A  
HETATM   13  C   UNL     1      -6.488  15.791  68.856  1.00  0.00    -0.116 A  
HETATM   14  C   UNL     1      -5.431  15.295  68.084  1.00  0.00    -0.131 A  
HETATM   15  C   UNL     1      -7.619  13.665  68.574  1.00  0.00    -0.130 A  
BRANCH  13  16
HETATM   16  O   UNL     1      -6.485  17.038  69.443  1.00  0.00    -0.223 OA 
BRANCH  16  17
HETATM   17  C   UNL     1      -7.262  17.981  68.702  1.00  0.00    -0.273 C  
BRANCH  17  18
HETATM   18  C   UNL     1      -7.160  17.834  67.183  1.00  0.00    -0.177 C  
BRANCH  18  19
HETATM   19  N   UNL     1      -8.372  18.396  66.565  1.00  0.00    -0.269 NA 
HETATM   20  C   UNL     1      -8.522  19.845  66.748  1.00  0.00    -0.328 C  
HETATM   21  C   UNL     1      -9.604  17.789  67.051  1.00  0.00    -0.284 C  
HETATM   22  C   UNL     1     -10.016  20.111  66.629  1.00  0.00    -0.595 C  
HETATM   23  C   UNL     1     -10.649  18.737  66.485  1.00  0.00    -0.436 C  
ENDBRANCH  18  19
ENDBRANCH  17  18
ENDBRANCH  16  17
ENDBRANCH  13  16
ENDBRANCH   8  10
ENDBRANCH   5   8
BRANCH   6  24
HETATM   24  N   UNL     1      -9.262   8.256  69.191  1.00  0.00    -0.151 NA 
HETATM   25  H   UNL     1     -10.090   8.531  69.720  1.00  0.00     0.000 HD 
BRANCH  24  26
HETATM   26  C   UNL     1      -8.698   7.031  69.624  1.00  0.00    -0.141 A  
HETATM   27  C   UNL     1      -7.932   6.872  70.783  1.00  0.00    -0.106 A  
HETATM   28  C   UNL     1      -8.774   5.924  68.758  1.00  0.00    -0.109 A  
HETATM   29  C   UNL     1      -7.260   5.672  71.070  1.00  0.00    -0.076 A  
HETATM   30  C   UNL     1      -7.294   4.609  70.169  1.00  0.00    -0.050 A  
HETATM   31  C   UNL     1      -8.036   4.750  68.998  1.00  0.00    -0.078 A  
BRANCH  31  32
HETATM   32  S   UNL     1      -8.082   3.419  67.824  1.00  0.00    -0.080 S  
HETATM   33  O   UNL     1      -6.922   3.567  66.970  1.00  0.00    -0.052 OA 
HETATM   34  O   UNL     1      -8.315   2.188  68.546  1.00  0.00    -0.055 OA 
BRANCH  32  35
HETATM   35  N   UNL     1      -9.403   3.744  66.837  1.00  0.00    -0.181 N  
HETATM   36  C   UNL     1     -10.840   4.109  64.897  1.00  0.00    -0.096 C  
HETATM   37  C   UNL     1      -8.518   4.970  64.854  1.00  0.00    -0.147 C  
HETATM   38  C   UNL     1      -8.965   2.487  64.737  1.00  0.00    -0.125 C  
HETATM   39  C   UNL     1      -9.394   3.817  65.355  1.00  0.00    -0.159 C  
HETATM   40  H   UNL     1     -10.296   3.906  67.302  1.00  0.00     0.000 HD 
ENDBRANCH  32  35
ENDBRANCH  31  32
ENDBRANCH  24  26
ENDBRANCH   6  24
TORSDOF 10
ENDMDL
MODEL      257
REMARK 921   NORMALIZED FREE ENERGY PREDICTED BY IDOCK:   -3.41 KCAL/MOL
REMARK 922        TOTAL FREE ENERGY PREDICTED BY IDOCK:   -6.74 KCAL/MOL
REMARK 923 INTER-LIGAND FREE ENERGY PREDICTED BY IDOCK:   -6.08 KCAL/MOL
REMARK 924 INTRA-LIGAND FREE ENERGY PREDICTED BY IDOCK:   -0.66 KCAL/MOL
REMARK 927      BINDING AFFINITY PREDICTED BY RF-SCORE:    0.00 PKD
ROOT
HETATM    1  C   UNL     1     -10.453   8.594  66.827  1.00  0.00    -0.298 C  
HETATM    2  C   UNL     1      -9.365   9.491  67.322  1.00  0.00    -0.161 A  
HETATM    3  C   UNL     1      -9.061  10.631  66.599  1.00  0.00    -0.160 A  
HETATM    4  N   UNL     1      -8.111  11.512  66.939  1.00  0.00    -0.160 NA 
HETATM    5  C   UNL     1      -7.408  11.226  68.035  1.00  0.00    -0.092 A  
HETATM    6  C   UNL     1      -8.634   9.297  68.493  1.00  0.00    -0.128 A  
HETATM    7  N   UNL     1      -7.653  10.157  68.819  1.00  0.00    -0.085 NA 
ENDROOT
BRANCH   5   8
HETATM    8  N   UNL     1      -6.379  12.125  68.322  1.00  0.00    -0.051 NA 
HETATM    9  H   UNL     1      -5.463  11.703  68.474  1.00  0.00     0.000 HD 
BRANCH   8  10
HETATM   10  C   UNL     1      -6.418  13.522  68.431  1.00  0.00    -0.094 A  
HETATM   11  C   UNL     1      -5.382  14.317  67.957  1.00  0.00    -0.109 A  
HETATM   12  C   UNL     1      -7.452  15.531  69.363  1.00  0.00    -0.219 A  
HETATM   13  C   UNL     1      -6.376  16.303  68.932  1.00  0.00    -0.139 A  
HETATM   14  C   UNL     1      -5.357  15.687  68.196  1.00  0.00    -0.121 A  
HETATM   15  C   UNL     1      -7.472  14.148  69.116  1.00  0.00    -0.037 A  
BRANCH  13  16
HETATM   16  O   UNL     1      -6.367  17.636  69.280  1.00  0.00    -0.227 OA 
BRANCH  16  17
HETATM   17  C   UNL     1      -7.191  18.422  68.417  1.00  0.00    -0.268 C  
BRANCH  17  18
HETATM   18  C   UNL     1      -7.061  18.082  66.931  1.00  0.00    -0.189 C  
BRANCH  18  19
HETATM   19  N   UNL     1      -8.315  18.435  66.247  1.00  0.00    -0.426 NA 
HETATM   20  C   UNL     1      -8.529  19.879  66.095  1.00  0.00    -0.319 C  
HETATM   21  C   UNL     1      -9.502  17.909  66.907  1.00  0.00    -0.279 C  
HETATM   22  C   UNL     1     -10.037  20.050  65.975  1.00  0.00    -0.559 C  
HETATM   23  C   UNL     1     -10.607  18.655  66.178  1.00  0.00    -0.409 C  
ENDBRANCH  18  19
ENDBRANCH  17  18
ENDBRANCH  16  17
ENDBRANCH  13  16
ENDBRANCH   8  10
ENDBRANCH   5   8
BRANCH   6  24
HETATM   24  N   UNL     1      -8.868   8.132  69.271  1.00  0.00    -0.143 NA 
HETATM   25  H   UNL     1      -9.698   8.198  69.860  1.00  0.00     0.000 HD 
BRANCH  24  26
HETATM   26  C   UNL     1      -8.184   6.897  69.397  1.00  0.00    -0.131 A  
HETATM   27  C   UNL     1      -7.940   6.011  68.343  1.00  0.00    -0.107 A  
HETATM   28  C   UNL     1      -7.861   6.448  70.691  1.00  0.00    -0.107 A  
HETATM   29  C   UNL     1      -7.409   4.728  68.561  1.00  0.00    -0.065 A  
HETATM   30  C   UNL     1      -7.156   4.277  69.855  1.00  0.00    -0.042 A  
HETATM   31  C   UNL     1      -7.409   5.137  70.923  1.00  0.00    -0.073 A  
BRANCH  31  32
HETATM   32  S   UNL     1      -7.113   4.581  72.583  1.00  0.00    -0.073 S  
HETATM   33  O   UNL     1      -6.653   3.211  72.496  1.00  0.00    -0.017 OA 
HETATM   34  O   UNL     1      -6.323   5.584  73.262  1.00  0.00    -0.057 OA 
BRANCH  32  35
HETATM   35  N   UNL     1      -8.632   4.493  73.297  1.00  0.00    -0.101 N  
HETATM   36  C   UNL     1     -10.785   3.691  74.125  1.00  0.00    -0.256 C  
HETATM   37  C   UNL     1      -9.961   2.881  71.934  1.00  0.00    -0.213 C  
HETATM   38  C   UNL     1      -8.844   2.141  74.076  1.00  0.00    -0.065 C  
HETATM   39  C   UNL     1      -9.514   3.300  73.339  1.00  0.00    -0.099 C  
HETATM   40  H   UNL     1      -8.981   5.340  73.745  1.00  0.00     0.000 HD 
ENDBRANCH  32  35
ENDBRANCH  31  32
ENDBRANCH  24  26
ENDBRANCH   6  24
TORSDOF 10
ENDMDL
MODEL      258
REMARK 921   NORMALIZED FREE ENERGY PREDICTED BY IDOCK:   -3.35 KCAL/MOL
REMARK 922        TOTAL FREE ENERGY PREDICTED BY IDOCK:   -6.66 KCAL/MOL
REMARK 923 INTER-LIGAND FREE ENERGY PREDICTED BY IDOCK:   -5.09 KCAL/MOL
REMARK 924 INTRA-LIGAND FREE ENERGY PREDICTED BY IDOCK:   -1.57 KCAL/MOL
REMARK 927      BINDING AFFINITY PREDICTED BY RF-SCORE:    0.00 PKD
ROOT
HETATM    1  C   UNL     1     -10.070  17.414  68.417  1.00  0.00    -0.347 C  
HETATM    2  C   UNL     1      -8.852  16.546  68.449  1.00  0.00    -0.218 A  
HETATM    3  C   UNL     1      -8.231  16.313  69.663  1.00  0.00     0.307 A  
HETATM    4  N   UNL     1      -7.139  15.555  69.821  1.00  0.00    -0.160 NA 
HETATM    5  C   UNL     1      -6.620  15.031  68.710  1.00  0.00    -0.094 A  
HETATM    6  C   UNL     1      -8.292  15.909  67.343  1.00  0.00    -0.171 A  
HETATM    7  N   UNL     1      -7.172  15.179  67.489  1.00  0.00    -0.186 NA 
ENDROOT
BRANCH   5   8
HETATM    8  N   UNL     1      -5.441  14.307  68.899  1.00  0.00    -0.084 NA 
HETATM    9  H   UNL     1      -4.580  14.845  68.802  1.00  0.00     0.000 HD 
BRANCH   8  10
HETATM   10  C   UNL     1      -5.266  12.950  69.202  1.00  0.00    -0.069 A  
HETATM   11  C   UNL     1      -5.274  11.977  68.210  1.00  0.00    -0.048 A  
HETATM   12  C   UNL     1      -5.149  11.164  70.867  1.00  0.00    -0.110 A  
HETATM   13  C   UNL     1      -5.217  10.203  69.862  1.00  0.00    -0.038 A  
HETATM   14  C   UNL     1      -5.246  10.623  68.527  1.00  0.00    -0.037 A  
HETATM   15  C   UNL     1      -5.176  12.530  70.539  1.00  0.00    -0.129 A  
BRANCH  13  16
HETATM   16  O   UNL     1      -5.279   8.880  70.246  1.00  0.00    -0.027 OA 
BRANCH  16  17
HETATM   17  C   UNL     1      -6.604   8.355  70.150  1.00  0.00    -0.039 C  
BRANCH  17  18
HETATM   18  C   UNL     1      -6.754   6.916  70.643  1.00  0.00    -0.053 C  
BRANCH  18  19
HETATM   19  N   UNL     1      -7.444   6.124  69.612  1.00  0.00    -0.079 NA 
HETATM   20  C   UNL     1      -8.356   6.905  68.767  1.00  0.00    -0.121 C  
HETATM   21  C   UNL     1      -8.227   5.022  70.155  1.00  0.00    -0.081 C  
HETATM   22  C   UNL     1      -9.378   5.904  68.247  1.00  0.00    -0.118 C  
HETATM   23  C   UNL     1      -9.029   4.594  68.937  1.00  0.00    -0.145 C  
ENDBRANCH  18  19
ENDBRANCH  17  18
ENDBRANCH  16  17
ENDBRANCH  13  16
ENDBRANCH   8  10
ENDBRANCH   5   8
BRANCH   6  24
HETATM   24  N   UNL     1      -8.854  16.127  66.058  1.00  0.00    -0.348 NA 
HETATM   25  H   UNL     1      -8.418  16.896  65.549  1.00  0.00     0.000 HD 
BRANCH  24  26
HETATM   26  C   UNL     1      -9.897  15.495  65.336  1.00  0.00    -0.256 A  
HETATM   27  C   UNL     1     -11.083  16.120  64.938  1.00  0.00    -0.336 A  
HETATM   28  C   UNL     1      -9.816  14.104  65.136  1.00  0.00    -0.140 A  
HETATM   29  C   UNL     1     -12.150  15.398  64.376  1.00  0.00    -0.205 A  
HETATM   30  C   UNL     1     -12.076  14.013  64.245  1.00  0.00    -0.476 A  
HETATM   31  C   UNL     1     -10.911  13.365  64.651  1.00  0.00    -0.392 A  
BRANCH  31  32
HETATM   32  S   UNL     1     -10.797  11.599  64.514  1.00  0.00    -0.323 S  
HETATM   33  O   UNL     1     -11.999  11.049  65.106  1.00  0.00     0.544 OA 
HETATM   34  O   UNL     1     -10.429  11.274  63.154  1.00  0.00    -0.333 OA 
BRANCH  32  35
HETATM   35  N   UNL     1      -9.550  11.154  65.549  1.00  0.00    -0.217 N  
HETATM   36  C   UNL     1      -8.082   9.888  67.034  1.00  0.00    -0.110 C  
HETATM   37  C   UNL     1     -10.530   9.547  67.185  1.00  0.00    -0.322 C  
HETATM   38  C   UNL     1      -9.243   8.714  65.177  1.00  0.00     0.046 C  
HETATM   39  C   UNL     1      -9.386   9.834  66.207  1.00  0.00    -0.180 C  
HETATM   40  H   UNL     1      -8.838  11.857  65.743  1.00  0.00     0.000 HD 
ENDBRANCH  32  35
ENDBRANCH  31  32
ENDBRANCH  24  26
ENDBRANCH   6  24
TORSDOF 10
ENDMDL
MODEL      259
REMARK 921   NORMALIZED FREE ENERGY PREDICTED BY IDOCK:   -3.34 KCAL/MOL
REMARK 922        TOTAL FREE ENERGY PREDICTED BY IDOCK:   -6.65 KCAL/MOL
REMARK 923 INTER-LIGAND FREE ENERGY PREDICTED BY IDOCK:   -8.06 KCAL/MOL
REMARK 924 INTRA-LIGAND FREE ENERGY PREDICTED BY IDOCK:    1.42 KCAL/MOL
REMARK 927      BINDING AFFINITY PREDICTED BY RF-SCORE:    0.00 PKD
ROOT
HETATM    1  C   UNL     1     -12.636  15.281  70.907  1.00  0.00    -0.471 C  
HETATM    2  C   UNL     1     -12.498  13.861  70.459  1.00  0.00    -0.422 A  
HETATM    3  C   UNL     1     -12.431  12.864  71.417  1.00  0.00    -0.132 A  
HETATM    4  N   UNL     1     -12.309  11.559  71.142  1.00  0.00    -0.322 NA 
HETATM    5  C   UNL     1     -12.216  11.234  69.852  1.00  0.00    -0.288 A  
HETATM    6  C   UNL     1     -12.464  13.438  69.132  1.00  0.00     0.197 A  
HETATM    7  N   UNL     1     -12.302  12.132  68.851  1.00  0.00    -0.041 NA 
ENDROOT
BRANCH   5   8
HETATM    8  N   UNL     1     -12.017   9.874  69.603  1.00  0.00    -0.461 NA 
HETATM    9  H   UNL     1     -12.415   9.530  68.729  1.00  0.00     0.000 HD 
BRANCH   8  10
HETATM   10  C   UNL     1     -11.351   8.914  70.376  1.00  0.00    -0.202 A  
HETATM   11  C   UNL     1     -10.645   7.871  69.789  1.00  0.00    -0.242 A  
HETATM   12  C   UNL     1     -10.926   7.892  72.555  1.00  0.00    -0.412 A  
HETATM   13  C   UNL     1     -10.274   6.825  71.944  1.00  0.00    -0.189 A  
HETATM   14  C   UNL     1     -10.109   6.841  70.554  1.00  0.00    -0.201 A  
HETATM   15  C   UNL     1     -11.464   8.930  71.775  1.00  0.00    -0.423 A  
BRANCH  13  16
HETATM   16  O   UNL     1      -9.847   5.792  72.750  1.00  0.00    -0.159 OA 
BRANCH  16  17
HETATM   17  C   UNL     1      -9.801   4.547  72.048  1.00  0.00    -0.178 C  
BRANCH  17  18
HETATM   18  C   UNL     1      -8.393   3.995  71.825  1.00  0.00    -0.094 C  
BRANCH  18  19
HETATM   19  N   UNL     1      -8.238   3.634  70.407  1.00  0.00    -0.056 NA 
HETATM   20  C   UNL     1      -9.508   3.482  69.685  1.00  0.00    -0.165 C  
HETATM   21  C   UNL     1      -7.498   2.396  70.202  1.00  0.00    -0.043 C  
HETATM   22  C   UNL     1      -9.200   2.548  68.523  1.00  0.00    -0.250 C  
HETATM   23  C   UNL     1      -7.751   2.135  68.727  1.00  0.00    -0.047 C  
ENDBRANCH  18  19
ENDBRANCH  17  18
ENDBRANCH  16  17
ENDBRANCH  13  16
ENDBRANCH   8  10
ENDBRANCH   5   8
BRANCH   6  24
HETATM   24  N   UNL     1     -12.495  14.406  68.094  1.00  0.00    -0.525 NA 
HETATM   25  H   UNL     1     -13.401  14.864  67.994  1.00  0.00     0.000 HD 
BRANCH  24  26
HETATM   26  C   UNL     1     -11.526  14.866  67.168  1.00  0.00    -0.335 A  
HETATM   27  C   UNL     1     -11.557  14.616  65.792  1.00  0.00    -0.328 A  
HETATM   28  C   UNL     1     -10.367  15.483  67.674  1.00  0.00    -0.269 A  
HETATM   29  C   UNL     1     -10.481  14.953  64.953  1.00  0.00    -0.389 A  
HETATM   30  C   UNL     1      -9.316  15.505  65.483  1.00  0.00    -0.062 A  
HETATM   31  C   UNL     1      -9.255  15.746  66.854  1.00  0.00    -0.229 A  
BRANCH  31  32
HETATM   32  S   UNL     1      -7.776  16.431  67.557  1.00  0.00    -0.152 S  
HETATM   33  O   UNL     1      -7.471  15.655  68.742  1.00  0.00    -0.133 OA 
HETATM   34  O   UNL     1      -6.800  16.581  66.501  1.00  0.00    -0.192 OA 
BRANCH  32  35
HETATM   35  N   UNL     1      -8.218  17.949  68.125  1.00  0.00    -0.261 N  
HETATM   36  C   UNL     1      -9.479  19.828  69.044  1.00  0.00    -0.261 C  
HETATM   37  C   UNL     1     -10.596  18.289  67.457  1.00  0.00    -0.432 C  
HETATM   38  C   UNL     1     -10.013  17.519  69.791  1.00  0.00     0.442 C  
HETATM   39  C   UNL     1      -9.568  18.353  68.591  1.00  0.00    -0.340 C  
HETATM   40  H   UNL     1      -7.488  18.662  68.153  1.00  0.00     0.000 HD 
ENDBRANCH  32  35
ENDBRANCH  31  32
ENDBRANCH  24  26
ENDBRANCH   6  24
TORSDOF 10
ENDMDL
MODEL      260
REMARK 921   NORMALIZED FREE ENERGY PREDICTED BY IDOCK:   -3.33 KCAL/MOL
REMARK 922        TOTAL FREE ENERGY PREDICTED BY IDOCK:   -6.63 KCAL/MOL
REMARK 923 INTER-LIGAND FREE ENERGY PREDICTED BY IDOCK:   -5.23 KCAL/MOL
REMARK 924 INTRA-LIGAND FREE ENERGY PREDICTED BY IDOCK:   -1.40 KCAL/MOL
REMARK 927      BINDING AFFINITY PREDICTED BY RF-SCORE:    0.00 PKD
ROOT
HETATM    1  C   UNL     1      -7.681   5.383  72.920  1.00  0.00    -0.098 C  
HETATM    2  C   UNL     1      -7.488   6.683  72.207  1.00  0.00    -0.094 A  
HETATM    3  C   UNL     1      -6.930   7.745  72.896  1.00  0.00    -0.077 A  
HETATM    4  N   UNL     1      -6.706   8.955  72.369  1.00  0.00    -0.296 NA 
HETATM    5  C   UNL     1      -7.087   9.125  71.102  1.00  0.00    -0.075 A  
HETATM    6  C   UNL     1      -7.796   6.916  70.868  1.00  0.00    -0.097 A  
HETATM    7  N   UNL     1      -7.610   8.141  70.343  1.00  0.00    -0.074 NA 
ENDROOT
BRANCH   5   8
HETATM    8  N   UNL     1      -6.906  10.417  70.604  1.00  0.00    -0.410 NA 
HETATM    9  H   UNL     1      -6.389  11.050  71.214  1.00  0.00     0.000 HD 
BRANCH   8  10
HETATM   10  C   UNL     1      -7.331  10.973  69.390  1.00  0.00    -0.092 A  
HETATM   11  C   UNL     1      -8.656  11.338  69.182  1.00  0.00     0.106 A  
HETATM   12  C   UNL     1      -6.883  11.501  67.046  1.00  0.00    -0.147 A  
HETATM   13  C   UNL     1      -8.226  11.805  66.842  1.00  0.00    -0.166 A  
HETATM   14  C   UNL     1      -9.103  11.751  67.932  1.00  0.00    -0.181 A  
HETATM   15  C   UNL     1      -6.438  11.085  68.313  1.00  0.00    -0.057 A  
BRANCH  13  16
HETATM   16  O   UNL     1      -8.622  12.120  65.560  1.00  0.00     0.420 OA 
BRANCH  16  17
HETATM   17  C   UNL     1     -10.045  12.126  65.424  1.00  0.00    -0.255 C  
BRANCH  17  18
HETATM   18  C   UNL     1     -10.583  13.155  64.430  1.00  0.00    -0.421 C  
BRANCH  18  19
HETATM   19  N   UNL     1     -10.890  14.402  65.150  1.00  0.00    -0.361 NA 
HETATM   20  C   UNL     1     -11.510  15.439  64.315  1.00  0.00    -0.171 C  
HETATM   21  C   UNL     1      -9.723  15.015  65.769  1.00  0.00    -0.340 C  
HETATM   22  C   UNL     1     -11.176  16.757  65.000  1.00  0.00     0.032 C  
HETATM   23  C   UNL     1     -10.271  16.377  66.160  1.00  0.00    -0.363 C  
ENDBRANCH  18  19
ENDBRANCH  17  18
ENDBRANCH  16  17
ENDBRANCH  13  16
ENDBRANCH   8  10
ENDBRANCH   5   8
BRANCH   6  24
HETATM   24  N   UNL     1      -8.401   5.884  70.104  1.00  0.00    -0.117 NA 
HETATM   25  H   UNL     1      -8.333   4.964  70.540  1.00  0.00     0.000 HD 
BRANCH  24  26
HETATM   26  C   UNL     1      -9.082   5.869  68.862  1.00  0.00    -0.120 A  
HETATM   27  C   UNL     1     -10.472   5.924  68.714  1.00  0.00    -0.314 A  
HETATM   28  C   UNL     1      -8.330   5.624  67.698  1.00  0.00    -0.100 A  
HETATM   29  C   UNL     1     -11.093   5.734  67.468  1.00  0.00     0.040 A  
HETATM   30  C   UNL     1     -10.336   5.430  66.338  1.00  0.00    -0.298 A  
HETATM   31  C   UNL     1      -8.951   5.351  66.465  1.00  0.00    -0.120 A  
BRANCH  31  32
HETATM   32  S   UNL     1      -7.963   4.945  65.046  1.00  0.00    -0.103 S  
HETATM   33  O   UNL     1      -6.578   5.135  65.425  1.00  0.00    -0.039 OA 
HETATM   34  O   UNL     1      -8.420   3.676  64.526  1.00  0.00    -0.096 OA 
BRANCH  32  35
HETATM   35  N   UNL     1      -8.284   6.154  63.923  1.00  0.00    -0.282 N  
HETATM   36  C   UNL     1      -8.254   8.247  62.666  1.00  0.00    -0.154 C  
HETATM   37  C   UNL     1      -8.051   8.322  65.133  1.00  0.00    -0.142 C  
HETATM   38  C   UNL     1      -6.159   7.427  63.719  1.00  0.00    -0.048 C  
HETATM   39  C   UNL     1      -7.675   7.507  63.892  1.00  0.00    -0.125 C  
HETATM   40  H   UNL     1      -8.963   5.937  63.193  1.00  0.00     0.000 HD 
ENDBRANCH  32  35
ENDBRANCH  31  32
ENDBRANCH  24  26
ENDBRANCH   6  24
TORSDOF 10
ENDMDL
MODEL      261
REMARK 921   NORMALIZED FREE ENERGY PREDICTED BY IDOCK:   -3.31 KCAL/MOL
REMARK 922        TOTAL FREE ENERGY PREDICTED BY IDOCK:   -6.59 KCAL/MOL
REMARK 923 INTER-LIGAND FREE ENERGY PREDICTED BY IDOCK:   -6.29 KCAL/MOL
REMARK 924 INTRA-LIGAND FREE ENERGY PREDICTED BY IDOCK:   -0.30 KCAL/MOL
REMARK 927      BINDING AFFINITY PREDICTED BY RF-SCORE:    0.00 PKD
ROOT
HETATM    1  C   UNL     1     -12.200  15.046  68.941  1.00  0.00    -0.136 C  
HETATM    2  C   UNL     1     -11.049  14.214  68.475  1.00  0.00    -0.276 A  
HETATM    3  C   UNL     1     -11.307  13.067  67.744  1.00  0.00    -0.292 A  
HETATM    4  N   UNL     1     -10.364  12.243  67.270  1.00  0.00    -0.213 NA 
HETATM    5  C   UNL     1      -9.103  12.558  67.568  1.00  0.00    -0.187 A  
HETATM    6  C   UNL     1      -9.704  14.514  68.686  1.00  0.00    -0.221 A  
HETATM    7  N   UNL     1      -8.754  13.669  68.247  1.00  0.00    -0.171 NA 
ENDROOT
BRANCH   5   8
HETATM    8  N   UNL     1      -8.149  11.641  67.123  1.00  0.00    -0.159 NA 
HETATM    9  H   UNL     1      -7.197  12.001  67.058  1.00  0.00     0.000 HD 
BRANCH   8  10
HETATM   10  C   UNL     1      -8.307  10.298  66.752  1.00  0.00    -0.124 A  
HETATM   11  C   UNL     1      -8.713   9.941  65.473  1.00  0.00    -0.170 A  
HETATM   12  C   UNL     1      -8.448   7.943  67.389  1.00  0.00    -0.122 A  
HETATM   13  C   UNL     1      -8.911   7.612  66.118  1.00  0.00    -0.164 A  
HETATM   14  C   UNL     1      -9.009   8.621  65.152  1.00  0.00    -0.111 A  
HETATM   15  C   UNL     1      -8.150   9.280  67.705  1.00  0.00    -0.104 A  
BRANCH  13  16
HETATM   16  O   UNL     1      -9.273   6.302  65.892  1.00  0.00    -0.127 OA 
BRANCH  16  17
HETATM   17  C   UNL     1      -8.181   5.520  65.402  1.00  0.00    -0.133 C  
BRANCH  17  18
HETATM   18  C   UNL     1      -8.303   4.020  65.671  1.00  0.00    -0.109 C  
BRANCH  18  19
HETATM   19  N   UNL     1      -7.052   3.357  65.270  1.00  0.00    -0.064 NA 
HETATM   20  C   UNL     1      -6.021   4.275  64.768  1.00  0.00    -0.022 C  
HETATM   21  C   UNL     1      -7.238   2.345  64.238  1.00  0.00    -0.057 C  
HETATM   22  C   UNL     1      -5.134   3.429  63.867  1.00  0.00    -0.008 C  
HETATM   23  C   UNL     1      -5.802   2.063  63.831  1.00  0.00    -0.009 C  
ENDBRANCH  18  19
ENDBRANCH  17  18
ENDBRANCH  16  17
ENDBRANCH  13  16
ENDBRANCH   8  10
ENDBRANCH   5   8
BRANCH   6  24
HETATM   24  N   UNL     1      -9.361  15.657  69.455  1.00  0.00    -0.274 NA 
HETATM   25  H   UNL     1      -9.160  15.443  70.433  1.00  0.00     0.000 HD 
BRANCH  24  26
HETATM   26  C   UNL     1      -9.239  17.034  69.145  1.00  0.00    -0.073 A  
HETATM   27  C   UNL     1     -10.301  17.863  68.774  1.00  0.00    -0.311 A  
HETATM   28  C   UNL     1      -7.945  17.579  69.047  1.00  0.00    -0.094 A  
HETATM   29  C   UNL     1     -10.093  19.176  68.314  1.00  0.00    -0.499 A  
HETATM   30  C   UNL     1      -8.801  19.675  68.163  1.00  0.00    -0.370 A  
HETATM   31  C   UNL     1      -7.725  18.860  68.509  1.00  0.00    -0.331 A  
BRANCH  31  32
HETATM   32  S   UNL     1      -6.068  19.465  68.309  1.00  0.00    -0.225 S  
HETATM   33  O   UNL     1      -5.982  20.716  69.034  1.00  0.00    -0.340 OA 
HETATM   34  O   UNL     1      -5.153  18.381  68.594  1.00  0.00    -0.170 OA 
BRANCH  32  35
HETATM   35  N   UNL     1      -5.943  19.884  66.686  1.00  0.00    -0.171 N  
HETATM   36  C   UNL     1      -5.967  19.822  64.245  1.00  0.00    -0.303 C  
HETATM   37  C   UNL     1      -5.135  17.850  65.491  1.00  0.00    -0.184 C  
HETATM   38  C   UNL     1      -7.592  18.437  65.516  1.00  0.00     0.276 C  
HETATM   39  C   UNL     1      -6.165  18.984  65.528  1.00  0.00    -0.245 C  
HETATM   40  H   UNL     1      -5.690  20.850  66.478  1.00  0.00     0.000 HD 
ENDBRANCH  32  35
ENDBRANCH  31  32
ENDBRANCH  24  26
ENDBRANCH   6  24
TORSDOF 10
ENDMDL
MODEL      262
REMARK 921   NORMALIZED FREE ENERGY PREDICTED BY IDOCK:   -3.29 KCAL/MOL
REMARK 922        TOTAL FREE ENERGY PREDICTED BY IDOCK:   -6.56 KCAL/MOL
REMARK 923 INTER-LIGAND FREE ENERGY PREDICTED BY IDOCK:   -7.09 KCAL/MOL
REMARK 924 INTRA-LIGAND FREE ENERGY PREDICTED BY IDOCK:    0.53 KCAL/MOL
REMARK 927      BINDING AFFINITY PREDICTED BY RF-SCORE:    0.00 PKD
ROOT
HETATM    1  C   UNL     1     -12.636  15.280  70.904  1.00  0.00    -0.471 C  
HETATM    2  C   UNL     1     -12.404  13.872  70.457  1.00  0.00    -0.439 A  
HETATM    3  C   UNL     1     -12.287  12.880  71.415  1.00  0.00     0.018 A  
HETATM    4  N   UNL     1     -12.081  11.585  71.142  1.00  0.00    -0.174 NA 
HETATM    5  C   UNL     1     -11.953  11.268  69.853  1.00  0.00    -0.365 A  
HETATM    6  C   UNL     1     -12.328  13.453  69.130  1.00  0.00    -0.009 A  
HETATM    7  N   UNL     1     -12.081  12.161  68.851  1.00  0.00    -0.219 NA 
ENDROOT
BRANCH   5   8
HETATM    8  N   UNL     1     -11.666   9.924  69.606  1.00  0.00    -0.456 NA 
HETATM    9  H   UNL     1     -12.441   9.279  69.761  1.00  0.00     0.000 HD 
BRANCH   8  10
HETATM   10  C   UNL     1     -10.472   9.331  69.175  1.00  0.00    -0.217 A  
HETATM   11  C   UNL     1     -10.472   8.216  68.346  1.00  0.00    -0.205 A  
HETATM   12  C   UNL     1      -8.043   9.122  69.352  1.00  0.00    -0.102 A  
HETATM   13  C   UNL     1      -8.070   7.972  68.567  1.00  0.00    -0.125 A  
HETATM   14  C   UNL     1      -9.294   7.544  68.039  1.00  0.00    -0.142 A  
HETATM   15  C   UNL     1      -9.238   9.796  69.656  1.00  0.00    -0.239 A  
BRANCH  13  16
HETATM   16  O   UNL     1      -6.882   7.301  68.376  1.00  0.00    -0.067 OA 
BRANCH  16  17
HETATM   17  C   UNL     1      -6.990   6.294  67.368  1.00  0.00    -0.068 C  
BRANCH  17  18
HETATM   18  C   UNL     1      -6.190   6.579  66.097  1.00  0.00    -0.038 C  
BRANCH  18  19
HETATM   19  N   UNL     1      -7.065   6.393  64.928  1.00  0.00    -0.058 NA 
HETATM   20  C   UNL     1      -8.274   5.606  65.203  1.00  0.00    -0.136 C  
HETATM   21  C   UNL     1      -6.400   5.746  63.805  1.00  0.00    -0.025 C  
HETATM   22  C   UNL     1      -8.680   5.012  63.862  1.00  0.00    -0.079 C  
HETATM   23  C   UNL     1      -7.579   5.429  62.900  1.00  0.00    -0.067 C  
ENDBRANCH  18  19
ENDBRANCH  17  18
ENDBRANCH  16  17
ENDBRANCH  13  16
ENDBRANCH   8  10
ENDBRANCH   5   8
BRANCH   6  24
HETATM   24  N   UNL     1     -12.407  14.418  68.092  1.00  0.00    -0.590 NA 
HETATM   25  H   UNL     1     -13.338  14.821  67.982  1.00  0.00     0.000 HD 
BRANCH  24  26
HETATM   26  C   UNL     1     -11.457  14.938  67.177  1.00  0.00    -0.335 A  
HETATM   27  C   UNL     1     -11.451  14.680  65.803  1.00  0.00    -0.338 A  
HETATM   28  C   UNL     1     -10.350  15.634  67.697  1.00  0.00    -0.275 A  
HETATM   29  C   UNL     1     -10.387  15.084  64.977  1.00  0.00    -0.390 A  
HETATM   30  C   UNL     1      -9.270  15.715  65.520  1.00  0.00     0.077 A  
HETATM   31  C   UNL     1      -9.246  15.967  66.891  1.00  0.00    -0.224 A  
BRANCH  31  32
HETATM   32  S   UNL     1      -7.827  16.753  67.611  1.00  0.00    -0.179 S  
HETATM   33  O   UNL     1      -7.499  16.017  68.814  1.00  0.00    -0.153 OA 
HETATM   34  O   UNL     1      -6.840  16.947  66.572  1.00  0.00    -0.222 OA 
BRANCH  32  35
HETATM   35  N   UNL     1      -8.373  18.251  68.145  1.00  0.00    -0.276 N  
HETATM   36  C   UNL     1      -9.769  20.063  69.001  1.00  0.00    -0.195 C  
HETATM   37  C   UNL     1     -10.748  18.440  67.407  1.00  0.00    -0.397 C  
HETATM   38  C   UNL     1     -10.186  17.736  69.767  1.00  0.00     0.458 C  
HETATM   39  C   UNL     1      -9.757  18.580  68.567  1.00  0.00    -0.367 C  
HETATM   40  H   UNL     1      -7.688  19.005  68.182  1.00  0.00     0.000 HD 
ENDBRANCH  32  35
ENDBRANCH  31  32
ENDBRANCH  24  26
ENDBRANCH   6  24
TORSDOF 10
ENDMDL
MODEL      263
REMARK 921   NORMALIZED FREE ENERGY PREDICTED BY IDOCK:   -3.25 KCAL/MOL
REMARK 922        TOTAL FREE ENERGY PREDICTED BY IDOCK:   -6.50 KCAL/MOL
REMARK 923 INTER-LIGAND FREE ENERGY PREDICTED BY IDOCK:   -6.06 KCAL/MOL
REMARK 924 INTRA-LIGAND FREE ENERGY PREDICTED BY IDOCK:   -0.44 KCAL/MOL
REMARK 927      BINDING AFFINITY PREDICTED BY RF-SCORE:    0.00 PKD
ROOT
HETATM    1  C   UNL     1      -5.252  10.229  73.160  1.00  0.00     0.232 C  
HETATM    2  C   UNL     1      -5.318  11.070  71.925  1.00  0.00     0.259 A  
HETATM    3  C   UNL     1      -5.235  12.446  72.051  1.00  0.00     0.172 A  
HETATM    4  N   UNL     1      -5.280  13.304  71.024  1.00  0.00    -0.149 NA 
HETATM    5  C   UNL     1      -5.450  12.767  69.815  1.00  0.00    -0.092 A  
HETATM    6  C   UNL     1      -5.425  10.580  70.625  1.00  0.00    -0.085 A  
HETATM    7  N   UNL     1      -5.511  11.438  69.593  1.00  0.00    -0.054 NA 
ENDROOT
BRANCH   5   8
HETATM    8  N   UNL     1      -5.567  13.691  68.774  1.00  0.00    -0.080 NA 
HETATM    9  H   UNL     1      -4.765  13.741  68.146  1.00  0.00     0.000 HD 
BRANCH   8  10
HETATM   10  C   UNL     1      -6.623  14.558  68.466  1.00  0.00    -0.093 A  
HETATM   11  C   UNL     1      -7.840  14.487  69.131  1.00  0.00    -0.071 A  
HETATM   12  C   UNL     1      -7.602  16.236  66.982  1.00  0.00    -0.250 A  
HETATM   13  C   UNL     1      -8.831  16.107  67.624  1.00  0.00    -0.186 A  
HETATM   14  C   UNL     1      -8.930  15.248  68.725  1.00  0.00    -0.200 A  
HETATM   15  C   UNL     1      -6.505  15.464  67.400  1.00  0.00    -0.115 A  
BRANCH  13  16
HETATM   16  O   UNL     1      -9.895  16.821  67.116  1.00  0.00    -0.247 OA 
BRANCH  16  17
HETATM   17  C   UNL     1     -10.507  16.156  66.008  1.00  0.00    -0.338 C  
BRANCH  17  18
HETATM   18  C   UNL     1      -9.955  14.759  65.723  1.00  0.00    -0.347 C  
BRANCH  18  19
HETATM   19  N   UNL     1     -10.853  14.072  64.781  1.00  0.00    -0.404 NA 
HETATM   20  C   UNL     1     -12.195  13.808  65.316  1.00  0.00    -0.439 C  
HETATM   21  C   UNL     1     -10.335  12.791  64.317  1.00  0.00    -0.377 C  
HETATM   22  C   UNL     1     -12.716  12.618  64.523  1.00  0.00    -0.439 C  
HETATM   23  C   UNL     1     -11.557  12.204  63.630  1.00  0.00    -0.575 C  
ENDBRANCH  18  19
ENDBRANCH  17  18
ENDBRANCH  16  17
ENDBRANCH  13  16
ENDBRANCH   8  10
ENDBRANCH   5   8
BRANCH   6  24
HETATM   24  N   UNL     1      -5.548   9.181  70.419  1.00  0.00    -0.033 NA 
HETATM   25  H   UNL     1      -4.916   8.628  70.998  1.00  0.00     0.000 HD 
BRANCH  24  26
HETATM   26  C   UNL     1      -6.369   8.394  69.572  1.00  0.00    -0.037 A  
HETATM   27  C   UNL     1      -6.100   8.127  68.227  1.00  0.00    -0.046 A  
HETATM   28  C   UNL     1      -7.620   7.978  70.064  1.00  0.00    -0.082 A  
HETATM   29  C   UNL     1      -7.035   7.484  67.397  1.00  0.00    -0.083 A  
HETATM   30  C   UNL     1      -8.294   7.137  67.885  1.00  0.00    -0.118 A  
HETATM   31  C   UNL     1      -8.591   7.410  69.219  1.00  0.00    -0.137 A  
BRANCH  31  32
HETATM   32  S   UNL     1     -10.193   6.996  69.862  1.00  0.00    -0.206 S  
HETATM   33  O   UNL     1     -11.108   8.027  69.418  1.00  0.00    -0.080 OA 
HETATM   34  O   UNL     1     -10.451   5.603  69.570  1.00  0.00    -0.248 OA 
BRANCH  32  35
HETATM   35  N   UNL     1     -10.069   7.201  71.525  1.00  0.00    -0.187 N  
HETATM   36  C   UNL     1     -10.201   6.864  73.940  1.00  0.00    -0.401 C  
HETATM   37  C   UNL     1     -12.099   6.148  72.520  1.00  0.00    -0.108 C  
HETATM   38  C   UNL     1      -9.905   4.899  72.449  1.00  0.00    -0.209 C  
HETATM   39  C   UNL     1     -10.572   6.268  72.564  1.00  0.00    -0.212 C  
HETATM   40  H   UNL     1      -9.603   8.047  71.852  1.00  0.00     0.000 HD 
ENDBRANCH  32  35
ENDBRANCH  31  32
ENDBRANCH  24  26
ENDBRANCH   6  24
TORSDOF 10
ENDMDL
MODEL      264
REMARK 921   NORMALIZED FREE ENERGY PREDICTED BY IDOCK:   -3.24 KCAL/MOL
REMARK 922        TOTAL FREE ENERGY PREDICTED BY IDOCK:   -6.49 KCAL/MOL
REMARK 923 INTER-LIGAND FREE ENERGY PREDICTED BY IDOCK:   -6.91 KCAL/MOL
REMARK 924 INTRA-LIGAND FREE ENERGY PREDICTED BY IDOCK:    0.43 KCAL/MOL
REMARK 927      BINDING AFFINITY PREDICTED BY RF-SCORE:    0.00 PKD
ROOT
HETATM    1  C   UNL     1      -7.621   7.196  64.557  1.00  0.00    -0.107 C  
HETATM    2  C   UNL     1      -8.599   8.298  64.812  1.00  0.00    -0.047 A  
HETATM    3  C   UNL     1      -8.629   9.376  63.945  1.00  0.00    -0.210 A  
HETATM    4  N   UNL     1      -9.457  10.421  64.065  1.00  0.00    -0.276 NA 
HETATM    5  C   UNL     1     -10.274  10.407  65.120  1.00  0.00    -0.256 A  
HETATM    6  C   UNL     1      -9.529   8.322  65.850  1.00  0.00    -0.055 A  
HETATM    7  N   UNL     1     -10.336   9.387  65.999  1.00  0.00    -0.141 NA 
ENDROOT
BRANCH   5   8
HETATM    8  N   UNL     1     -11.073  11.544  65.257  1.00  0.00    -0.237 NA 
HETATM    9  H   UNL     1     -12.060  11.362  65.438  1.00  0.00     0.000 HD 
BRANCH   8  10
HETATM   10  C   UNL     1     -10.719  12.898  65.183  1.00  0.00    -0.305 A  
HETATM   11  C   UNL     1      -9.665  13.415  65.926  1.00  0.00    -0.197 A  
HETATM   12  C   UNL     1     -11.240  15.172  64.456  1.00  0.00    -0.283 A  
HETATM   13  C   UNL     1     -10.216  15.678  65.253  1.00  0.00    -0.324 A  
HETATM   14  C   UNL     1      -9.409  14.781  65.963  1.00  0.00    -0.249 A  
HETATM   15  C   UNL     1     -11.491  13.790  64.423  1.00  0.00    -0.392 A  
BRANCH  13  16
HETATM   16  O   UNL     1     -10.073  17.047  65.316  1.00  0.00    -0.558 OA 
BRANCH  16  17
HETATM   17  C   UNL     1     -10.042  17.521  66.664  1.00  0.00    -0.328 C  
BRANCH  17  18
HETATM   18  C   UNL     1      -8.688  18.070  67.113  1.00  0.00    -0.243 C  
BRANCH  18  19
HETATM   19  N   UNL     1      -8.072  17.119  68.051  1.00  0.00    -0.204 NA 
HETATM   20  C   UNL     1      -7.288  17.753  69.120  1.00  0.00    -0.114 C  
HETATM   21  C   UNL     1      -7.186  16.160  67.405  1.00  0.00    -0.182 C  
HETATM   22  C   UNL     1      -6.280  16.700  69.556  1.00  0.00    -0.220 C  
HETATM   23  C   UNL     1      -6.494  15.533  68.605  1.00  0.00    -0.102 C  
ENDBRANCH  18  19
ENDBRANCH  17  18
ENDBRANCH  16  17
ENDBRANCH  13  16
ENDBRANCH   8  10
ENDBRANCH   5   8
BRANCH   6  24
HETATM   24  N   UNL     1      -9.537   7.266  66.798  1.00  0.00    -0.176 NA 
HETATM   25  H   UNL     1      -9.235   6.371  66.412  1.00  0.00     0.000 HD 
BRANCH  24  26
HETATM   26  C   UNL     1      -9.878   7.199  68.172  1.00  0.00    -0.143 A  
HETATM   27  C   UNL     1     -10.650   8.149  68.848  1.00  0.00    -0.161 A  
HETATM   28  C   UNL     1      -9.275   6.198  68.956  1.00  0.00    -0.126 A  
HETATM   29  C   UNL     1     -10.811   8.117  70.244  1.00  0.00    -0.244 A  
HETATM   30  C   UNL     1     -10.154   7.156  71.010  1.00  0.00    -0.199 A  
HETATM   31  C   UNL     1      -9.364   6.210  70.360  1.00  0.00    -0.161 A  
BRANCH  31  32
HETATM   32  S   UNL     1      -8.500   4.987  71.314  1.00  0.00    -0.123 S  
HETATM   33  O   UNL     1      -9.186   4.877  72.585  1.00  0.00    -0.130 OA 
HETATM   34  O   UNL     1      -8.299   3.822  70.480  1.00  0.00    -0.060 OA 
BRANCH  32  35
HETATM   35  N   UNL     1      -7.010   5.676  71.674  1.00  0.00    -0.066 N  
HETATM   36  C   UNL     1      -5.245   7.062  72.636  1.00  0.00    -0.037 C  
HETATM   37  C   UNL     1      -7.440   8.090  72.129  1.00  0.00    -0.111 C  
HETATM   38  C   UNL     1      -7.206   6.444  74.030  1.00  0.00    -0.085 C  
HETATM   39  C   UNL     1      -6.767   6.801  72.611  1.00  0.00    -0.063 C  
HETATM   40  H   UNL     1      -6.195   5.284  71.203  1.00  0.00     0.000 HD 
ENDBRANCH  32  35
ENDBRANCH  31  32
ENDBRANCH  24  26
ENDBRANCH   6  24
TORSDOF 10
ENDMDL
MODEL      265
REMARK 921   NORMALIZED FREE ENERGY PREDICTED BY IDOCK:   -3.24 KCAL/MOL
REMARK 922        TOTAL FREE ENERGY PREDICTED BY IDOCK:   -6.48 KCAL/MOL
REMARK 923 INTER-LIGAND FREE ENERGY PREDICTED BY IDOCK:   -5.37 KCAL/MOL
REMARK 924 INTRA-LIGAND FREE ENERGY PREDICTED BY IDOCK:   -1.11 KCAL/MOL
REMARK 927      BINDING AFFINITY PREDICTED BY RF-SCORE:    0.00 PKD
ROOT
HETATM    1  C   UNL     1      -8.779   2.160  67.068  1.00  0.00    -0.134 C  
HETATM    2  C   UNL     1      -9.425   3.473  67.374  1.00  0.00    -0.234 A  
HETATM    3  C   UNL     1      -9.756   4.314  66.326  1.00  0.00    -0.213 A  
HETATM    4  N   UNL     1     -10.338   5.511  66.472  1.00  0.00    -0.245 NA 
HETATM    5  C   UNL     1     -10.573   5.903  67.724  1.00  0.00    -0.259 A  
HETATM    6  C   UNL     1      -9.765   3.921  68.650  1.00  0.00    -0.043 A  
HETATM    7  N   UNL     1     -10.313   5.140  68.805  1.00  0.00    -0.137 NA 
ENDROOT
BRANCH   5   8
HETATM    8  N   UNL     1     -11.114   7.185  67.845  1.00  0.00    -0.518 NA 
HETATM    9  H   UNL     1     -12.131   7.223  67.909  1.00  0.00     0.000 HD 
BRANCH   8  10
HETATM   10  C   UNL     1     -10.465   8.426  67.893  1.00  0.00    -0.193 A  
HETATM   11  C   UNL     1     -11.008   9.504  68.581  1.00  0.00    -0.113 A  
HETATM   12  C   UNL     1      -8.706   9.914  67.076  1.00  0.00    -0.137 A  
HETATM   13  C   UNL     1      -9.298  10.994  67.724  1.00  0.00    -0.158 A  
HETATM   14  C   UNL     1     -10.438  10.770  68.506  1.00  0.00    -0.208 A  
HETATM   15  C   UNL     1      -9.288   8.637  67.158  1.00  0.00    -0.190 A  
BRANCH  13  16
HETATM   16  O   UNL     1      -8.736  12.238  67.535  1.00  0.00    -0.160 OA 
BRANCH  16  17
HETATM   17  C   UNL     1      -7.438  12.336  68.125  1.00  0.00    -0.112 C  
BRANCH  17  18
HETATM   18  C   UNL     1      -6.514  13.356  67.460  1.00  0.00    -0.118 C  
BRANCH  18  19
HETATM   19  N   UNL     1      -7.105  14.697  67.593  1.00  0.00    -0.172 NA 
HETATM   20  C   UNL     1      -6.137  15.795  67.469  1.00  0.00    -0.133 C  
HETATM   21  C   UNL     1      -7.799  14.901  68.858  1.00  0.00    -0.161 C  
HETATM   22  C   UNL     1      -6.756  16.963  68.223  1.00  0.00    -0.159 C  
HETATM   23  C   UNL     1      -8.030  16.403  68.835  1.00  0.00    -0.236 C  
ENDBRANCH  18  19
ENDBRANCH  17  18
ENDBRANCH  16  17
ENDBRANCH  13  16
ENDBRANCH   8  10
ENDBRANCH   5   8
BRANCH   6  24
HETATM   24  N   UNL     1      -9.428   3.128  69.777  1.00  0.00    -0.156 NA 
HETATM   25  H   UNL     1      -9.310   2.138  69.557  1.00  0.00     0.000 HD 
BRANCH  24  26
HETATM   26  C   UNL     1      -9.221   3.427  71.147  1.00  0.00    -0.124 A  
HETATM   27  C   UNL     1     -10.102   3.086  72.178  1.00  0.00    -0.202 A  
HETATM   28  C   UNL     1      -8.139   4.260  71.487  1.00  0.00    -0.087 A  
HETATM   29  C   UNL     1      -9.926   3.558  73.491  1.00  0.00    -0.171 A  
HETATM   30  C   UNL     1      -8.885   4.434  73.794  1.00  0.00    -0.104 A  
HETATM   31  C   UNL     1      -8.005   4.803  72.778  1.00  0.00    -0.097 A  
BRANCH  31  32
HETATM   32  S   UNL     1      -6.682   5.932  73.133  1.00  0.00    -0.075 S  
HETATM   33  O   UNL     1      -7.289   7.198  73.489  1.00  0.00    -0.076 OA 
HETATM   34  O   UNL     1      -5.757   5.277  74.031  1.00  0.00    -0.029 OA 
BRANCH  32  35
HETATM   35  N   UNL     1      -5.925   6.204  71.657  1.00  0.00    -0.034 N  
HETATM   36  C   UNL     1      -5.237   7.173  69.524  1.00  0.00    -0.015 C  
HETATM   37  C   UNL     1      -7.625   7.271  70.177  1.00  0.00    -0.090 C  
HETATM   38  C   UNL     1      -5.908   8.675  71.386  1.00  0.00    -0.044 C  
HETATM   39  C   UNL     1      -6.195   7.327  70.726  1.00  0.00    -0.035 C  
HETATM   40  H   UNL     1      -5.211   5.533  71.374  1.00  0.00     0.000 HD 
ENDBRANCH  32  35
ENDBRANCH  31  32
ENDBRANCH  24  26
ENDBRANCH   6  24
TORSDOF 10
ENDMDL
MODEL      266
REMARK 921   NORMALIZED FREE ENERGY PREDICTED BY IDOCK:   -3.15 KCAL/MOL
REMARK 922        TOTAL FREE ENERGY PREDICTED BY IDOCK:   -6.33 KCAL/MOL
REMARK 923 INTER-LIGAND FREE ENERGY PREDICTED BY IDOCK:   -6.46 KCAL/MOL
REMARK 924 INTRA-LIGAND FREE ENERGY PREDICTED BY IDOCK:    0.13 KCAL/MOL
REMARK 927      BINDING AFFINITY PREDICTED BY RF-SCORE:    0.00 PKD
ROOT
HETATM    1  C   UNL     1      -7.609   7.176  64.542  1.00  0.00    -0.107 C  
HETATM    2  C   UNL     1      -8.478   8.354  64.848  1.00  0.00    -0.141 A  
HETATM    3  C   UNL     1      -8.337   9.502  64.088  1.00  0.00    -0.172 A  
HETATM    4  N   UNL     1      -9.056  10.618  64.263  1.00  0.00    -0.210 NA 
HETATM    5  C   UNL     1      -9.935  10.601  65.265  1.00  0.00    -0.294 A  
HETATM    6  C   UNL     1      -9.466   8.389  65.832  1.00  0.00    -0.099 A  
HETATM    7  N   UNL     1     -10.163   9.520  66.038  1.00  0.00    -0.237 NA 
ENDROOT
BRANCH   5   8
HETATM    8  N   UNL     1     -10.616  11.804  65.468  1.00  0.00    -0.267 NA 
HETATM    9  H   UNL     1     -11.632  11.725  65.517  1.00  0.00     0.000 HD 
BRANCH   8  10
HETATM   10  C   UNL     1     -10.110  13.102  65.613  1.00  0.00    -0.271 A  
HETATM   11  C   UNL     1      -9.041  13.375  66.457  1.00  0.00    -0.128 A  
HETATM   12  C   UNL     1     -10.339  15.505  65.229  1.00  0.00    -0.416 A  
HETATM   13  C   UNL     1      -9.304  15.762  66.124  1.00  0.00    -0.346 A  
HETATM   14  C   UNL     1      -8.636  14.681  66.710  1.00  0.00    -0.195 A  
HETATM   15  C   UNL     1     -10.741  14.182  64.977  1.00  0.00    -0.429 A  
BRANCH  13  16
HETATM   16  O   UNL     1      -9.011  17.080  66.401  1.00  0.00    -0.256 OA 
BRANCH  16  17
HETATM   17  C   UNL     1      -9.084  17.362  67.800  1.00  0.00    -0.243 C  
BRANCH  17  18
HETATM   18  C   UNL     1      -7.727  17.497  68.492  1.00  0.00    -0.272 C  
BRANCH  18  19
HETATM   19  N   UNL     1      -7.143  18.804  68.151  1.00  0.00    -0.244 NA 
HETATM   20  C   UNL     1      -8.126  19.888  68.029  1.00  0.00    -0.272 C  
HETATM   21  C   UNL     1      -6.386  18.793  66.906  1.00  0.00    -0.179 C  
HETATM   22  C   UNL     1      -7.480  20.914  67.110  1.00  0.00    -0.332 C  
HETATM   23  C   UNL     1      -6.170  20.278  66.671  1.00  0.00    -0.215 C  
ENDBRANCH  18  19
ENDBRANCH  17  18
ENDBRANCH  16  17
ENDBRANCH  13  16
ENDBRANCH   8  10
ENDBRANCH   5   8
BRANCH   6  24
HETATM   24  N   UNL     1      -9.647   7.260  66.673  1.00  0.00    -0.204 NA 
HETATM   25  H   UNL     1     -10.537   6.783  66.525  1.00  0.00     0.000 HD 
BRANCH  24  26
HETATM   26  C   UNL     1      -8.846   6.660  67.676  1.00  0.00    -0.116 A  
HETATM   27  C   UNL     1      -7.789   7.293  68.336  1.00  0.00    -0.122 A  
HETATM   28  C   UNL     1      -9.014   5.284  67.922  1.00  0.00    -0.112 A  
HETATM   29  C   UNL     1      -6.926   6.593  69.197  1.00  0.00    -0.078 A  
HETATM   30  C   UNL     1      -7.069   5.219  69.378  1.00  0.00    -0.056 A  
HETATM   31  C   UNL     1      -8.104   4.562  68.715  1.00  0.00    -0.081 A  
BRANCH  31  32
HETATM   32  S   UNL     1      -8.297   2.808  68.913  1.00  0.00    -0.067 S  
HETATM   33  O   UNL     1      -7.644   2.447  70.154  1.00  0.00    -0.043 OA 
HETATM   34  O   UNL     1      -9.686   2.478  68.686  1.00  0.00    -0.095 OA 
BRANCH  32  35
HETATM   35  N   UNL     1      -7.357   2.120  67.702  1.00  0.00    -0.054 N  
HETATM   36  C   UNL     1      -5.684   1.758  65.960  1.00  0.00    -0.014 C  
HETATM   37  C   UNL     1      -6.831   3.949  66.091  1.00  0.00    -0.057 C  
HETATM   38  C   UNL     1      -5.159   3.272  67.858  1.00  0.00    -0.008 C  
HETATM   39  C   UNL     1      -6.280   2.797  66.936  1.00  0.00    -0.024 C  
HETATM   40  H   UNL     1      -7.543   1.144  67.472  1.00  0.00     0.000 HD 
ENDBRANCH  32  35
ENDBRANCH  31  32
ENDBRANCH  24  26
ENDBRANCH   6  24
TORSDOF 10
ENDMDL
MODEL      267
REMARK 921   NORMALIZED FREE ENERGY PREDICTED BY IDOCK:   -3.10 KCAL/MOL
REMARK 922        TOTAL FREE ENERGY PREDICTED BY IDOCK:   -6.25 KCAL/MOL
REMARK 923 INTER-LIGAND FREE ENERGY PREDICTED BY IDOCK:   -6.68 KCAL/MOL
REMARK 924 INTRA-LIGAND FREE ENERGY PREDICTED BY IDOCK:    0.43 KCAL/MOL
REMARK 927      BINDING AFFINITY PREDICTED BY RF-SCORE:    0.00 PKD
ROOT
HETATM    1  C   UNL     1     -12.512  15.786  70.711  1.00  0.00    -0.420 C  
HETATM    2  C   UNL     1     -12.175  14.640  69.811  1.00  0.00    -0.347 A  
HETATM    3  C   UNL     1     -12.145  13.362  70.341  1.00  0.00    -0.333 A  
HETATM    4  N   UNL     1     -11.860  12.258  69.639  1.00  0.00    -0.328 NA 
HETATM    5  C   UNL     1     -11.556  12.440  68.354  1.00  0.00    -0.324 A  
HETATM    6  C   UNL     1     -11.915  14.742  68.445  1.00  0.00    -0.235 A  
HETATM    7  N   UNL     1     -11.588  13.642  67.744  1.00  0.00    -0.318 NA 
ENDROOT
BRANCH   5   8
HETATM    8  N   UNL     1     -11.192  11.279  67.668  1.00  0.00    -0.278 NA 
HETATM    9  H   UNL     1     -11.332  11.310  66.658  1.00  0.00     0.000 HD 
BRANCH   8  10
HETATM   10  C   UNL     1     -10.664  10.079  68.162  1.00  0.00    -0.239 A  
HETATM   11  C   UNL     1      -9.861   9.261  67.377  1.00  0.00    -0.229 A  
HETATM   12  C   UNL     1     -10.616   8.358  69.896  1.00  0.00    -0.228 A  
HETATM   13  C   UNL     1      -9.862   7.527  69.072  1.00  0.00    -0.170 A  
HETATM   14  C   UNL     1      -9.460   8.006  67.819  1.00  0.00    -0.166 A  
HETATM   15  C   UNL     1     -11.017   9.626  69.443  1.00  0.00    -0.215 A  
BRANCH  13  16
HETATM   16  O   UNL     1      -9.574   6.261  69.533  1.00  0.00    -0.146 OA 
BRANCH  16  17
HETATM   17  C   UNL     1      -9.314   5.348  68.465  1.00  0.00    -0.118 C  
BRANCH  17  18
HETATM   18  C   UNL     1      -7.831   5.133  68.160  1.00  0.00    -0.087 C  
BRANCH  18  19
HETATM   19  N   UNL     1      -7.652   5.020  66.704  1.00  0.00    -0.087 NA 
HETATM   20  C   UNL     1      -8.903   4.829  65.959  1.00  0.00    -0.123 C  
HETATM   21  C   UNL     1      -6.769   3.929  66.312  1.00  0.00    -0.053 C  
HETATM   22  C   UNL     1      -8.499   4.133  64.667  1.00  0.00    -0.110 C  
HETATM   23  C   UNL     1      -7.008   3.872  64.812  1.00  0.00    -0.050 C  
ENDBRANCH  18  19
ENDBRANCH  17  18
ENDBRANCH  16  17
ENDBRANCH  13  16
ENDBRANCH   8  10
ENDBRANCH   5   8
BRANCH   6  24
HETATM   24  N   UNL     1     -11.895  16.024  67.837  1.00  0.00    -0.068 NA 
HETATM   25  H   UNL     1     -12.784  16.284  67.407  1.00  0.00     0.000 HD 
BRANCH  24  26
HETATM   26  C   UNL     1     -10.894  17.019  67.703  1.00  0.00    -0.244 A  
HETATM   27  C   UNL     1     -11.139  18.395  67.666  1.00  0.00     0.028 A  
HETATM   28  C   UNL     1      -9.579  16.601  67.430  1.00  0.00    -0.242 A  
HETATM   29  C   UNL     1     -10.126  19.321  67.361  1.00  0.00    -0.486 A  
HETATM   30  C   UNL     1      -8.845  18.884  67.031  1.00  0.00    -0.306 A  
HETATM   31  C   UNL     1      -8.582  17.515  67.043  1.00  0.00    -0.235 A  
BRANCH  31  32
HETATM   32  S   UNL     1      -6.963  16.931  66.607  1.00  0.00    -0.236 S  
HETATM   33  O   UNL     1      -7.030  15.484  66.572  1.00  0.00     0.092 OA 
HETATM   34  O   UNL     1      -6.507  17.677  65.456  1.00  0.00    -0.116 OA 
BRANCH  32  35
HETATM   35  N   UNL     1      -5.990  17.297  67.928  1.00  0.00    -0.124 N  
HETATM   36  C   UNL     1      -5.161  17.644  70.198  1.00  0.00    -0.222 C  
HETATM   37  C   UNL     1      -7.488  18.296  69.653  1.00  0.00     0.429 C  
HETATM   38  C   UNL     1      -6.835  15.859  69.771  1.00  0.00    -0.101 C  
HETATM   39  C   UNL     1      -6.398  17.262  69.354  1.00  0.00    -0.244 C  
HETATM   40  H   UNL     1      -5.027  17.569  67.730  1.00  0.00     0.000 HD 
ENDBRANCH  32  35
ENDBRANCH  31  32
ENDBRANCH  24  26
ENDBRANCH   6  24
TORSDOF 10
ENDMDL
MODEL      268
REMARK 921   NORMALIZED FREE ENERGY PREDICTED BY IDOCK:   -3.08 KCAL/MOL
REMARK 922        TOTAL FREE ENERGY PREDICTED BY IDOCK:   -6.23 KCAL/MOL
REMARK 923 INTER-LIGAND FREE ENERGY PREDICTED BY IDOCK:   -5.26 KCAL/MOL
REMARK 924 INTRA-LIGAND FREE ENERGY PREDICTED BY IDOCK:   -0.97 KCAL/MOL
REMARK 927      BINDING AFFINITY PREDICTED BY RF-SCORE:    0.00 PKD
ROOT
HETATM    1  C   UNL     1      -6.961   8.843  74.225  1.00  0.00     0.036 C  
HETATM    2  C   UNL     1      -7.642   8.188  73.066  1.00  0.00    -0.187 A  
HETATM    3  C   UNL     1      -8.539   7.164  73.312  1.00  0.00    -0.131 A  
HETATM    4  N   UNL     1      -9.212   6.502  72.362  1.00  0.00    -0.137 NA 
HETATM    5  C   UNL     1      -8.953   6.857  71.102  1.00  0.00    -0.143 A  
HETATM    6  C   UNL     1      -7.476   8.548  71.729  1.00  0.00    -0.099 A  
HETATM    7  N   UNL     1      -8.119   7.861  70.768  1.00  0.00    -0.099 NA 
ENDROOT
BRANCH   5   8
HETATM    8  N   UNL     1      -9.615   6.100  70.133  1.00  0.00    -0.161 NA 
HETATM    9  H   UNL     1     -10.556   6.419  69.900  1.00  0.00     0.000 HD 
BRANCH   8  10
HETATM   10  C   UNL     1      -9.178   4.968  69.433  1.00  0.00    -0.108 A  
HETATM   11  C   UNL     1      -9.718   3.711  69.673  1.00  0.00    -0.140 A  
HETATM   12  C   UNL     1      -7.558   3.916  67.935  1.00  0.00    -0.067 A  
HETATM   13  C   UNL     1      -8.075   2.659  68.234  1.00  0.00    -0.057 A  
HETATM   14  C   UNL     1      -9.184   2.571  69.084  1.00  0.00    -0.199 A  
HETATM   15  C   UNL     1      -8.105   5.064  68.533  1.00  0.00    -0.085 A  
BRANCH  13  16
HETATM   16  O   UNL     1      -7.443   1.562  67.689  1.00  0.00    -0.052 OA 
BRANCH  16  17
HETATM   17  C   UNL     1      -7.126   1.756  66.309  1.00  0.00    -0.051 C  
BRANCH  17  18
HETATM   18  C   UNL     1      -8.292   1.510  65.350  1.00  0.00    -0.082 C  
BRANCH  18  19
HETATM   19  N   UNL     1      -8.385   2.638  64.410  1.00  0.00    -0.086 NA 
HETATM   20  C   UNL     1      -7.103   3.301  64.139  1.00  0.00    -0.053 C  
HETATM   21  C   UNL     1      -9.304   3.681  64.846  1.00  0.00    -0.154 C  
HETATM   22  C   UNL     1      -7.465   4.715  63.710  1.00  0.00    -0.059 C  
HETATM   23  C   UNL     1      -8.975   4.799  63.870  1.00  0.00    -0.075 C  
ENDBRANCH  18  19
ENDBRANCH  17  18
ENDBRANCH  16  17
ENDBRANCH  13  16
ENDBRANCH   8  10
ENDBRANCH   5   8
BRANCH   6  24
HETATM   24  N   UNL     1      -6.548   9.569  71.396  1.00  0.00    -0.298 NA 
HETATM   25  H   UNL     1      -5.710   9.561  71.978  1.00  0.00     0.000 HD 
BRANCH  24  26
HETATM   26  C   UNL     1      -6.545  10.596  70.420  1.00  0.00    -0.070 A  
HETATM   27  C   UNL     1      -5.748  11.743  70.473  1.00  0.00    -0.150 A  
HETATM   28  C   UNL     1      -7.519  10.547  69.405  1.00  0.00    -0.141 A  
HETATM   29  C   UNL     1      -5.913  12.805  69.566  1.00  0.00    -0.112 A  
HETATM   30  C   UNL     1      -6.925  12.766  68.609  1.00  0.00    -0.101 A  
HETATM   31  C   UNL     1      -7.745  11.641  68.549  1.00  0.00    -0.134 A  
BRANCH  31  32
HETATM   32  S   UNL     1      -9.054  11.574  67.351  1.00  0.00    -0.170 S  
HETATM   33  O   UNL     1      -8.470  11.899  66.066  1.00  0.00     0.010 OA 
HETATM   34  O   UNL     1      -9.778  10.337  67.542  1.00  0.00    -0.164 OA 
BRANCH  32  35
HETATM   35  N   UNL     1     -10.058  12.869  67.721  1.00  0.00    -0.223 N  
HETATM   36  C   UNL     1     -11.642  14.722  67.562  1.00  0.00    -0.379 C  
HETATM   37  C   UNL     1      -9.960  14.419  65.769  1.00  0.00    -0.354 C  
HETATM   38  C   UNL     1     -11.871  12.786  66.021  1.00  0.00    -0.495 C  
HETATM   39  C   UNL     1     -10.858  13.663  66.755  1.00  0.00    -0.290 C  
HETATM   40  H   UNL     1     -10.126  13.135  68.703  1.00  0.00     0.000 HD 
ENDBRANCH  32  35
ENDBRANCH  31  32
ENDBRANCH  24  26
ENDBRANCH   6  24
TORSDOF 10
ENDMDL
MODEL      269
REMARK 921   NORMALIZED FREE ENERGY PREDICTED BY IDOCK:   -2.93 KCAL/MOL
REMARK 922        TOTAL FREE ENERGY PREDICTED BY IDOCK:   -6.00 KCAL/MOL
REMARK 923 INTER-LIGAND FREE ENERGY PREDICTED BY IDOCK:   -4.35 KCAL/MOL
REMARK 924 INTRA-LIGAND FREE ENERGY PREDICTED BY IDOCK:   -1.65 KCAL/MOL
REMARK 927      BINDING AFFINITY PREDICTED BY RF-SCORE:    0.00 PKD
ROOT
HETATM    1  C   UNL     1     -13.516  15.540  70.047  1.00  0.00     0.726 C  
HETATM    2  C   UNL     1     -12.053  15.280  69.876  1.00  0.00    -0.375 A  
HETATM    3  C   UNL     1     -11.195  15.592  70.916  1.00  0.00    -0.371 A  
HETATM    4  N   UNL     1      -9.869  15.404  70.885  1.00  0.00     0.809 NA 
HETATM    5  C   UNL     1      -9.371  14.913  69.750  1.00  0.00     0.185 A  
HETATM    6  C   UNL     1     -11.466  14.705  68.750  1.00  0.00    -0.296 A  
HETATM    7  N   UNL     1     -10.131  14.552  68.697  1.00  0.00    -0.239 NA 
ENDROOT
BRANCH   5   8
HETATM    8  N   UNL     1      -7.979  14.798  69.723  1.00  0.00    -0.408 NA 
HETATM    9  H   UNL     1      -7.468  15.673  69.837  1.00  0.00     0.000 HD 
BRANCH   8  10
HETATM   10  C   UNL     1      -7.181  13.657  69.562  1.00  0.00     0.238 A  
HETATM   11  C   UNL     1      -7.317  12.825  68.458  1.00  0.00    -0.115 A  
HETATM   12  C   UNL     1      -5.586  12.057  70.493  1.00  0.00    -0.165 A  
HETATM   13  C   UNL     1      -5.780  11.208  69.407  1.00  0.00    -0.045 A  
HETATM   14  C   UNL     1      -6.629  11.620  68.373  1.00  0.00    -0.061 A  
HETATM   15  C   UNL     1      -6.284  13.274  70.571  1.00  0.00     0.063 A  
BRANCH  13  16
HETATM   16  O   UNL     1      -5.139   9.988  69.427  1.00  0.00    -0.035 OA 
BRANCH  16  17
HETATM   17  C   UNL     1      -5.989   8.928  68.983  1.00  0.00    -0.043 C  
BRANCH  17  18
HETATM   18  C   UNL     1      -6.874   8.325  70.075  1.00  0.00    -0.043 C  
BRANCH  18  19
HETATM   19  N   UNL     1      -8.229   8.122  69.536  1.00  0.00    -0.119 NA 
HETATM   20  C   UNL     1      -9.034   9.348  69.461  1.00  0.00    -0.164 C  
HETATM   21  C   UNL     1      -9.015   7.159  70.295  1.00  0.00    -0.152 C  
HETATM   22  C   UNL     1     -10.482   8.880  69.504  1.00  0.00    -0.229 C  
HETATM   23  C   UNL     1     -10.401   7.376  69.712  1.00  0.00    -0.226 C  
ENDBRANCH  18  19
ENDBRANCH  17  18
ENDBRANCH  16  17
ENDBRANCH  13  16
ENDBRANCH   8  10
ENDBRANCH   5   8
BRANCH   6  24
HETATM   24  N   UNL     1     -12.279  14.388  67.629  1.00  0.00    -0.623 NA 
HETATM   25  H   UNL     1     -13.275  14.534  67.796  1.00  0.00     0.000 HD 
BRANCH  24  26
HETATM   26  C   UNL     1     -11.990  13.911  66.327  1.00  0.00    -0.434 A  
HETATM   27  C   UNL     1     -12.561  14.409  65.152  1.00  0.00    -0.323 A  
HETATM   28  C   UNL     1     -11.196  12.755  66.206  1.00  0.00    -0.339 A  
HETATM   29  C   UNL     1     -12.365  13.783  63.908  1.00  0.00    -0.346 A  
HETATM   30  C   UNL     1     -11.629  12.603  63.819  1.00  0.00    -0.550 A  
HETATM   31  C   UNL     1     -11.065  12.078  64.980  1.00  0.00    -0.316 A  
BRANCH  31  32
HETATM   32  S   UNL     1     -10.138  10.566  64.897  1.00  0.00    -0.299 S  
HETATM   33  O   UNL     1     -10.435   9.820  66.102  1.00  0.00    -0.179 OA 
HETATM   34  O   UNL     1     -10.349   9.977  63.593  1.00  0.00     0.493 OA 
BRANCH  32  35
HETATM   35  N   UNL     1      -8.528  11.025  65.046  1.00  0.00    -0.379 N  
HETATM   36  C   UNL     1      -6.086  11.022  65.058  1.00  0.00     0.356 C  
HETATM   37  C   UNL     1      -7.296   9.020  65.872  1.00  0.00    -0.093 C  
HETATM   38  C   UNL     1      -7.299   9.607  63.415  1.00  0.00    -0.119 C  
HETATM   39  C   UNL     1      -7.345  10.153  64.841  1.00  0.00    -0.136 C  
HETATM   40  H   UNL     1      -8.347  11.995  65.301  1.00  0.00     0.000 HD 
ENDBRANCH  32  35
ENDBRANCH  31  32
ENDBRANCH  24  26
ENDBRANCH   6  24
TORSDOF 10
ENDMDL
MODEL      270
REMARK 921   NORMALIZED FREE ENERGY PREDICTED BY IDOCK:   -2.77 KCAL/MOL
REMARK 922        TOTAL FREE ENERGY PREDICTED BY IDOCK:   -5.73 KCAL/MOL
REMARK 923 INTER-LIGAND FREE ENERGY PREDICTED BY IDOCK:   -6.27 KCAL/MOL
REMARK 924 INTRA-LIGAND FREE ENERGY PREDICTED BY IDOCK:    0.54 KCAL/MOL
REMARK 927      BINDING AFFINITY PREDICTED BY RF-SCORE:    0.00 PKD
ROOT
HETATM    1  C   UNL     1     -10.091  15.665  66.648  1.00  0.00    -0.280 C  
HETATM    2  C   UNL     1     -10.151  14.263  67.164  1.00  0.00    -0.254 A  
HETATM    3  C   UNL     1     -11.004  13.363  66.549  1.00  0.00    -0.290 A  
HETATM    4  N   UNL     1     -11.144  12.083  66.917  1.00  0.00    -0.284 NA 
HETATM    5  C   UNL     1     -10.425  11.689  67.968  1.00  0.00    -0.194 A  
HETATM    6  C   UNL     1      -9.380  13.759  68.211  1.00  0.00    -0.209 A  
HETATM    7  N   UNL     1      -9.547  12.486  68.610  1.00  0.00    -0.091 NA 
ENDROOT
BRANCH   5   8
HETATM    8  N   UNL     1     -10.649  10.370  68.371  1.00  0.00    -0.194 NA 
HETATM    9  H   UNL     1     -11.369  10.250  69.083  1.00  0.00     0.000 HD 
BRANCH   8  10
HETATM   10  C   UNL     1     -10.030   9.189  67.940  1.00  0.00    -0.186 A  
HETATM   11  C   UNL     1     -10.658   8.321  67.055  1.00  0.00    -0.328 A  
HETATM   12  C   UNL     1      -8.227   7.555  68.166  1.00  0.00    -0.125 A  
HETATM   13  C   UNL     1      -8.900   6.674  67.324  1.00  0.00    -0.116 A  
HETATM   14  C   UNL     1     -10.106   7.084  66.744  1.00  0.00    -0.270 A  
HETATM   15  C   UNL     1      -8.791   8.805  68.475  1.00  0.00    -0.138 A  
BRANCH  13  16
HETATM   16  O   UNL     1      -8.345   5.428  67.129  1.00  0.00    -0.108 OA 
BRANCH  16  17
HETATM   17  C   UNL     1      -7.640   5.343  65.888  1.00  0.00    -0.083 C  
BRANCH  17  18
HETATM   18  C   UNL     1      -7.148   3.939  65.532  1.00  0.00    -0.063 C  
BRANCH  18  19
HETATM   19  N   UNL     1      -8.100   3.319  64.597  1.00  0.00    -0.089 NA 
HETATM   20  C   UNL     1      -8.953   4.280  63.886  1.00  0.00    -0.141 C  
HETATM   21  C   UNL     1      -8.997   2.364  65.233  1.00  0.00    -0.127 C  
HETATM   22  C   UNL     1     -10.202   3.498  63.501  1.00  0.00    -0.209 C  
HETATM   23  C   UNL     1     -10.015   2.127  64.130  1.00  0.00    -0.047 C  
ENDBRANCH  18  19
ENDBRANCH  17  18
ENDBRANCH  16  17
ENDBRANCH  13  16
ENDBRANCH   8  10
ENDBRANCH   5   8
BRANCH   6  24
HETATM   24  N   UNL     1      -8.506  14.631  68.911  1.00  0.00    -0.235 NA 
HETATM   25  H   UNL     1      -8.663  14.640  69.919  1.00  0.00     0.000 HD 
BRANCH  24  26
HETATM   26  C   UNL     1      -7.460  15.493  68.497  1.00  0.00    -0.118 A  
HETATM   27  C   UNL     1      -6.294  15.075  67.848  1.00  0.00    -0.179 A  
HETATM   28  C   UNL     1      -7.513  16.840  68.900  1.00  0.00    -0.240 A  
HETATM   29  C   UNL     1      -5.219  15.951  67.616  1.00  0.00    -0.125 A  
HETATM   30  C   UNL     1      -5.264  17.264  68.079  1.00  0.00    -0.121 A  
HETATM   31  C   UNL     1      -6.409  17.698  68.745  1.00  0.00    -0.200 A  
BRANCH  31  32
HETATM   32  S   UNL     1      -6.485  19.361  69.363  1.00  0.00    -0.325 S  
HETATM   33  O   UNL     1      -7.200  19.314  70.621  1.00  0.00     0.783 OA 
HETATM   34  O   UNL     1      -5.159  19.933  69.287  1.00  0.00    -0.180 OA 
BRANCH  32  35
HETATM   35  N   UNL     1      -7.504  20.180  68.306  1.00  0.00    -0.243 N  
HETATM   36  C   UNL     1      -9.310  20.741  66.761  1.00  0.00    -0.194 C  
HETATM   37  C   UNL     1      -8.236  18.515  66.600  1.00  0.00    -0.288 C  
HETATM   38  C   UNL     1      -9.719  19.082  68.564  1.00  0.00    -0.458 C  
HETATM   39  C   UNL     1      -8.668  19.604  67.587  1.00  0.00    -0.321 C  
HETATM   40  H   UNL     1      -7.303  21.166  68.143  1.00  0.00     0.000 HD 
ENDBRANCH  32  35
ENDBRANCH  31  32
ENDBRANCH  24  26
ENDBRANCH   6  24
TORSDOF 10
ENDMDL
MODEL      271
REMARK 921   NORMALIZED FREE ENERGY PREDICTED BY IDOCK:   -2.76 KCAL/MOL
REMARK 922        TOTAL FREE ENERGY PREDICTED BY IDOCK:   -5.72 KCAL/MOL
REMARK 923 INTER-LIGAND FREE ENERGY PREDICTED BY IDOCK:   -4.76 KCAL/MOL
REMARK 924 INTRA-LIGAND FREE ENERGY PREDICTED BY IDOCK:   -0.96 KCAL/MOL
REMARK 927      BINDING AFFINITY PREDICTED BY RF-SCORE:    0.00 PKD
ROOT
HETATM    1  C   UNL     1      -9.597  17.631  68.815  1.00  0.00    -0.280 C  
HETATM    2  C   UNL     1      -8.682  16.453  68.709  1.00  0.00    -0.246 A  
HETATM    3  C   UNL     1      -8.084  15.968  69.859  1.00  0.00     0.538 A  
HETATM    4  N   UNL     1      -7.250  14.922  69.894  1.00  0.00    -0.140 NA 
HETATM    5  C   UNL     1      -6.971  14.351  68.721  1.00  0.00    -0.100 A  
HETATM    6  C   UNL     1      -8.397  15.762  67.533  1.00  0.00    -0.166 A  
HETATM    7  N   UNL     1      -7.529  14.735  67.555  1.00  0.00    -0.186 NA 
ENDROOT
BRANCH   5   8
HETATM    8  N   UNL     1      -6.042  13.310  68.782  1.00  0.00    -0.081 NA 
HETATM    9  H   UNL     1      -5.261  13.462  69.420  1.00  0.00     0.000 HD 
BRANCH   8  10
HETATM   10  C   UNL     1      -6.025  12.088  68.097  1.00  0.00    -0.053 A  
HETATM   11  C   UNL     1      -5.519  11.986  66.807  1.00  0.00     0.009 A  
HETATM   12  C   UNL     1      -6.738   9.756  67.936  1.00  0.00    -0.065 A  
HETATM   13  C   UNL     1      -6.278   9.690  66.623  1.00  0.00    -0.065 A  
HETATM   14  C   UNL     1      -5.636  10.808  66.077  1.00  0.00    -0.128 A  
HETATM   15  C   UNL     1      -6.615  10.949  68.667  1.00  0.00    -0.057 A  
BRANCH  13  16
HETATM   16  O   UNL     1      -6.506   8.525  65.924  1.00  0.00    -0.052 OA 
BRANCH  16  17
HETATM   17  C   UNL     1      -7.541   7.738  66.517  1.00  0.00    -0.096 C  
BRANCH  17  18
HETATM   18  C   UNL     1      -8.547   7.158  65.521  1.00  0.00    -0.080 C  
BRANCH  18  19
HETATM   19  N   UNL     1      -8.683   5.713  65.764  1.00  0.00    -0.147 NA 
HETATM   20  C   UNL     1      -9.152   4.951  64.600  1.00  0.00    -0.074 C  
HETATM   21  C   UNL     1      -9.590   5.392  66.858  1.00  0.00    -0.142 C  
HETATM   22  C   UNL     1      -9.805   3.702  65.174  1.00  0.00    -0.126 C  
HETATM   23  C   UNL     1      -9.755   3.892  66.682  1.00  0.00    -0.189 C  
ENDBRANCH  18  19
ENDBRANCH  17  18
ENDBRANCH  16  17
ENDBRANCH  13  16
ENDBRANCH   8  10
ENDBRANCH   5   8
BRANCH   6  24
HETATM   24  N   UNL     1      -8.948  16.220  66.307  1.00  0.00    -0.305 NA 
HETATM   25  H   UNL     1      -8.484  17.051  65.940  1.00  0.00     0.000 HD 
BRANCH  24  26
HETATM   26  C   UNL     1     -10.010  15.760  65.489  1.00  0.00    -0.306 A  
HETATM   27  C   UNL     1     -10.747  16.564  64.614  1.00  0.00     0.147 A  
HETATM   28  C   UNL     1     -10.466  14.442  65.676  1.00  0.00    -0.347 A  
HETATM   29  C   UNL     1     -11.895  16.087  63.958  1.00  0.00     0.274 A  
HETATM   30  C   UNL     1     -12.368  14.800  64.205  1.00  0.00    -0.345 A  
HETATM   31  C   UNL     1     -11.660  13.986  65.088  1.00  0.00    -0.342 A  
BRANCH  31  32
HETATM   32  S   UNL     1     -12.251  12.349  65.436  1.00  0.00    -0.188 S  
HETATM   33  O   UNL     1     -11.943  12.072  66.824  1.00  0.00    -0.616 OA 
HETATM   34  O   UNL     1     -13.607  12.244  64.945  1.00  0.00    -0.151 OA 
BRANCH  32  35
HETATM   35  N   UNL     1     -11.258  11.322  64.549  1.00  0.00    -0.186 N  
HETATM   36  C   UNL     1      -9.443   9.840  63.863  1.00  0.00    -0.098 C  
HETATM   37  C   UNL     1      -8.919  11.822  65.252  1.00  0.00     0.211 C  
HETATM   38  C   UNL     1     -10.167   9.861  66.239  1.00  0.00    -0.282 C  
HETATM   39  C   UNL     1      -9.972  10.738  65.003  1.00  0.00    -0.300 C  
HETATM   40  H   UNL     1     -11.570  11.077  63.610  1.00  0.00     0.000 HD 
ENDBRANCH  32  35
ENDBRANCH  31  32
ENDBRANCH  24  26
ENDBRANCH   6  24
TORSDOF 10
ENDMDL
MODEL      272
REMARK 921   NORMALIZED FREE ENERGY PREDICTED BY IDOCK:   -2.68 KCAL/MOL
REMARK 922        TOTAL FREE ENERGY PREDICTED BY IDOCK:   -5.59 KCAL/MOL
REMARK 923 INTER-LIGAND FREE ENERGY PREDICTED BY IDOCK:   -6.49 KCAL/MOL
REMARK 924 INTRA-LIGAND FREE ENERGY PREDICTED BY IDOCK:    0.89 KCAL/MOL
REMARK 927      BINDING AFFINITY PREDICTED BY RF-SCORE:    0.00 PKD
ROOT
HETATM    1  C   UNL     1      -5.126  12.875  73.523  1.00  0.00     0.178 C  
HETATM    2  C   UNL     1      -5.390  12.808  72.052  1.00  0.00     0.163 A  
HETATM    3  C   UNL     1      -5.600  13.987  71.359  1.00  0.00    -0.232 A  
HETATM    4  N   UNL     1      -5.843  14.058  70.044  1.00  0.00    -0.123 NA 
HETATM    5  C   UNL     1      -5.913  12.896  69.394  1.00  0.00    -0.103 A  
HETATM    6  C   UNL     1      -5.410  11.640  71.293  1.00  0.00    -0.013 A  
HETATM    7  N   UNL     1      -5.693  11.702  69.979  1.00  0.00    -0.112 NA 
ENDROOT
BRANCH   5   8
HETATM    8  N   UNL     1      -6.240  13.000  68.041  1.00  0.00    -0.096 NA 
HETATM    9  H   UNL     1      -5.453  12.924  67.397  1.00  0.00     0.000 HD 
BRANCH   8  10
HETATM   10  C   UNL     1      -7.490  13.194  67.437  1.00  0.00    -0.124 A  
HETATM   11  C   UNL     1      -8.166  12.151  66.815  1.00  0.00    -0.085 A  
HETATM   12  C   UNL     1      -9.225  14.716  66.633  1.00  0.00    -0.291 A  
HETATM   13  C   UNL     1      -9.856  13.669  65.967  1.00  0.00    -0.276 A  
HETATM   14  C   UNL     1      -9.333  12.377  66.093  1.00  0.00    -0.155 A  
HETATM   15  C   UNL     1      -8.047  14.480  67.362  1.00  0.00    -0.219 A  
BRANCH  13  16
HETATM   16  O   UNL     1     -10.956  13.974  65.194  1.00  0.00    -0.319 OA 
BRANCH  16  17
HETATM   17  C   UNL     1     -12.155  13.399  65.718  1.00  0.00    -0.436 C  
BRANCH  17  18
HETATM   18  C   UNL     1     -11.972  12.629  67.026  1.00  0.00    -0.260 C  
BRANCH  18  19
HETATM   19  N   UNL     1     -12.285  13.519  68.155  1.00  0.00    -0.230 NA 
HETATM   20  C   UNL     1     -11.905  14.921  67.937  1.00  0.00    -0.259 C  
HETATM   21  C   UNL     1     -11.658  13.112  69.405  1.00  0.00    -0.300 C  
HETATM   22  C   UNL     1     -11.714  15.506  69.329  1.00  0.00    -0.380 C  
HETATM   23  C   UNL     1     -11.904  14.332  70.276  1.00  0.00    -0.377 C  
ENDBRANCH  18  19
ENDBRANCH  17  18
ENDBRANCH  16  17
ENDBRANCH  13  16
ENDBRANCH   8  10
ENDBRANCH   5   8
BRANCH   6  24
HETATM   24  N   UNL     1      -5.234  10.388  71.940  1.00  0.00    -0.257 NA 
HETATM   25  H   UNL     1      -4.633  10.438  72.762  1.00  0.00     0.000 HD 
BRANCH  24  26
HETATM   26  C   UNL     1      -5.724   9.084  71.678  1.00  0.00    -0.061 A  
HETATM   27  C   UNL     1      -5.379   8.314  70.564  1.00  0.00    -0.022 A  
HETATM   28  C   UNL     1      -6.746   8.583  72.505  1.00  0.00    -0.084 A  
HETATM   29  C   UNL     1      -6.027   7.100  70.272  1.00  0.00    -0.024 A  
HETATM   30  C   UNL     1      -7.080   6.652  71.066  1.00  0.00    -0.072 A  
HETATM   31  C   UNL     1      -7.454   7.413  72.172  1.00  0.00    -0.080 A  
BRANCH  31  32
HETATM   32  S   UNL     1      -8.805   6.875  73.190  1.00  0.00    -0.125 S  
HETATM   33  O   UNL     1      -8.706   5.434  73.299  1.00  0.00    -0.117 OA 
HETATM   34  O   UNL     1      -8.838   7.705  74.374  1.00  0.00    -0.215 OA 
BRANCH  32  35
HETATM   35  N   UNL     1     -10.187   7.155  72.276  1.00  0.00    -0.188 N  
HETATM   36  C   UNL     1     -12.210   6.856  70.941  1.00  0.00    -0.404 C  
HETATM   37  C   UNL     1     -10.289   5.336  70.573  1.00  0.00    -0.336 C  
HETATM   38  C   UNL     1     -11.650   5.189  72.696  1.00  0.00    -0.178 C  
HETATM   39  C   UNL     1     -11.048   6.122  71.647  1.00  0.00    -0.276 C  
HETATM   40  H   UNL     1     -10.461   8.128  72.140  1.00  0.00     0.000 HD 
ENDBRANCH  32  35
ENDBRANCH  31  32
ENDBRANCH  24  26
ENDBRANCH   6  24
TORSDOF 10
ENDMDL
MODEL      273
REMARK 921   NORMALIZED FREE ENERGY PREDICTED BY IDOCK:   -2.57 KCAL/MOL
REMARK 922        TOTAL FREE ENERGY PREDICTED BY IDOCK:   -5.42 KCAL/MOL
REMARK 923 INTER-LIGAND FREE ENERGY PREDICTED BY IDOCK:   -4.77 KCAL/MOL
REMARK 924 INTRA-LIGAND FREE ENERGY PREDICTED BY IDOCK:   -0.65 KCAL/MOL
REMARK 927      BINDING AFFINITY PREDICTED BY RF-SCORE:    0.00 PKD
ROOT
HETATM    1  C   UNL     1      -5.723   9.680  72.565  1.00  0.00     0.193 C  
HETATM    2  C   UNL     1      -6.585   8.782  71.738  1.00  0.00    -0.074 A  
HETATM    3  C   UNL     1      -7.395   7.861  72.378  1.00  0.00    -0.091 A  
HETATM    4  N   UNL     1      -8.212   7.005  71.750  1.00  0.00    -0.104 NA 
HETATM    5  C   UNL     1      -8.196   7.047  70.417  1.00  0.00    -0.124 A  
HETATM    6  C   UNL     1      -6.675   8.813  70.347  1.00  0.00    -0.043 A  
HETATM    7  N   UNL     1      -7.463   7.929  69.709  1.00  0.00    -0.086 NA 
ENDROOT
BRANCH   5   8
HETATM    8  N   UNL     1      -9.002   6.094  69.791  1.00  0.00    -0.138 NA 
HETATM    9  H   UNL     1      -9.988   6.120  70.052  1.00  0.00     0.000 HD 
BRANCH   8  10
HETATM   10  C   UNL     1      -8.657   5.108  68.857  1.00  0.00    -0.090 A  
HETATM   11  C   UNL     1      -9.618   4.294  68.271  1.00  0.00    -0.197 A  
HETATM   12  C   UNL     1      -6.938   3.773  67.745  1.00  0.00    -0.055 A  
HETATM   13  C   UNL     1      -7.913   2.933  67.214  1.00  0.00    -0.077 A  
HETATM   14  C   UNL     1      -9.260   3.224  67.458  1.00  0.00    -0.233 A  
HETATM   15  C   UNL     1      -7.308   4.853  68.564  1.00  0.00    -0.066 A  
BRANCH  13  16
HETATM   16  O   UNL     1      -7.489   1.838  66.493  1.00  0.00    -0.058 OA 
BRANCH  16  17
HETATM   17  C   UNL     1      -7.281   2.151  65.114  1.00  0.00    -0.057 C  
BRANCH  17  18
HETATM   18  C   UNL     1      -8.373   3.019  64.488  1.00  0.00    -0.090 C  
BRANCH  18  19
HETATM   19  N   UNL     1      -7.815   4.344  64.179  1.00  0.00    -0.083 NA 
HETATM   20  C   UNL     1      -8.447   5.009  63.032  1.00  0.00    -0.119 C  
HETATM   21  C   UNL     1      -6.384   4.320  63.903  1.00  0.00    -0.030 C  
HETATM   22  C   UNL     1      -7.399   5.977  62.501  1.00  0.00    -0.055 C  
HETATM   23  C   UNL     1      -6.161   5.715  63.345  1.00  0.00    -0.025 C  
ENDBRANCH  18  19
ENDBRANCH  17  18
ENDBRANCH  16  17
ENDBRANCH  13  16
ENDBRANCH   8  10
ENDBRANCH   5   8
BRANCH   6  24
HETATM   24  N   UNL     1      -5.850   9.709  69.618  1.00  0.00    -0.033 NA 
HETATM   25  H   UNL     1      -4.877   9.409  69.560  1.00  0.00     0.000 HD 
BRANCH  24  26
HETATM   26  C   UNL     1      -6.101  10.936  68.954  1.00  0.00    -0.040 A  
HETATM   27  C   UNL     1      -5.183  11.984  68.845  1.00  0.00    -0.050 A  
HETATM   28  C   UNL     1      -7.411  11.191  68.508  1.00  0.00    -0.104 A  
HETATM   29  C   UNL     1      -5.547  13.239  68.324  1.00  0.00    -0.095 A  
HETATM   30  C   UNL     1      -6.864  13.492  67.947  1.00  0.00    -0.151 A  
HETATM   31  C   UNL     1      -7.802  12.468  68.064  1.00  0.00    -0.147 A  
BRANCH  31  32
HETATM   32  S   UNL     1      -9.491  12.770  67.609  1.00  0.00    -0.197 S  
HETATM   33  O   UNL     1     -10.266  11.642  68.082  1.00  0.00    -0.184 OA 
HETATM   34  O   UNL     1      -9.831  14.119  68.004  1.00  0.00    -0.212 OA 
BRANCH  32  35
HETATM   35  N   UNL     1      -9.524  12.658  65.932  1.00  0.00    -0.436 N  
HETATM   36  C   UNL     1     -10.150  12.112  63.636  1.00  0.00    -0.410 C  
HETATM   37  C   UNL     1     -10.397  10.385  65.394  1.00  0.00    -0.270 C  
HETATM   38  C   UNL     1     -11.926  12.395  65.350  1.00  0.00    -0.457 C  
HETATM   39  C   UNL     1     -10.502  11.889  65.123  1.00  0.00    -0.287 C  
HETATM   40  H   UNL     1      -8.802  13.167  65.421  1.00  0.00     0.000 HD 
ENDBRANCH  32  35
ENDBRANCH  31  32
ENDBRANCH  24  26
ENDBRANCH   6  24
TORSDOF 10
ENDMDL
MODEL      274
REMARK 921   NORMALIZED FREE ENERGY PREDICTED BY IDOCK:   -2.50 KCAL/MOL
REMARK 922        TOTAL FREE ENERGY PREDICTED BY IDOCK:   -5.30 KCAL/MOL
REMARK 923 INTER-LIGAND FREE ENERGY PREDICTED BY IDOCK:   -6.12 KCAL/MOL
REMARK 924 INTRA-LIGAND FREE ENERGY PREDICTED BY IDOCK:    0.82 KCAL/MOL
REMARK 927      BINDING AFFINITY PREDICTED BY RF-SCORE:    0.00 PKD
ROOT
HETATM    1  C   UNL     1     -10.087  15.658  66.638  1.00  0.00    -0.280 C  
HETATM    2  C   UNL     1     -10.072  14.295  67.255  1.00  0.00    -0.252 A  
HETATM    3  C   UNL     1     -10.925  13.328  66.754  1.00  0.00    -0.287 A  
HETATM    4  N   UNL     1     -11.003  12.074  67.219  1.00  0.00    -0.248 NA 
HETATM    5  C   UNL     1     -10.216  11.780  68.254  1.00  0.00    -0.205 A  
HETATM    6  C   UNL     1      -9.231  13.893  68.291  1.00  0.00    -0.207 A  
HETATM    7  N   UNL     1      -9.332  12.647  68.788  1.00  0.00     0.047 NA 
ENDROOT
BRANCH   5   8
HETATM    8  N   UNL     1     -10.373  10.488  68.761  1.00  0.00    -0.180 NA 
HETATM    9  H   UNL     1     -11.073  10.392  69.496  1.00  0.00     0.000 HD 
BRANCH   8  10
HETATM   10  C   UNL     1      -9.711   9.305  68.409  1.00  0.00    -0.154 A  
HETATM   11  C   UNL     1     -10.311   8.350  67.597  1.00  0.00    -0.317 A  
HETATM   12  C   UNL     1      -7.839   7.765  68.728  1.00  0.00    -0.123 A  
HETATM   13  C   UNL     1      -8.483   6.799  67.960  1.00  0.00    -0.120 A  
HETATM   14  C   UNL     1      -9.712   7.117  67.368  1.00  0.00    -0.186 A  
HETATM   15  C   UNL     1      -8.451   9.011  68.953  1.00  0.00    -0.130 A  
BRANCH  13  16
HETATM   16  O   UNL     1      -7.879   5.566  67.848  1.00  0.00    -0.095 OA 
BRANCH  16  17
HETATM   17  C   UNL     1      -7.137   5.441  66.633  1.00  0.00    -0.069 C  
BRANCH  17  18
HETATM   18  C   UNL     1      -7.912   5.826  65.373  1.00  0.00    -0.117 C  
BRANCH  18  19
HETATM   19  N   UNL     1      -7.157   6.856  64.641  1.00  0.00    -0.058 NA 
HETATM   20  C   UNL     1      -5.739   6.939  65.015  1.00  0.00    -0.032 C  
HETATM   21  C   UNL     1      -7.704   8.197  64.799  1.00  0.00    -0.123 C  
HETATM   22  C   UNL     1      -5.317   8.360  64.673  1.00  0.00    -0.036 C  
HETATM   23  C   UNL     1      -6.591   9.047  64.208  1.00  0.00    -0.082 C  
ENDBRANCH  18  19
ENDBRANCH  17  18
ENDBRANCH  16  17
ENDBRANCH  13  16
ENDBRANCH   8  10
ENDBRANCH   5   8
BRANCH   6  24
HETATM   24  N   UNL     1      -8.350  14.839  68.877  1.00  0.00    -0.167 NA 
HETATM   25  H   UNL     1      -8.470  14.934  69.886  1.00  0.00     0.000 HD 
BRANCH  24  26
HETATM   26  C   UNL     1      -7.339  15.680  68.349  1.00  0.00    -0.116 A  
HETATM   27  C   UNL     1      -6.180  15.227  67.712  1.00  0.00    -0.178 A  
HETATM   28  C   UNL     1      -7.418  17.059  68.617  1.00  0.00    -0.229 A  
HETATM   29  C   UNL     1      -5.136  16.101  67.362  1.00  0.00    -0.089 A  
HETATM   30  C   UNL     1      -5.204  17.453  67.693  1.00  0.00    -0.129 A  
HETATM   31  C   UNL     1      -6.342  17.924  68.346  1.00  0.00    -0.191 A  
BRANCH  31  32
HETATM   32  S   UNL     1      -6.446  19.638  68.797  1.00  0.00    -0.297 S  
HETATM   33  O   UNL     1      -7.127  19.700  70.073  1.00  0.00    -0.141 OA 
HETATM   34  O   UNL     1      -5.138  20.231  68.628  1.00  0.00    -0.192 OA 
BRANCH  32  35
HETATM   35  N   UNL     1      -7.513  20.322  67.693  1.00  0.00    -0.304 N  
HETATM   36  C   UNL     1      -9.370  20.681  66.147  1.00  0.00     0.092 C  
HETATM   37  C   UNL     1      -8.232  18.481  66.172  1.00  0.00    -0.183 C  
HETATM   38  C   UNL     1      -9.688  19.191  68.110  1.00  0.00    -0.429 C  
HETATM   39  C   UNL     1      -8.675  19.647  67.061  1.00  0.00    -0.316 C  
HETATM   40  H   UNL     1      -7.347  21.294  67.431  1.00  0.00     0.000 HD 
ENDBRANCH  32  35
ENDBRANCH  31  32
ENDBRANCH  24  26
ENDBRANCH   6  24
TORSDOF 10
ENDMDL
MODEL      275
REMARK 921   NORMALIZED FREE ENERGY PREDICTED BY IDOCK:   -2.39 KCAL/MOL
REMARK 922        TOTAL FREE ENERGY PREDICTED BY IDOCK:   -5.13 KCAL/MOL
REMARK 923 INTER-LIGAND FREE ENERGY PREDICTED BY IDOCK:   -5.80 KCAL/MOL
REMARK 924 INTRA-LIGAND FREE ENERGY PREDICTED BY IDOCK:    0.67 KCAL/MOL
REMARK 927      BINDING AFFINITY PREDICTED BY RF-SCORE:    0.00 PKD
ROOT
HETATM    1  C   UNL     1     -12.937  15.286  68.626  1.00  0.00     1.509 C  
HETATM    2  C   UNL     1     -11.655  14.517  68.620  1.00  0.00    -0.346 A  
HETATM    3  C   UNL     1     -11.669  13.203  68.186  1.00  0.00    -0.355 A  
HETATM    4  N   UNL     1     -10.589  12.412  68.132  1.00  0.00    -0.209 NA 
HETATM    5  C   UNL     1      -9.446  12.947  68.562  1.00  0.00    -0.096 A  
HETATM    6  C   UNL     1     -10.411  15.026  68.987  1.00  0.00    -0.243 A  
HETATM    7  N   UNL     1      -9.330  14.226  68.973  1.00  0.00    -0.048 NA 
ENDROOT
BRANCH   5   8
HETATM    8  N   UNL     1      -8.355  12.075  68.561  1.00  0.00    -0.266 NA 
HETATM    9  H   UNL     1      -7.515  12.430  69.019  1.00  0.00     0.000 HD 
BRANCH   8  10
HETATM   10  C   UNL     1      -8.243  10.786  68.025  1.00  0.00    -0.115 A  
HETATM   11  C   UNL     1      -8.601  10.512  66.710  1.00  0.00    -0.126 A  
HETATM   12  C   UNL     1      -7.881   8.392  68.360  1.00  0.00    -0.113 A  
HETATM   13  C   UNL     1      -8.299   8.131  67.057  1.00  0.00    -0.116 A  
HETATM   14  C   UNL     1      -8.627   9.209  66.226  1.00  0.00    -0.137 A  
HETATM   15  C   UNL     1      -7.856   9.712  68.841  1.00  0.00    -0.081 A  
BRANCH  13  16
HETATM   16  O   UNL     1      -8.391   6.813  66.668  1.00  0.00    -0.112 OA 
BRANCH  16  17
HETATM   17  C   UNL     1      -8.658   5.945  67.771  1.00  0.00    -0.105 C  
BRANCH  17  18
HETATM   18  C   UNL     1      -8.771   4.465  67.402  1.00  0.00    -0.105 C  
BRANCH  18  19
HETATM   19  N   UNL     1      -9.294   3.721  68.559  1.00  0.00    -0.160 NA 
HETATM   20  C   UNL     1      -9.801   4.574  69.642  1.00  0.00    -0.218 C  
HETATM   21  C   UNL     1      -8.314   2.828  69.164  1.00  0.00    -0.059 C  
HETATM   22  C   UNL     1      -9.694   3.728  70.903  1.00  0.00    -0.248 C  
HETATM   23  C   UNL     1      -9.014   2.444  70.456  1.00  0.00    -0.158 C  
ENDBRANCH  18  19
ENDBRANCH  17  18
ENDBRANCH  16  17
ENDBRANCH  13  16
ENDBRANCH   8  10
ENDBRANCH   5   8
BRANCH   6  24
HETATM   24  N   UNL     1     -10.322  16.357  69.474  1.00  0.00    -0.288 NA 
HETATM   25  H   UNL     1     -10.371  16.421  70.491  1.00  0.00     0.000 HD 
BRANCH  24  26
HETATM   26  C   UNL     1     -10.180  17.615  68.837  1.00  0.00    -0.354 A  
HETATM   27  C   UNL     1     -11.148  18.208  68.021  1.00  0.00     0.169 A  
HETATM   28  C   UNL     1      -8.924  18.247  68.894  1.00  0.00    -0.148 A  
HETATM   29  C   UNL     1     -10.882  19.375  67.283  1.00  0.00    -0.561 A  
HETATM   30  C   UNL     1      -9.613  19.950  67.302  1.00  0.00    -0.502 A  
HETATM   31  C   UNL     1      -8.627  19.365  68.093  1.00  0.00    -0.336 A  
BRANCH  31  32
HETATM   32  S   UNL     1      -6.996  20.067  68.121  1.00  0.00    -0.292 S  
HETATM   33  O   UNL     1      -7.040  21.273  67.320  1.00  0.00    -0.522 OA 
HETATM   34  O   UNL     1      -6.545  20.108  69.494  1.00  0.00    -0.315 OA 
BRANCH  32  35
HETATM   35  N   UNL     1      -6.038  18.994  67.253  1.00  0.00    -0.169 N  
HETATM   36  C   UNL     1      -5.139  16.977  66.209  1.00  0.00     0.038 C  
HETATM   37  C   UNL     1      -6.119  16.824  68.478  1.00  0.00    -0.136 C  
HETATM   38  C   UNL     1      -7.597  17.223  66.469  1.00  0.00    -0.324 C  
HETATM   39  C   UNL     1      -6.252  17.531  67.126  1.00  0.00    -0.151 C  
HETATM   40  H   UNL     1      -5.231  19.385  66.766  1.00  0.00     0.000 HD 
ENDBRANCH  32  35
ENDBRANCH  31  32
ENDBRANCH  24  26
ENDBRANCH   6  24
TORSDOF 10
ENDMDL
MODEL      276
REMARK 921   NORMALIZED FREE ENERGY PREDICTED BY IDOCK:   -2.33 KCAL/MOL
REMARK 922        TOTAL FREE ENERGY PREDICTED BY IDOCK:   -5.04 KCAL/MOL
REMARK 923 INTER-LIGAND FREE ENERGY PREDICTED BY IDOCK:   -5.87 KCAL/MOL
REMARK 924 INTRA-LIGAND FREE ENERGY PREDICTED BY IDOCK:    0.83 KCAL/MOL
REMARK 927      BINDING AFFINITY PREDICTED BY RF-SCORE:    0.00 PKD
ROOT
HETATM    1  C   UNL     1     -12.826   8.827  73.229  1.00  0.00     1.201 C  
HETATM    2  C   UNL     1     -12.233   8.028  72.112  1.00  0.00    -0.377 A  
HETATM    3  C   UNL     1     -11.804   6.738  72.370  1.00  0.00    -0.181 A  
HETATM    4  N   UNL     1     -11.260   5.925  71.455  1.00  0.00    -0.257 NA 
HETATM    5  C   UNL     1     -11.105   6.434  70.232  1.00  0.00    -0.354 A  
HETATM    6  C   UNL     1     -12.102   8.465  70.795  1.00  0.00    -0.055 A  
HETATM    7  N   UNL     1     -11.520   7.668  69.882  1.00  0.00    -0.013 NA 
ENDROOT
BRANCH   5   8
HETATM    8  N   UNL     1     -10.469   5.588  69.322  1.00  0.00    -0.267 NA 
HETATM    9  H   UNL     1     -10.907   4.675  69.198  1.00  0.00     0.000 HD 
BRANCH   8  10
HETATM   10  C   UNL     1      -9.318   5.808  68.553  1.00  0.00    -0.121 A  
HETATM   11  C   UNL     1      -8.087   5.275  68.918  1.00  0.00    -0.086 A  
HETATM   12  C   UNL     1      -8.192   7.009  66.747  1.00  0.00    -0.111 A  
HETATM   13  C   UNL     1      -6.960   6.512  67.164  1.00  0.00    -0.071 A  
HETATM   14  C   UNL     1      -6.924   5.614  68.238  1.00  0.00    -0.068 A  
HETATM   15  C   UNL     1      -9.364   6.660  67.440  1.00  0.00    -0.136 A  
BRANCH  13  16
HETATM   16  O   UNL     1      -5.835   6.958  66.505  1.00  0.00    -0.027 OA 
BRANCH  16  17
HETATM   17  C   UNL     1      -5.500   8.300  66.863  1.00  0.00    -0.036 C  
BRANCH  17  18
HETATM   18  C   UNL     1      -6.210   9.373  66.037  1.00  0.00    -0.067 C  
BRANCH  18  19
HETATM   19  N   UNL     1      -5.890   9.174  64.615  1.00  0.00    -0.064 NA 
HETATM   20  C   UNL     1      -7.033   9.360  63.711  1.00  0.00    -0.095 C  
HETATM   21  C   UNL     1      -5.345   7.855  64.324  1.00  0.00    -0.036 C  
HETATM   22  C   UNL     1      -6.701   8.542  62.472  1.00  0.00    -0.095 C  
HETATM   23  C   UNL     1      -5.395   7.838  62.805  1.00  0.00    -0.051 C  
ENDBRANCH  18  19
ENDBRANCH  17  18
ENDBRANCH  16  17
ENDBRANCH  13  16
ENDBRANCH   8  10
ENDBRANCH   5   8
BRANCH   6  24
HETATM   24  N   UNL     1     -12.491   9.789  70.461  1.00  0.00    -0.495 NA 
HETATM   25  H   UNL     1     -13.236  10.155  71.054  1.00  0.00     0.000 HD 
BRANCH  24  26
HETATM   26  C   UNL     1     -12.055  10.707  69.473  1.00  0.00    -0.214 A  
HETATM   27  C   UNL     1     -11.528  10.348  68.229  1.00  0.00    -0.218 A  
HETATM   28  C   UNL     1     -11.999  12.071  69.816  1.00  0.00    -0.370 A  
HETATM   29  C   UNL     1     -10.957  11.297  67.363  1.00  0.00    -0.337 A  
HETATM   30  C   UNL     1     -10.852  12.633  67.748  1.00  0.00    -0.248 A  
HETATM   31  C   UNL     1     -11.355  13.011  68.991  1.00  0.00    -0.289 A  
BRANCH  31  32
HETATM   32  S   UNL     1     -11.217  14.702  69.513  1.00  0.00    -0.272 S  
HETATM   33  O   UNL     1     -10.155  14.758  70.496  1.00  0.00     0.311 OA 
HETATM   34  O   UNL     1     -11.177  15.538  68.334  1.00  0.00    -0.305 OA 
BRANCH  32  35
HETATM   35  N   UNL     1     -12.629  15.018  70.369  1.00  0.00    -0.454 N  
HETATM   36  C   UNL     1     -14.234  15.436  72.162  1.00  0.00    -0.660 C  
HETATM   37  C   UNL     1     -12.456  13.747  72.508  1.00  0.00     0.029 C  
HETATM   38  C   UNL     1     -11.886  16.206  72.423  1.00  0.00    -0.637 C  
HETATM   39  C   UNL     1     -12.761  15.094  71.846  1.00  0.00    -0.342 C  
HETATM   40  H   UNL     1     -13.476  15.171  69.822  1.00  0.00     0.000 HD 
ENDBRANCH  32  35
ENDBRANCH  31  32
ENDBRANCH  24  26
ENDBRANCH   6  24
TORSDOF 10
ENDMDL
MODEL      277
REMARK 921   NORMALIZED FREE ENERGY PREDICTED BY IDOCK:   -2.21 KCAL/MOL
REMARK 922        TOTAL FREE ENERGY PREDICTED BY IDOCK:   -4.85 KCAL/MOL
REMARK 923 INTER-LIGAND FREE ENERGY PREDICTED BY IDOCK:   -4.42 KCAL/MOL
REMARK 924 INTRA-LIGAND FREE ENERGY PREDICTED BY IDOCK:   -0.43 KCAL/MOL
REMARK 927      BINDING AFFINITY PREDICTED BY RF-SCORE:    0.00 PKD
ROOT
HETATM    1  C   UNL     1     -13.679  13.336  73.344  1.00  0.00     2.578 C  
HETATM    2  C   UNL     1     -13.110  14.067  72.170  1.00  0.00    -0.501 A  
HETATM    3  C   UNL     1     -13.238  15.444  72.116  1.00  0.00    -0.424 A  
HETATM    4  N   UNL     1     -12.771  16.208  71.120  1.00  0.00    -0.152 NA 
HETATM    5  C   UNL     1     -12.176  15.567  70.114  1.00  0.00    -0.376 A  
HETATM    6  C   UNL     1     -12.416  13.475  71.116  1.00  0.00    -0.339 A  
HETATM    7  N   UNL     1     -11.980  14.233  70.094  1.00  0.00    -0.305 NA 
ENDROOT
BRANCH   5   8
HETATM    8  N   UNL     1     -11.766  16.384  69.059  1.00  0.00    -0.181 NA 
HETATM    9  H   UNL     1     -12.486  16.998  68.679  1.00  0.00     0.000 HD 
BRANCH   8  10
HETATM   10  C   UNL     1     -10.509  16.486  68.446  1.00  0.00    -0.307 A  
HETATM   11  C   UNL     1      -9.610  15.428  68.452  1.00  0.00    -0.200 A  
HETATM   12  C   UNL     1      -8.781  17.868  67.407  1.00  0.00    -0.237 A  
HETATM   13  C   UNL     1      -7.876  16.812  67.476  1.00  0.00    -0.168 A  
HETATM   14  C   UNL     1      -8.314  15.579  67.973  1.00  0.00    -0.142 A  
HETATM   15  C   UNL     1     -10.091  17.706  67.892  1.00  0.00    -0.345 A  
BRANCH  13  16
HETATM   16  O   UNL     1      -6.581  17.054  67.069  1.00  0.00    -0.163 OA 
BRANCH  16  17
HETATM   17  C   UNL     1      -6.505  17.356  65.674  1.00  0.00     0.276 C  
BRANCH  17  18
HETATM   18  C   UNL     1      -5.129  17.829  65.202  1.00  0.00     0.124 C  
BRANCH  18  19
HETATM   19  N   UNL     1      -5.259  19.176  64.623  1.00  0.00    -0.176 NA 
HETATM   20  C   UNL     1      -6.389  19.950  65.152  1.00  0.00    -0.269 C  
HETATM   21  C   UNL     1      -5.405  19.171  63.173  1.00  0.00    -0.289 C  
HETATM   22  C   UNL     1      -6.727  20.959  64.064  1.00  0.00    -0.033 C  
HETATM   23  C   UNL     1      -5.804  20.613  62.906  1.00  0.00    -0.273 C  
ENDBRANCH  18  19
ENDBRANCH  17  18
ENDBRANCH  16  17
ENDBRANCH  13  16
ENDBRANCH   8  10
ENDBRANCH   5   8
BRANCH   6  24
HETATM   24  N   UNL     1     -12.273  12.063  71.085  1.00  0.00    -0.295 NA 
HETATM   25  H   UNL     1     -12.810  11.585  71.809  1.00  0.00     0.000 HD 
BRANCH  24  26
HETATM   26  C   UNL     1     -11.537  11.181  70.256  1.00  0.00    -0.296 A  
HETATM   27  C   UNL     1     -11.472   9.795  70.427  1.00  0.00    -0.347 A  
HETATM   28  C   UNL     1     -10.684  11.740  69.286  1.00  0.00    -0.117 A  
HETATM   29  C   UNL     1     -10.592   8.995  69.677  1.00  0.00    -0.230 A  
HETATM   30  C   UNL     1      -9.710   9.575  68.767  1.00  0.00    -0.164 A  
HETATM   31  C   UNL     1      -9.743  10.957  68.593  1.00  0.00    -0.185 A  
BRANCH  31  32
HETATM   32  S   UNL     1      -8.617  11.724  67.455  1.00  0.00    -0.165 S  
HETATM   33  O   UNL     1      -9.417  12.346  66.421  1.00  0.00    -0.237 OA 
HETATM   34  O   UNL     1      -7.662  12.498  68.216  1.00  0.00    -0.126 OA 
BRANCH  32  35
HETATM   35  N   UNL     1      -7.822  10.453  66.695  1.00  0.00    -0.116 N  
HETATM   36  C   UNL     1      -6.196   8.730  66.102  1.00  0.00    -0.059 C  
HETATM   37  C   UNL     1      -5.383  10.942  66.866  1.00  0.00    -0.058 C  
HETATM   38  C   UNL     1      -6.494   9.356  68.488  1.00  0.00    -0.053 C  
HETATM   39  C   UNL     1      -6.493   9.904  67.062  1.00  0.00    -0.069 C  
HETATM   40  H   UNL     1      -8.299  10.016  65.906  1.00  0.00     0.000 HD 
ENDBRANCH  32  35
ENDBRANCH  31  32
ENDBRANCH  24  26
ENDBRANCH   6  24
TORSDOF 10
ENDMDL
MODEL      278
REMARK 921   NORMALIZED FREE ENERGY PREDICTED BY IDOCK:   -2.14 KCAL/MOL
REMARK 922        TOTAL FREE ENERGY PREDICTED BY IDOCK:   -4.74 KCAL/MOL
REMARK 923 INTER-LIGAND FREE ENERGY PREDICTED BY IDOCK:   -5.68 KCAL/MOL
REMARK 924 INTRA-LIGAND FREE ENERGY PREDICTED BY IDOCK:    0.94 KCAL/MOL
REMARK 927      BINDING AFFINITY PREDICTED BY RF-SCORE:    0.00 PKD
ROOT
HETATM    1  C   UNL     1     -12.850   8.815  73.324  1.00  0.00     1.201 C  
HETATM    2  C   UNL     1     -12.274   8.037  72.184  1.00  0.00    -0.377 A  
HETATM    3  C   UNL     1     -11.843   6.742  72.412  1.00  0.00    -0.181 A  
HETATM    4  N   UNL     1     -11.313   5.945  71.475  1.00  0.00    -0.235 NA 
HETATM    5  C   UNL     1     -11.174   6.477  70.260  1.00  0.00    -0.374 A  
HETATM    6  C   UNL     1     -12.160   8.498  70.874  1.00  0.00    -0.139 A  
HETATM    7  N   UNL     1     -11.591   7.718  69.938  1.00  0.00     0.104 NA 
ENDROOT
BRANCH   5   8
HETATM    8  N   UNL     1     -10.551   5.647  69.325  1.00  0.00    -0.287 NA 
HETATM    9  H   UNL     1     -11.009   4.750  69.167  1.00  0.00     0.000 HD 
BRANCH   8  10
HETATM   10  C   UNL     1      -9.391   5.866  68.570  1.00  0.00    -0.120 A  
HETATM   11  C   UNL     1      -8.182   5.270  68.907  1.00  0.00    -0.089 A  
HETATM   12  C   UNL     1      -8.216   7.121  66.833  1.00  0.00    -0.117 A  
HETATM   13  C   UNL     1      -7.005   6.557  67.224  1.00  0.00    -0.075 A  
HETATM   14  C   UNL     1      -7.005   5.602  68.247  1.00  0.00    -0.068 A  
HETATM   15  C   UNL     1      -9.402   6.779  67.504  1.00  0.00    -0.129 A  
BRANCH  13  16
HETATM   16  O   UNL     1      -5.862   6.997  66.591  1.00  0.00    -0.027 OA 
BRANCH  16  17
HETATM   17  C   UNL     1      -5.475   8.301  67.028  1.00  0.00    -0.037 C  
BRANCH  17  18
HETATM   18  C   UNL     1      -6.164   9.449  66.290  1.00  0.00    -0.064 C  
BRANCH  18  19
HETATM   19  N   UNL     1      -5.935   9.296  64.845  1.00  0.00    -0.064 NA 
HETATM   20  C   UNL     1      -7.104   9.614  64.014  1.00  0.00    -0.116 C  
HETATM   21  C   UNL     1      -5.512   7.955  64.464  1.00  0.00    -0.040 C  
HETATM   22  C   UNL     1      -6.902   8.836  62.723  1.00  0.00    -0.090 C  
HETATM   23  C   UNL     1      -5.642   8.017  62.951  1.00  0.00    -0.064 C  
ENDBRANCH  18  19
ENDBRANCH  17  18
ENDBRANCH  16  17
ENDBRANCH  13  16
ENDBRANCH   8  10
ENDBRANCH   5   8
BRANCH   6  24
HETATM   24  N   UNL     1     -12.551   9.829  70.570  1.00  0.00    -0.512 NA 
HETATM   25  H   UNL     1     -13.284  10.186  71.183  1.00  0.00     0.000 HD 
BRANCH  24  26
HETATM   26  C   UNL     1     -12.131  10.763  69.591  1.00  0.00    -0.289 A  
HETATM   27  C   UNL     1     -11.670  10.426  68.315  1.00  0.00     0.047 A  
HETATM   28  C   UNL     1     -12.017  12.114  69.970  1.00  0.00    -0.391 A  
HETATM   29  C   UNL     1     -11.109  11.384  67.452  1.00  0.00    -0.349 A  
HETATM   30  C   UNL     1     -10.946  12.703  67.869  1.00  0.00    -0.262 A  
HETATM   31  C   UNL     1     -11.381  13.059  69.145  1.00  0.00    -0.273 A  
BRANCH  31  32
HETATM   32  S   UNL     1     -11.168  14.729  69.709  1.00  0.00    -0.264 S  
HETATM   33  O   UNL     1     -11.669  15.597  68.663  1.00  0.00    -0.366 OA 
HETATM   34  O   UNL     1     -11.686  14.820  71.056  1.00  0.00    -0.306 OA 
BRANCH  32  35
HETATM   35  N   UNL     1      -9.506  14.979  69.734  1.00  0.00    -0.461 N  
HETATM   36  C   UNL     1      -7.245  15.725  69.195  1.00  0.00    -0.192 C  
HETATM   37  C   UNL     1      -8.774  15.091  67.353  1.00  0.00    -0.208 C  
HETATM   38  C   UNL     1      -9.173  17.204  68.677  1.00  0.00    -0.263 C  
HETATM   39  C   UNL     1      -8.720  15.746  68.736  1.00  0.00    -0.203 C  
HETATM   40  H   UNL     1      -8.989  14.564  70.508  1.00  0.00     0.000 HD 
ENDBRANCH  32  35
ENDBRANCH  31  32
ENDBRANCH  24  26
ENDBRANCH   6  24
TORSDOF 10
ENDMDL
MODEL      279
REMARK 921   NORMALIZED FREE ENERGY PREDICTED BY IDOCK:   -1.95 KCAL/MOL
REMARK 922        TOTAL FREE ENERGY PREDICTED BY IDOCK:   -4.43 KCAL/MOL
REMARK 923 INTER-LIGAND FREE ENERGY PREDICTED BY IDOCK:   -4.52 KCAL/MOL
REMARK 924 INTRA-LIGAND FREE ENERGY PREDICTED BY IDOCK:    0.09 KCAL/MOL
REMARK 927      BINDING AFFINITY PREDICTED BY RF-SCORE:    0.00 PKD
ROOT
HETATM    1  C   UNL     1     -13.679  13.336  73.343  1.00  0.00     2.578 C  
HETATM    2  C   UNL     1     -13.112  14.070  72.170  1.00  0.00    -0.501 A  
HETATM    3  C   UNL     1     -13.241  15.447  72.119  1.00  0.00    -0.424 A  
HETATM    4  N   UNL     1     -12.776  16.214  71.125  1.00  0.00    -0.152 NA 
HETATM    5  C   UNL     1     -12.181  15.575  70.117  1.00  0.00    -0.376 A  
HETATM    6  C   UNL     1     -12.418  13.481  71.114  1.00  0.00    -0.339 A  
HETATM    7  N   UNL     1     -11.983  14.242  70.094  1.00  0.00    -0.305 NA 
ENDROOT
BRANCH   5   8
HETATM    8  N   UNL     1     -11.772  16.395  69.063  1.00  0.00    -0.181 NA 
HETATM    9  H   UNL     1     -12.495  17.006  68.683  1.00  0.00     0.000 HD 
BRANCH   8  10
HETATM   10  C   UNL     1     -10.516  16.503  68.452  1.00  0.00    -0.307 A  
HETATM   11  C   UNL     1      -9.613  15.447  68.457  1.00  0.00    -0.201 A  
HETATM   12  C   UNL     1      -8.791  17.892  67.418  1.00  0.00    -0.245 A  
HETATM   13  C   UNL     1      -7.882  16.839  67.485  1.00  0.00    -0.168 A  
HETATM   14  C   UNL     1      -8.317  15.604  67.980  1.00  0.00    -0.146 A  
HETATM   15  C   UNL     1     -10.100  17.725  67.901  1.00  0.00    -0.342 A  
BRANCH  13  16
HETATM   16  O   UNL     1      -6.588  17.087  67.081  1.00  0.00    -0.148 OA 
BRANCH  16  17
HETATM   17  C   UNL     1      -6.511  17.392  65.687  1.00  0.00     0.276 C  
BRANCH  17  18
HETATM   18  C   UNL     1      -5.136  17.871  65.217  1.00  0.00    -0.060 C  
BRANCH  18  19
HETATM   19  N   UNL     1      -5.269  19.219  64.642  1.00  0.00    -0.168 NA 
HETATM   20  C   UNL     1      -6.401  19.988  65.172  1.00  0.00    -0.273 C  
HETATM   21  C   UNL     1      -5.414  19.218  63.192  1.00  0.00    -0.298 C  
HETATM   22  C   UNL     1      -6.742  21.000  64.087  1.00  0.00    -0.031 C  
HETATM   23  C   UNL     1      -5.816  20.660  62.930  1.00  0.00    -0.273 C  
ENDBRANCH  18  19
ENDBRANCH  17  18
ENDBRANCH  16  17
ENDBRANCH  13  16
ENDBRANCH   8  10
ENDBRANCH   5   8
BRANCH   6  24
HETATM   24  N   UNL     1     -12.274  12.069  71.081  1.00  0.00    -0.295 NA 
HETATM   25  H   UNL     1     -12.809  11.589  71.804  1.00  0.00     0.000 HD 
BRANCH  24  26
HETATM   26  C   UNL     1     -11.538  11.189  70.248  1.00  0.00    -0.296 A  
HETATM   27  C   UNL     1     -11.127   9.904  70.613  1.00  0.00    -0.409 A  
HETATM   28  C   UNL     1     -11.047  11.689  69.027  1.00  0.00    -0.297 A  
HETATM   29  C   UNL     1     -10.257   9.146  69.810  1.00  0.00    -0.219 A  
HETATM   30  C   UNL     1      -9.730   9.683  68.637  1.00  0.00    -0.162 A  
HETATM   31  C   UNL     1     -10.111  10.970  68.261  1.00  0.00    -0.177 A  
BRANCH  31  32
HETATM   32  S   UNL     1      -9.440  11.685  66.781  1.00  0.00    -0.190 S  
HETATM   33  O   UNL     1      -8.785  12.918  67.165  1.00  0.00    -0.195 OA 
HETATM   34  O   UNL     1      -8.717  10.655  66.069  1.00  0.00    -0.164 OA 
BRANCH  32  35
HETATM   35  N   UNL     1     -10.774  12.156  65.874  1.00  0.00    -0.257 N  
HETATM   36  C   UNL     1     -12.335  12.542  64.036  1.00  0.00    -0.557 C  
HETATM   37  C   UNL     1      -9.906  12.800  63.626  1.00  0.00     0.452 C  
HETATM   38  C   UNL     1     -10.903  10.512  64.013  1.00  0.00     0.664 C  
HETATM   39  C   UNL     1     -10.942  11.987  64.409  1.00  0.00    -0.333 C  
HETATM   40  H   UNL     1     -11.541  12.601  66.377  1.00  0.00     0.000 HD 
ENDBRANCH  32  35
ENDBRANCH  31  32
ENDBRANCH  24  26
ENDBRANCH   6  24
TORSDOF 10
ENDMDL
MODEL      280
REMARK 921   NORMALIZED FREE ENERGY PREDICTED BY IDOCK:   -1.86 KCAL/MOL
REMARK 922        TOTAL FREE ENERGY PREDICTED BY IDOCK:   -4.29 KCAL/MOL
REMARK 923 INTER-LIGAND FREE ENERGY PREDICTED BY IDOCK:   -3.72 KCAL/MOL
REMARK 924 INTRA-LIGAND FREE ENERGY PREDICTED BY IDOCK:   -0.57 KCAL/MOL
REMARK 927      BINDING AFFINITY PREDICTED BY RF-SCORE:    0.00 PKD
ROOT
HETATM    1  C   UNL     1      -5.536  11.714  73.627  1.00  0.00     1.434 C  
HETATM    2  C   UNL     1      -5.440  12.695  72.503  1.00  0.00     0.665 A  
HETATM    3  C   UNL     1      -5.250  14.033  72.800  1.00  0.00    -0.218 A  
HETATM    4  N   UNL     1      -5.147  15.005  71.884  1.00  0.00    -0.154 NA 
HETATM    5  C   UNL     1      -5.272  14.629  70.611  1.00  0.00    -0.124 A  
HETATM    6  C   UNL     1      -5.491  12.371  71.148  1.00  0.00    -0.071 A  
HETATM    7  N   UNL     1      -5.428  13.347  70.225  1.00  0.00    -0.115 NA 
ENDROOT
BRANCH   5   8
HETATM    8  N   UNL     1      -5.232  15.674  69.685  1.00  0.00    -0.104 NA 
HETATM    9  H   UNL     1      -4.321  16.117  69.569  1.00  0.00     0.000 HD 
BRANCH   8  10
HETATM   10  C   UNL     1      -6.259  16.202  68.892  1.00  0.00    -0.132 A  
HETATM   11  C   UNL     1      -7.545  16.374  69.388  1.00  0.00    -0.098 A  
HETATM   12  C   UNL     1      -7.086  16.870  66.691  1.00  0.00    -0.289 A  
HETATM   13  C   UNL     1      -8.380  16.980  67.194  1.00  0.00    -0.191 A  
HETATM   14  C   UNL     1      -8.593  16.760  68.560  1.00  0.00    -0.245 A  
HETATM   15  C   UNL     1      -6.032  16.481  67.535  1.00  0.00    -0.176 A  
BRANCH  13  16
HETATM   16  O   UNL     1      -9.388  17.277  66.303  1.00  0.00    -0.319 OA 
BRANCH  16  17
HETATM   17  C   UNL     1     -10.031  16.100  65.809  1.00  0.00    -0.340 C  
BRANCH  17  18
HETATM   18  C   UNL     1     -10.124  14.956  66.819  1.00  0.00    -0.251 C  
BRANCH  18  19
HETATM   19  N   UNL     1     -10.563  13.736  66.123  1.00  0.00    -0.287 NA 
HETATM   20  C   UNL     1      -9.836  13.462  64.877  1.00  0.00    -0.016 C  
HETATM   21  C   UNL     1     -11.979  13.743  65.780  1.00  0.00    -0.399 C  
HETATM   22  C   UNL     1     -10.782  12.614  64.038  1.00  0.00    -0.457 C  
HETATM   23  C   UNL     1     -12.068  12.547  64.846  1.00  0.00    -0.499 C  
ENDBRANCH  18  19
ENDBRANCH  17  18
ENDBRANCH  16  17
ENDBRANCH  13  16
ENDBRANCH   8  10
ENDBRANCH   5   8
BRANCH   6  24
HETATM   24  N   UNL     1      -5.717  11.022  70.766  1.00  0.00    -0.248 NA 
HETATM   25  H   UNL     1      -4.997  10.380  71.099  1.00  0.00     0.000 HD 
BRANCH  24  26
HETATM   26  C   UNL     1      -6.736  10.385  70.016  1.00  0.00    -0.145 A  
HETATM   27  C   UNL     1      -7.869  11.026  69.506  1.00  0.00     0.083 A  
HETATM   28  C   UNL     1      -6.696   8.982  69.903  1.00  0.00    -0.046 A  
HETATM   29  C   UNL     1      -8.926  10.309  68.919  1.00  0.00    -0.164 A  
HETATM   30  C   UNL     1      -8.898   8.916  68.874  1.00  0.00    -0.137 A  
HETATM   31  C   UNL     1      -7.786   8.254  69.393  1.00  0.00    -0.104 A  
BRANCH  31  32
HETATM   32  S   UNL     1      -7.733   6.480  69.366  1.00  0.00    -0.102 S  
HETATM   33  O   UNL     1      -9.052   6.010  69.737  1.00  0.00    -0.137 OA 
HETATM   34  O   UNL     1      -7.123   6.064  68.123  1.00  0.00    -0.073 OA 
BRANCH  32  35
HETATM   35  N   UNL     1      -6.734   6.048  70.647  1.00  0.00    -0.051 N  
HETATM   36  C   UNL     1      -5.756   4.898  72.566  1.00  0.00    -0.009 C  
HETATM   37  C   UNL     1      -8.219   5.105  72.414  1.00  0.00    -0.117 C  
HETATM   38  C   UNL     1      -6.964   3.580  70.841  1.00  0.00    -0.033 C  
HETATM   39  C   UNL     1      -6.947   4.915  71.582  1.00  0.00    -0.052 C  
HETATM   40  H   UNL     1      -5.901   6.618  70.795  1.00  0.00     0.000 HD 
ENDBRANCH  32  35
ENDBRANCH  31  32
ENDBRANCH  24  26
ENDBRANCH   6  24
TORSDOF 10
ENDMDL
MODEL      281
REMARK 921   NORMALIZED FREE ENERGY PREDICTED BY IDOCK:   -1.78 KCAL/MOL
REMARK 922        TOTAL FREE ENERGY PREDICTED BY IDOCK:   -4.16 KCAL/MOL
REMARK 923 INTER-LIGAND FREE ENERGY PREDICTED BY IDOCK:   -3.07 KCAL/MOL
REMARK 924 INTRA-LIGAND FREE ENERGY PREDICTED BY IDOCK:   -1.10 KCAL/MOL
REMARK 927      BINDING AFFINITY PREDICTED BY RF-SCORE:    0.00 PKD
ROOT
HETATM    1  C   UNL     1      -9.294  19.792  66.964  1.00  0.00    -0.460 C  
HETATM    2  C   UNL     1      -8.636  18.577  67.537  1.00  0.00    -0.272 A  
HETATM    3  C   UNL     1      -8.009  18.677  68.767  1.00  0.00    -0.286 A  
HETATM    4  N   UNL     1      -7.388  17.663  69.384  1.00  0.00    -0.019 NA 
HETATM    5  C   UNL     1      -7.363  16.502  68.729  1.00  0.00    -0.208 A  
HETATM    6  C   UNL     1      -8.628  17.315  66.947  1.00  0.00    -0.240 A  
HETATM    7  N   UNL     1      -7.972  16.303  67.543  1.00  0.00    -0.145 NA 
ENDROOT
BRANCH   5   8
HETATM    8  N   UNL     1      -6.647  15.486  69.365  1.00  0.00    -0.147 NA 
HETATM    9  H   UNL     1      -6.277  15.725  70.285  1.00  0.00     0.000 HD 
BRANCH   8  10
HETATM   10  C   UNL     1      -6.361  14.186  68.926  1.00  0.00    -0.091 A  
HETATM   11  C   UNL     1      -6.009  13.926  67.607  1.00  0.00    -0.059 A  
HETATM   12  C   UNL     1      -6.381  11.776  69.332  1.00  0.00    -0.114 A  
HETATM   13  C   UNL     1      -6.087  11.533  67.992  1.00  0.00    -0.046 A  
HETATM   14  C   UNL     1      -5.869  12.624  67.142  1.00  0.00     0.043 A  
HETATM   15  C   UNL     1      -6.520  13.096  69.795  1.00  0.00    -0.009 A  
BRANCH  13  16
HETATM   16  O   UNL     1      -6.052  10.221  67.574  1.00  0.00    -0.053 OA 
BRANCH  16  17
HETATM   17  C   UNL     1      -7.311   9.791  67.052  1.00  0.00    -0.091 C  
BRANCH  17  18
HETATM   18  C   UNL     1      -7.858   8.511  67.686  1.00  0.00    -0.103 C  
BRANCH  18  19
HETATM   19  N   UNL     1      -7.878   7.445  66.672  1.00  0.00    -0.107 NA 
HETATM   20  C   UNL     1      -7.436   6.136  67.171  1.00  0.00    -0.081 C  
HETATM   21  C   UNL     1      -7.057   7.739  65.505  1.00  0.00    -0.063 C  
HETATM   22  C   UNL     1      -6.936   5.387  65.943  1.00  0.00    -0.066 C  
HETATM   23  C   UNL     1      -7.034   6.391  64.805  1.00  0.00    -0.051 C  
ENDBRANCH  18  19
ENDBRANCH  17  18
ENDBRANCH  16  17
ENDBRANCH  13  16
ENDBRANCH   8  10
ENDBRANCH   5   8
BRANCH   6  24
HETATM   24  N   UNL     1      -9.224  17.142  65.670  1.00  0.00    -0.412 NA 
HETATM   25  H   UNL     1      -8.885  17.804  64.971  1.00  0.00     0.000 HD 
BRANCH  24  26
HETATM   26  C   UNL     1     -10.192  16.238  65.166  1.00  0.00    -0.005 A  
HETATM   27  C   UNL     1     -11.274  16.600  64.358  1.00  0.00     0.218 A  
HETATM   28  C   UNL     1     -10.164  14.910  65.632  1.00  0.00    -0.382 A  
HETATM   29  C   UNL     1     -12.293  15.688  64.031  1.00  0.00     0.235 A  
HETATM   30  C   UNL     1     -12.281  14.396  64.554  1.00  0.00    -0.483 A  
HETATM   31  C   UNL     1     -11.222  14.019  65.377  1.00  0.00    -0.319 A  
BRANCH  31  32
HETATM   32  S   UNL     1     -11.192  12.386  66.072  1.00  0.00    -0.352 S  
HETATM   33  O   UNL     1     -12.570  11.973  66.246  1.00  0.00     0.174 OA 
HETATM   34  O   UNL     1     -10.273  11.582  65.298  1.00  0.00    -0.243 OA 
BRANCH  32  35
HETATM   35  N   UNL     1     -10.588  12.578  67.629  1.00  0.00    -0.214 N  
HETATM   36  C   UNL     1     -10.393  12.976  70.030  1.00  0.00     1.742 C  
HETATM   37  C   UNL     1     -11.959  14.362  68.703  1.00  0.00    -0.332 C  
HETATM   38  C   UNL     1     -12.457  11.923  69.132  1.00  0.00     0.263 C  
HETATM   39  C   UNL     1     -11.370  12.954  68.833  1.00  0.00    -0.288 C  
HETATM   40  H   UNL     1      -9.589  12.420  67.758  1.00  0.00     0.000 HD 
ENDBRANCH  32  35
ENDBRANCH  31  32
ENDBRANCH  24  26
ENDBRANCH   6  24
TORSDOF 10
ENDMDL
MODEL      282
REMARK 921   NORMALIZED FREE ENERGY PREDICTED BY IDOCK:   -1.68 KCAL/MOL
REMARK 922        TOTAL FREE ENERGY PREDICTED BY IDOCK:   -4.01 KCAL/MOL
REMARK 923 INTER-LIGAND FREE ENERGY PREDICTED BY IDOCK:   -3.99 KCAL/MOL
REMARK 924 INTRA-LIGAND FREE ENERGY PREDICTED BY IDOCK:   -0.02 KCAL/MOL
REMARK 927      BINDING AFFINITY PREDICTED BY RF-SCORE:    0.00 PKD
ROOT
HETATM    1  C   UNL     1      -8.299   7.756  65.988  1.00  0.00    -0.134 C  
HETATM    2  C   UNL     1      -7.537   8.913  66.553  1.00  0.00    -0.092 A  
HETATM    3  C   UNL     1      -7.497  10.097  65.838  1.00  0.00    -0.125 A  
HETATM    4  N   UNL     1      -6.852  11.200  66.238  1.00  0.00    -0.097 NA 
HETATM    5  C   UNL     1      -6.188  11.109  67.391  1.00  0.00    -0.066 A  
HETATM    6  C   UNL     1      -6.878   8.916  67.781  1.00  0.00    -0.070 A  
HETATM    7  N   UNL     1      -6.195  10.008  68.169  1.00  0.00    -0.053 NA 
ENDROOT
BRANCH   5   8
HETATM    8  N   UNL     1      -5.467  12.252  67.744  1.00  0.00    -0.076 NA 
HETATM    9  H   UNL     1      -4.463  12.114  67.857  1.00  0.00     0.000 HD 
BRANCH   8  10
HETATM   10  C   UNL     1      -5.919  13.559  67.964  1.00  0.00    -0.131 A  
HETATM   11  C   UNL     1      -5.549  14.276  69.096  1.00  0.00    -0.087 A  
HETATM   12  C   UNL     1      -7.420  15.395  67.371  1.00  0.00    -0.239 A  
HETATM   13  C   UNL     1      -7.081  16.071  68.540  1.00  0.00    -0.132 A  
HETATM   14  C   UNL     1      -6.113  15.513  69.384  1.00  0.00    -0.123 A  
HETATM   15  C   UNL     1      -6.844  14.145  67.086  1.00  0.00     0.424 A  
BRANCH  13  16
HETATM   16  O   UNL     1      -7.743  17.248  68.812  1.00  0.00    -0.258 OA 
BRANCH  16  17
HETATM   17  C   UNL     1      -9.151  17.135  68.593  1.00  0.00    -0.268 C  
BRANCH  17  18
HETATM   18  C   UNL     1      -9.975  16.911  69.861  1.00  0.00     0.404 C  
BRANCH  18  19
HETATM   19  N   UNL     1     -10.672  15.620  69.759  1.00  0.00    -0.280 NA 
HETATM   20  C   UNL     1     -11.304  15.381  68.454  1.00  0.00    -0.339 C  
HETATM   21  C   UNL     1     -11.716  15.444  70.760  1.00  0.00    -0.348 C  
HETATM   22  C   UNL     1     -12.429  14.393  68.728  1.00  0.00     0.101 C  
HETATM   23  C   UNL     1     -12.429  14.208  70.237  1.00  0.00    -0.416 C  
ENDBRANCH  18  19
ENDBRANCH  17  18
ENDBRANCH  16  17
ENDBRANCH  13  16
ENDBRANCH   8  10
ENDBRANCH   5   8
BRANCH   6  24
HETATM   24  N   UNL     1      -6.848   7.727  68.556  1.00  0.00    -0.064 NA 
HETATM   25  H   UNL     1      -5.922   7.504  68.920  1.00  0.00     0.000 HD 
BRANCH  24  26
HETATM   26  C   UNL     1      -7.842   6.788  68.928  1.00  0.00    -0.111 A  
HETATM   27  C   UNL     1      -8.556   6.818  70.129  1.00  0.00    -0.140 A  
HETATM   28  C   UNL     1      -8.019   5.655  68.113  1.00  0.00    -0.097 A  
HETATM   29  C   UNL     1      -9.404   5.765  70.515  1.00  0.00    -0.189 A  
HETATM   30  C   UNL     1      -9.518   4.622  69.725  1.00  0.00    -0.238 A  
HETATM   31  C   UNL     1      -8.801   4.562  68.531  1.00  0.00    -0.103 A  
BRANCH  31  32
HETATM   32  S   UNL     1      -8.912   3.111  67.515  1.00  0.00    -0.174 S  
HETATM   33  O   UNL     1      -9.722   2.150  68.235  1.00  0.00    -0.159 OA 
HETATM   34  O   UNL     1      -9.271   3.523  66.176  1.00  0.00    -0.153 OA 
BRANCH  32  35
HETATM   35  N   UNL     1      -7.363   2.460  67.500  1.00  0.00    -0.056 N  
HETATM   36  C   UNL     1      -5.128   1.756  66.813  1.00  0.00    -0.005 C  
HETATM   37  C   UNL     1      -7.002   1.548  65.207  1.00  0.00    -0.042 C  
HETATM   38  C   UNL     1      -6.107   3.823  65.842  1.00  0.00    -0.028 C  
HETATM   39  C   UNL     1      -6.441   2.417  66.337  1.00  0.00    -0.028 C  
HETATM   40  H   UNL     1      -7.023   2.058  68.373  1.00  0.00     0.000 HD 
ENDBRANCH  32  35
ENDBRANCH  31  32
ENDBRANCH  24  26
ENDBRANCH   6  24
TORSDOF 10
ENDMDL
MODEL      283
REMARK 921   NORMALIZED FREE ENERGY PREDICTED BY IDOCK:   -1.63 KCAL/MOL
REMARK 922        TOTAL FREE ENERGY PREDICTED BY IDOCK:   -3.93 KCAL/MOL
REMARK 923 INTER-LIGAND FREE ENERGY PREDICTED BY IDOCK:   -5.26 KCAL/MOL
REMARK 924 INTRA-LIGAND FREE ENERGY PREDICTED BY IDOCK:    1.33 KCAL/MOL
REMARK 927      BINDING AFFINITY PREDICTED BY RF-SCORE:    0.00 PKD
ROOT
HETATM    1  C   UNL     1     -10.154   9.896  65.661  1.00  0.00    -0.307 C  
HETATM    2  C   UNL     1      -9.812  11.158  66.387  1.00  0.00    -0.248 A  
HETATM    3  C   UNL     1     -10.579  12.287  66.159  1.00  0.00    -0.249 A  
HETATM    4  N   UNL     1     -10.375  13.472  66.748  1.00  0.00    -0.261 NA 
HETATM    5  C   UNL     1      -9.335  13.545  67.579  1.00  0.00    -0.220 A  
HETATM    6  C   UNL     1      -8.786  11.294  67.320  1.00  0.00    -0.145 A  
HETATM    7  N   UNL     1      -8.551  12.492  67.885  1.00  0.00    -0.169 NA 
ENDROOT
BRANCH   5   8
HETATM    8  N   UNL     1      -9.104  14.812  68.120  1.00  0.00    -0.175 NA 
HETATM    9  H   UNL     1      -9.804  15.132  68.790  1.00  0.00     0.000 HD 
BRANCH   8  10
HETATM   10  C   UNL     1      -8.054  15.708  67.879  1.00  0.00    -0.141 A  
HETATM   11  C   UNL     1      -7.440  16.404  68.913  1.00  0.00    -0.214 A  
HETATM   12  C   UNL     1      -6.713  17.001  66.296  1.00  0.00    -0.140 A  
HETATM   13  C   UNL     1      -6.152  17.728  67.343  1.00  0.00    -0.147 A  
HETATM   14  C   UNL     1      -6.501  17.396  68.657  1.00  0.00    -0.191 A  
HETATM   15  C   UNL     1      -7.661  15.998  66.563  1.00  0.00    -0.100 A  
BRANCH  13  16
HETATM   16  O   UNL     1      -5.298  18.759  67.018  1.00  0.00    -0.136 OA 
BRANCH  16  17
HETATM   17  C   UNL     1      -5.605  19.329  65.743  1.00  0.00    -0.158 C  
BRANCH  17  18
HETATM   18  C   UNL     1      -6.957  20.040  65.675  1.00  0.00    -0.309 C  
BRANCH  18  19
HETATM   19  N   UNL     1      -7.709  19.759  66.908  1.00  0.00    -0.262 NA 
HETATM   20  C   UNL     1      -9.101  19.350  66.681  1.00  0.00    -0.346 C  
HETATM   21  C   UNL     1      -7.757  20.889  67.827  1.00  0.00    -0.038 C  
HETATM   22  C   UNL     1      -9.840  19.713  67.962  1.00  0.00    -0.524 C  
HETATM   23  C   UNL     1      -8.807  20.424  68.822  1.00  0.00     0.504 C  
ENDBRANCH  18  19
ENDBRANCH  17  18
ENDBRANCH  16  17
ENDBRANCH  13  16
ENDBRANCH   8  10
ENDBRANCH   5   8
BRANCH   6  24
HETATM   24  N   UNL     1      -7.935  10.188  67.582  1.00  0.00    -0.102 NA 
HETATM   25  H   UNL     1      -7.669  10.105  68.564  1.00  0.00     0.000 HD 
BRANCH  24  26
HETATM   26  C   UNL     1      -7.381   9.175  66.761  1.00  0.00    -0.086 A  
HETATM   27  C   UNL     1      -6.388   9.385  65.799  1.00  0.00    -0.068 A  
HETATM   28  C   UNL     1      -7.970   7.898  66.795  1.00  0.00    -0.107 A  
HETATM   29  C   UNL     1      -6.001   8.376  64.900  1.00  0.00    -0.052 A  
HETATM   30  C   UNL     1      -6.641   7.138  64.907  1.00  0.00    -0.043 A  
HETATM   31  C   UNL     1      -7.647   6.912  65.845  1.00  0.00    -0.090 A  
BRANCH  31  32
HETATM   32  S   UNL     1      -8.492   5.351  65.864  1.00  0.00    -0.132 S  
HETATM   33  O   UNL     1      -7.830   4.522  66.850  1.00  0.00    -0.096 OA 
HETATM   34  O   UNL     1      -9.913   5.607  65.947  1.00  0.00    -0.048 OA 
BRANCH  32  35
HETATM   35  N   UNL     1      -8.141   4.640  64.382  1.00  0.00    -0.101 N  
HETATM   36  C   UNL     1      -8.261   3.303  62.341  1.00  0.00    -0.073 C  
HETATM   37  C   UNL     1      -9.074   2.329  64.468  1.00  0.00    -0.126 C  
HETATM   38  C   UNL     1     -10.355   4.192  63.341  1.00  0.00    -0.058 C  
HETATM   39  C   UNL     1      -8.971   3.634  63.673  1.00  0.00    -0.098 C  
HETATM   40  H   UNL     1      -7.276   4.928  63.925  1.00  0.00     0.000 HD 
ENDBRANCH  32  35
ENDBRANCH  31  32
ENDBRANCH  24  26
ENDBRANCH   6  24
TORSDOF 10
ENDMDL
MODEL      284
REMARK 921   NORMALIZED FREE ENERGY PREDICTED BY IDOCK:   -1.37 KCAL/MOL
REMARK 922        TOTAL FREE ENERGY PREDICTED BY IDOCK:   -3.52 KCAL/MOL
REMARK 923 INTER-LIGAND FREE ENERGY PREDICTED BY IDOCK:   -3.86 KCAL/MOL
REMARK 924 INTRA-LIGAND FREE ENERGY PREDICTED BY IDOCK:    0.34 KCAL/MOL
REMARK 927      BINDING AFFINITY PREDICTED BY RF-SCORE:    0.00 PKD
ROOT
HETATM    1  C   UNL     1     -11.598  11.679  62.854  1.00  0.00     0.333 C  
HETATM    2  C   UNL     1     -11.430  12.778  63.854  1.00  0.00    -0.505 A  
HETATM    3  C   UNL     1     -12.089  13.977  63.644  1.00  0.00    -0.112 A  
HETATM    4  N   UNL     1     -12.020  15.032  64.465  1.00  0.00    -0.423 NA 
HETATM    5  C   UNL     1     -11.230  14.898  65.531  1.00  0.00    -0.348 A  
HETATM    6  C   UNL     1     -10.679  12.690  65.025  1.00  0.00    -0.293 A  
HETATM    7  N   UNL     1     -10.574  13.760  65.833  1.00  0.00    -0.284 NA 
ENDROOT
BRANCH   5   8
HETATM    8  N   UNL     1     -11.122  16.040  66.328  1.00  0.00    -0.060 NA 
HETATM    9  H   UNL     1     -11.910  16.211  66.951  1.00  0.00     0.000 HD 
BRANCH   8  10
HETATM   10  C   UNL     1     -10.090  16.986  66.397  1.00  0.00    -0.317 A  
HETATM   11  C   UNL     1     -10.355  18.348  66.466  1.00  0.00    -0.426 A  
HETATM   12  C   UNL     1      -7.712  17.522  66.216  1.00  0.00    -0.334 A  
HETATM   13  C   UNL     1      -8.003  18.883  66.228  1.00  0.00    -0.273 A  
HETATM   14  C   UNL     1      -9.334  19.287  66.388  1.00  0.00    -0.399 A  
HETATM   15  C   UNL     1      -8.750  16.578  66.298  1.00  0.00    -0.369 A  
BRANCH  13  16
HETATM   16  O   UNL     1      -6.955  19.762  66.055  1.00  0.00    -0.236 OA 
BRANCH  16  17
HETATM   17  C   UNL     1      -6.852  20.694  67.133  1.00  0.00    -0.307 C  
BRANCH  17  18
HETATM   18  C   UNL     1      -6.231  20.123  68.409  1.00  0.00    -0.285 C  
BRANCH  18  19
HETATM   19  N   UNL     1      -7.306  19.773  69.351  1.00  0.00    -0.257 NA 
HETATM   20  C   UNL     1      -7.483  18.329  69.549  1.00  0.00     0.276 C  
HETATM   21  C   UNL     1      -8.608  20.299  68.964  1.00  0.00     0.555 C  
HETATM   22  C   UNL     1      -8.929  18.160  69.995  1.00  0.00     1.936 C  
HETATM   23  C   UNL     1      -9.528  19.555  69.919  1.00  0.00     0.485 C  
ENDBRANCH  18  19
ENDBRANCH  17  18
ENDBRANCH  16  17
ENDBRANCH  13  16
ENDBRANCH   8  10
ENDBRANCH   5   8
BRANCH   6  24
HETATM   24  N   UNL     1      -9.949  11.502  65.293  1.00  0.00    -0.250 NA 
HETATM   25  H   UNL     1      -9.393  11.180  64.501  1.00  0.00     0.000 HD 
BRANCH  24  26
HETATM   26  C   UNL     1      -9.834  10.672  66.436  1.00  0.00    -0.211 A  
HETATM   27  C   UNL     1     -10.581  10.822  67.608  1.00  0.00    -0.271 A  
HETATM   28  C   UNL     1      -8.792   9.726  66.465  1.00  0.00    -0.154 A  
HETATM   29  C   UNL     1     -10.303  10.076  68.766  1.00  0.00    -0.216 A  
HETATM   30  C   UNL     1      -9.226   9.191  68.796  1.00  0.00    -0.136 A  
HETATM   31  C   UNL     1      -8.456   9.038  67.645  1.00  0.00    -0.117 A  
BRANCH  31  32
HETATM   32  S   UNL     1      -7.068   7.932  67.661  1.00  0.00    -0.084 S  
HETATM   33  O   UNL     1      -6.534   7.900  66.315  1.00  0.00    -0.045 OA 
HETATM   34  O   UNL     1      -6.224   8.281  68.782  1.00  0.00    -0.043 OA 
BRANCH  32  35
HETATM   35  N   UNL     1      -7.722   6.404  67.913  1.00  0.00    -0.102 N  
HETATM   36  C   UNL     1      -9.017   4.347  67.684  1.00  0.00    -0.134 C  
HETATM   37  C   UNL     1     -10.087   6.511  67.132  1.00  0.00    -0.223 C  
HETATM   38  C   UNL     1      -8.283   5.559  65.643  1.00  0.00    -0.127 C  
HETATM   39  C   UNL     1      -8.761   5.746  67.082  1.00  0.00    -0.108 C  
HETATM   40  H   UNL     1      -7.371   5.878  68.714  1.00  0.00     0.000 HD 
ENDBRANCH  32  35
ENDBRANCH  31  32
ENDBRANCH  24  26
ENDBRANCH   6  24
TORSDOF 10
ENDMDL
MODEL      285
REMARK 921   NORMALIZED FREE ENERGY PREDICTED BY IDOCK:   -1.16 KCAL/MOL
REMARK 922        TOTAL FREE ENERGY PREDICTED BY IDOCK:   -3.18 KCAL/MOL
REMARK 923 INTER-LIGAND FREE ENERGY PREDICTED BY IDOCK:   -2.72 KCAL/MOL
REMARK 924 INTRA-LIGAND FREE ENERGY PREDICTED BY IDOCK:   -0.47 KCAL/MOL
REMARK 927      BINDING AFFINITY PREDICTED BY RF-SCORE:    0.00 PKD
ROOT
HETATM    1  C   UNL     1      -5.126   9.838  73.373  1.00  0.00    -0.045 C  
HETATM    2  C   UNL     1      -5.275  10.836  72.270  1.00  0.00     0.248 A  
HETATM    3  C   UNL     1      -5.253  12.184  72.582  1.00  0.00     0.511 A  
HETATM    4  N   UNL     1      -5.374  13.171  71.685  1.00  0.00    -0.337 NA 
HETATM    5  C   UNL     1      -5.560  12.796  70.419  1.00  0.00    -0.165 A  
HETATM    6  C   UNL     1      -5.403  10.524  70.917  1.00  0.00    -0.089 A  
HETATM    7  N   UNL     1      -5.566  11.509  70.016  1.00  0.00    -0.095 NA 
ENDROOT
BRANCH   5   8
HETATM    8  N   UNL     1      -5.756  13.847  69.520  1.00  0.00    -0.089 NA 
HETATM    9  H   UNL     1      -4.944  14.090  68.952  1.00  0.00     0.000 HD 
BRANCH   8  10
HETATM   10  C   UNL     1      -6.903  14.615  69.282  1.00  0.00    -0.143 A  
HETATM   11  C   UNL     1      -8.146  14.238  69.775  1.00  0.00     0.627 A  
HETATM   12  C   UNL     1      -8.002  16.439  68.082  1.00  0.00    -0.160 A  
HETATM   13  C   UNL     1      -9.246  16.010  68.539  1.00  0.00    -0.206 A  
HETATM   14  C   UNL     1      -9.302  14.921  69.417  1.00  0.00    -0.054 A  
HETATM   15  C   UNL     1      -6.838  15.744  68.450  1.00  0.00    -0.116 A  
BRANCH  13  16
HETATM   16  O   UNL     1     -10.361  16.673  68.074  1.00  0.00    -0.278 OA 
BRANCH  16  17
HETATM   17  C   UNL     1     -10.648  16.350  66.712  1.00  0.00    -0.238 C  
BRANCH  17  18
HETATM   18  C   UNL     1      -9.635  15.413  66.054  1.00  0.00    -0.347 C  
BRANCH  18  19
HETATM   19  N   UNL     1     -10.203  14.897  64.799  1.00  0.00    -0.251 NA 
HETATM   20  C   UNL     1     -11.670  14.932  64.746  1.00  0.00    -0.402 C  
HETATM   21  C   UNL     1      -9.813  13.523  64.508  1.00  0.00     0.216 C  
HETATM   22  C   UNL     1     -12.061  13.851  63.748  1.00  0.00    -0.330 C  
HETATM   23  C   UNL     1     -10.752  13.180  63.364  1.00  0.00     0.493 C  
ENDBRANCH  18  19
ENDBRANCH  17  18
ENDBRANCH  16  17
ENDBRANCH  13  16
ENDBRANCH   8  10
ENDBRANCH   5   8
BRANCH   6  24
HETATM   24  N   UNL     1      -5.467   9.161  70.522  1.00  0.00    -0.033 NA 
HETATM   25  H   UNL     1      -4.592   8.657  70.664  1.00  0.00     0.000 HD 
BRANCH  24  26
HETATM   26  C   UNL     1      -6.498   8.358  69.973  1.00  0.00    -0.038 A  
HETATM   27  C   UNL     1      -7.397   7.594  70.722  1.00  0.00    -0.067 A  
HETATM   28  C   UNL     1      -6.529   8.187  68.576  1.00  0.00    -0.054 A  
HETATM   29  C   UNL     1      -8.285   6.688  70.116  1.00  0.00    -0.133 A  
HETATM   30  C   UNL     1      -8.257   6.485  68.738  1.00  0.00    -0.119 A  
HETATM   31  C   UNL     1      -7.356   7.222  67.972  1.00  0.00    -0.097 A  
BRANCH  31  32
HETATM   32  S   UNL     1      -7.286   6.968  66.217  1.00  0.00    -0.077 S  
HETATM   33  O   UNL     1      -5.989   7.435  65.772  1.00  0.00    -0.036 OA 
HETATM   34  O   UNL     1      -7.721   5.618  65.937  1.00  0.00    -0.091 OA 
BRANCH  32  35
HETATM   35  N   UNL     1      -8.393   8.054  65.568  1.00  0.00    -0.141 N  
HETATM   36  C   UNL     1      -9.460   9.766  64.191  1.00  0.00    -0.164 C  
HETATM   37  C   UNL     1      -7.082  10.041  64.827  1.00  0.00    -0.137 C  
HETATM   38  C   UNL     1      -7.766   8.261  63.171  1.00  0.00    -0.138 C  
HETATM   39  C   UNL     1      -8.143   9.001  64.453  1.00  0.00    -0.146 C  
HETATM   40  H   UNL     1      -9.326   8.062  65.980  1.00  0.00     0.000 HD 
ENDBRANCH  32  35
ENDBRANCH  31  32
ENDBRANCH  24  26
ENDBRANCH   6  24
TORSDOF 10
ENDMDL
MODEL      286
REMARK 921   NORMALIZED FREE ENERGY PREDICTED BY IDOCK:   -0.82 KCAL/MOL
REMARK 922        TOTAL FREE ENERGY PREDICTED BY IDOCK:   -2.65 KCAL/MOL
REMARK 923 INTER-LIGAND FREE ENERGY PREDICTED BY IDOCK:   -2.85 KCAL/MOL
REMARK 924 INTRA-LIGAND FREE ENERGY PREDICTED BY IDOCK:    0.20 KCAL/MOL
REMARK 927      BINDING AFFINITY PREDICTED BY RF-SCORE:    0.00 PKD
ROOT
HETATM    1  C   UNL     1      -5.736  13.902  73.072  1.00  0.00     0.099 C  
HETATM    2  C   UNL     1      -6.024  13.849  71.606  1.00  0.00     0.038 A  
HETATM    3  C   UNL     1      -6.448  15.001  70.967  1.00  0.00     0.439 A  
HETATM    4  N   UNL     1      -6.735  15.081  69.662  1.00  0.00    -0.165 NA 
HETATM    5  C   UNL     1      -6.625  13.949  68.964  1.00  0.00    -0.107 A  
HETATM    6  C   UNL     1      -5.866  12.724  70.797  1.00  0.00    -0.050 A  
HETATM    7  N   UNL     1      -6.190  12.788  69.494  1.00  0.00    -0.116 NA 
ENDROOT
BRANCH   5   8
HETATM    8  N   UNL     1      -7.000  14.049  67.623  1.00  0.00    -0.178 NA 
HETATM    9  H   UNL     1      -6.231  14.176  66.965  1.00  0.00     0.000 HD 
BRANCH   8  10
HETATM   10  C   UNL     1      -8.277  13.999  67.048  1.00  0.00    -0.053 A  
HETATM   11  C   UNL     1      -8.596  14.746  65.921  1.00  0.00     0.922 A  
HETATM   12  C   UNL     1     -10.620  13.317  67.183  1.00  0.00    -0.259 A  
HETATM   13  C   UNL     1     -10.932  14.118  66.088  1.00  0.00    -0.309 A  
HETATM   14  C   UNL     1      -9.899  14.807  65.440  1.00  0.00    -0.295 A  
HETATM   15  C   UNL     1      -9.300  13.260  67.662  1.00  0.00    -0.212 A  
BRANCH  13  16
HETATM   16  O   UNL     1     -12.257  14.207  65.718  1.00  0.00    -0.410 OA 
BRANCH  16  17
HETATM   17  C   UNL     1     -12.553  13.388  64.585  1.00  0.00    -0.265 C  
BRANCH  17  18
HETATM   18  C   UNL     1     -11.324  12.886  63.826  1.00  0.00    -0.435 C  
BRANCH  18  19
HETATM   19  N   UNL     1     -11.059  11.491  64.212  1.00  0.00    -0.337 NA 
HETATM   20  C   UNL     1     -11.738  11.070  65.445  1.00  0.00     0.959 C  
HETATM   21  C   UNL     1      -9.644  11.203  64.404  1.00  0.00    -0.250 C  
HETATM   22  C   UNL     1     -10.900   9.925  65.994  1.00  0.00     0.314 C  
HETATM   23  C   UNL     1      -9.702   9.835  65.062  1.00  0.00    -0.303 C  
ENDBRANCH  18  19
ENDBRANCH  17  18
ENDBRANCH  16  17
ENDBRANCH  13  16
ENDBRANCH   8  10
ENDBRANCH   5   8
BRANCH   6  24
HETATM   24  N   UNL     1      -5.464  11.497  71.387  1.00  0.00    -0.364 NA 
HETATM   25  H   UNL     1      -4.910  11.616  72.235  1.00  0.00     0.000 HD 
BRANCH  24  26
HETATM   26  C   UNL     1      -5.676  10.139  71.039  1.00  0.00    -0.076 A  
HETATM   27  C   UNL     1      -5.146   9.516  69.905  1.00  0.00    -0.033 A  
HETATM   28  C   UNL     1      -6.607   9.400  71.792  1.00  0.00     0.181 A  
HETATM   29  C   UNL     1      -5.529   8.218  69.525  1.00  0.00    -0.030 A  
HETATM   30  C   UNL     1      -6.500   7.527  70.247  1.00  0.00    -0.038 A  
HETATM   31  C   UNL     1      -7.056   8.135  71.371  1.00  0.00    -0.068 A  
BRANCH  31  32
HETATM   32  S   UNL     1      -8.309   7.285  72.298  1.00  0.00    -0.105 S  
HETATM   33  O   UNL     1      -7.655   6.684  73.442  1.00  0.00    -0.091 OA 
HETATM   34  O   UNL     1      -9.429   8.182  72.474  1.00  0.00    -0.212 OA 
BRANCH  32  35
HETATM   35  N   UNL     1      -8.778   5.995  71.328  1.00  0.00    -0.135 N  
HETATM   36  C   UNL     1     -10.093   4.283  70.188  1.00  0.00    -0.078 C  
HETATM   37  C   UNL     1     -10.611   4.825  72.548  1.00  0.00    -0.262 C  
HETATM   38  C   UNL     1     -11.138   6.476  70.711  1.00  0.00    -0.354 C  
HETATM   39  C   UNL     1     -10.146   5.431  71.220  1.00  0.00    -0.209 C  
HETATM   40  H   UNL     1      -8.053   5.558  70.760  1.00  0.00     0.000 HD 
ENDBRANCH  32  35
ENDBRANCH  31  32
ENDBRANCH  24  26
ENDBRANCH   6  24
TORSDOF 10
ENDMDL
MODEL      287
REMARK 921   NORMALIZED FREE ENERGY PREDICTED BY IDOCK:   -0.22 KCAL/MOL
REMARK 922        TOTAL FREE ENERGY PREDICTED BY IDOCK:   -1.70 KCAL/MOL
REMARK 923 INTER-LIGAND FREE ENERGY PREDICTED BY IDOCK:   -1.90 KCAL/MOL
REMARK 924 INTRA-LIGAND FREE ENERGY PREDICTED BY IDOCK:    0.20 KCAL/MOL
REMARK 927      BINDING AFFINITY PREDICTED BY RF-SCORE:    0.00 PKD
ROOT
HETATM    1  C   UNL     1     -13.604  15.329  68.311  1.00  0.00     5.369 C  
HETATM    2  C   UNL     1     -12.199  14.828  68.408  1.00  0.00    -0.098 A  
HETATM    3  C   UNL     1     -11.957  13.478  68.224  1.00  0.00    -0.342 A  
HETATM    4  N   UNL     1     -10.745  12.911  68.284  1.00  0.00    -0.236 NA 
HETATM    5  C   UNL     1      -9.729  13.724  68.574  1.00  0.00    -0.193 A  
HETATM    6  C   UNL     1     -11.078  15.624  68.639  1.00  0.00    -0.317 A  
HETATM    7  N   UNL     1      -9.864  15.055  68.740  1.00  0.00    -0.226 NA 
ENDROOT
BRANCH   5   8
HETATM    8  N   UNL     1      -8.491  13.091  68.701  1.00  0.00    -0.352 NA 
HETATM    9  H   UNL     1      -7.794  13.603  69.242  1.00  0.00     0.000 HD 
BRANCH   8  10
HETATM   10  C   UNL     1      -8.064  11.855  68.196  1.00  0.00    -0.155 A  
HETATM   11  C   UNL     1      -8.422  11.428  66.923  1.00  0.00    -0.157 A  
HETATM   12  C   UNL     1      -7.033   9.671  68.572  1.00  0.00    -0.065 A  
HETATM   13  C   UNL     1      -7.452   9.241  67.315  1.00  0.00    -0.091 A  
HETATM   14  C   UNL     1      -8.121  10.145  66.482  1.00  0.00    -0.121 A  
HETATM   15  C   UNL     1      -7.340  10.971  69.010  1.00  0.00    -0.123 A  
BRANCH  13  16
HETATM   16  O   UNL     1      -7.202   7.929  66.974  1.00  0.00    -0.085 OA 
BRANCH  16  17
HETATM   17  C   UNL     1      -7.762   7.590  65.703  1.00  0.00    -0.100 C  
BRANCH  17  18
HETATM   18  C   UNL     1      -7.188   6.320  65.075  1.00  0.00    -0.070 C  
BRANCH  18  19
HETATM   19  N   UNL     1      -7.956   5.159  65.552  1.00  0.00    -0.106 NA 
HETATM   20  C   UNL     1      -8.916   4.632  64.573  1.00  0.00    -0.147 C  
HETATM   21  C   UNL     1      -8.713   5.426  66.768  1.00  0.00    -0.113 C  
HETATM   22  C   UNL     1      -9.983   3.926  65.398  1.00  0.00    -0.137 C  
HETATM   23  C   UNL     1      -9.602   4.196  66.845  1.00  0.00    -0.232 C  
ENDBRANCH  18  19
ENDBRANCH  17  18
ENDBRANCH  16  17
ENDBRANCH  13  16
ENDBRANCH   8  10
ENDBRANCH   5   8
BRANCH   6  24
HETATM   24  N   UNL     1     -11.250  17.014  68.870  1.00  0.00    -0.195 NA 
HETATM   25  H   UNL     1     -11.919  17.223  69.612  1.00  0.00     0.000 HD 
BRANCH  24  26
HETATM   26  C   UNL     1     -10.682  18.173  68.283  1.00  0.00    -0.151 A  
HETATM   27  C   UNL     1     -11.230  18.867  67.201  1.00  0.00     0.149 A  
HETATM   28  C   UNL     1      -9.400  18.569  68.707  1.00  0.00    -0.317 A  
HETATM   29  C   UNL     1     -10.535  19.905  66.556  1.00  0.00    -0.589 A  
HETATM   30  C   UNL     1      -9.241  20.240  66.949  1.00  0.00    -0.481 A  
HETATM   31  C   UNL     1      -8.666  19.549  68.014  1.00  0.00    -0.324 A  
BRANCH  31  32
HETATM   32  S   UNL     1      -7.011  19.942  68.522  1.00  0.00    -0.288 S  
HETATM   33  O   UNL     1      -6.597  21.101  67.759  1.00  0.00    -0.342 OA 
HETATM   34  O   UNL     1      -6.974  19.958  69.968  1.00  0.00    -0.249 OA 
BRANCH  32  35
HETATM   35  N   UNL     1      -6.061  18.677  67.956  1.00  0.00    -0.194 N  
HETATM   36  C   UNL     1      -5.142  16.867  66.597  1.00  0.00    -0.074 C  
HETATM   37  C   UNL     1      -7.601  17.113  66.771  1.00  0.00    -0.274 C  
HETATM   38  C   UNL     1      -6.234  18.799  65.478  1.00  0.00    -0.295 C  
HETATM   39  C   UNL     1      -6.287  17.899  66.712  1.00  0.00    -0.176 C  
HETATM   40  H   UNL     1      -5.252  18.419  68.520  1.00  0.00     0.000 HD 
ENDBRANCH  32  35
ENDBRANCH  31  32
ENDBRANCH  24  26
ENDBRANCH   6  24
TORSDOF 10
ENDMDL
MODEL      288
REMARK 921   NORMALIZED FREE ENERGY PREDICTED BY IDOCK:   -0.08 KCAL/MOL
REMARK 922        TOTAL FREE ENERGY PREDICTED BY IDOCK:   -1.47 KCAL/MOL
REMARK 923 INTER-LIGAND FREE ENERGY PREDICTED BY IDOCK:   -1.07 KCAL/MOL
REMARK 924 INTRA-LIGAND FREE ENERGY PREDICTED BY IDOCK:   -0.40 KCAL/MOL
REMARK 927      BINDING AFFINITY PREDICTED BY RF-SCORE:    0.00 PKD
ROOT
HETATM    1  C   UNL     1      -5.141   9.857  73.360  1.00  0.00    -0.013 C  
HETATM    2  C   UNL     1      -5.230  10.865  72.259  1.00  0.00     0.283 A  
HETATM    3  C   UNL     1      -5.230  12.210  72.586  1.00  0.00     0.511 A  
HETATM    4  N   UNL     1      -5.303  13.205  71.693  1.00  0.00    -0.337 NA 
HETATM    5  C   UNL     1      -5.414  12.843  70.415  1.00  0.00    -0.146 A  
HETATM    6  C   UNL     1      -5.279  10.566  70.899  1.00  0.00    -0.087 A  
HETATM    7  N   UNL     1      -5.392  11.560  70.000  1.00  0.00    -0.075 NA 
ENDROOT
BRANCH   5   8
HETATM    8  N   UNL     1      -5.562  13.902  69.516  1.00  0.00    -0.086 NA 
HETATM    9  H   UNL     1      -4.759  14.072  68.911  1.00  0.00     0.000 HD 
BRANCH   8  10
HETATM   10  C   UNL     1      -6.650  14.763  69.323  1.00  0.00    -0.128 A  
HETATM   11  C   UNL     1      -7.912  14.462  69.818  1.00  0.00     0.437 A  
HETATM   12  C   UNL     1      -7.620  16.710  68.209  1.00  0.00    -0.181 A  
HETATM   13  C   UNL     1      -8.887  16.358  68.665  1.00  0.00    -0.234 A  
HETATM   14  C   UNL     1      -9.017  15.243  69.502  1.00  0.00    -0.183 A  
HETATM   15  C   UNL     1      -6.507  15.916  68.534  1.00  0.00    -0.111 A  
BRANCH  13  16
HETATM   16  O   UNL     1      -9.953  17.122  68.241  1.00  0.00    -0.270 OA 
BRANCH  16  17
HETATM   17  C   UNL     1     -10.271  16.885  66.868  1.00  0.00    -0.296 C  
BRANCH  17  18
HETATM   18  C   UNL     1     -11.025  18.025  66.184  1.00  0.00     0.270 C  
BRANCH  18  19
HETATM   19  N   UNL     1     -10.054  19.017  65.695  1.00  0.00    -0.420 NA 
HETATM   20  C   UNL     1      -8.806  19.066  66.468  1.00  0.00    -0.327 C  
HETATM   21  C   UNL     1     -10.578  20.376  65.671  1.00  0.00     0.107 C  
HETATM   22  C   UNL     1      -8.255  20.468  66.249  1.00  0.00     0.014 C  
HETATM   23  C   UNL     1      -9.313  21.181  65.422  1.00  0.00     2.244 C  
ENDBRANCH  18  19
ENDBRANCH  17  18
ENDBRANCH  16  17
ENDBRANCH  13  16
ENDBRANCH   8  10
ENDBRANCH   5   8
BRANCH   6  24
HETATM   24  N   UNL     1      -5.315   9.208  70.488  1.00  0.00    -0.029 NA 
HETATM   25  H   UNL     1      -4.455   8.698  70.695  1.00  0.00     0.000 HD 
BRANCH  24  26
HETATM   26  C   UNL     1      -6.300   8.414  69.849  1.00  0.00    -0.035 A  
HETATM   27  C   UNL     1      -6.618   8.482  68.489  1.00  0.00    -0.059 A  
HETATM   28  C   UNL     1      -7.128   7.612  70.655  1.00  0.00    -0.054 A  
HETATM   29  C   UNL     1      -7.718   7.793  67.949  1.00  0.00    -0.122 A  
HETATM   30  C   UNL     1      -8.565   7.055  68.774  1.00  0.00    -0.125 A  
HETATM   31  C   UNL     1      -8.278   6.988  70.136  1.00  0.00    -0.133 A  
BRANCH  31  32
HETATM   32  S   UNL     1      -9.351   6.070  71.213  1.00  0.00    -0.156 S  
HETATM   33  O   UNL     1      -9.426   4.722  70.689  1.00  0.00    -0.146 OA 
HETATM   34  O   UNL     1      -8.935   6.310  72.577  1.00  0.00    -0.138 OA 
BRANCH  32  35
HETATM   35  N   UNL     1     -10.881   6.724  70.975  1.00  0.00    -0.235 N  
HETATM   36  C   UNL     1     -12.878   8.121  71.128  1.00  0.00    -0.106 C  
HETATM   37  C   UNL     1     -11.656   7.535  73.202  1.00  0.00    -0.008 C  
HETATM   38  C   UNL     1     -10.646   9.136  71.529  1.00  0.00    -0.428 C  
HETATM   39  C   UNL     1     -11.473   7.865  71.717  1.00  0.00    -0.269 C  
HETATM   40  H   UNL     1     -11.458   6.296  70.251  1.00  0.00     0.000 HD 
ENDBRANCH  32  35
ENDBRANCH  31  32
ENDBRANCH  24  26
ENDBRANCH   6  24
TORSDOF 10
ENDMDL
MODEL      289
REMARK 921   NORMALIZED FREE ENERGY PREDICTED BY IDOCK:    0.45 KCAL/MOL
REMARK 922        TOTAL FREE ENERGY PREDICTED BY IDOCK:   -0.64 KCAL/MOL
REMARK 923 INTER-LIGAND FREE ENERGY PREDICTED BY IDOCK:   -0.97 KCAL/MOL
REMARK 924 INTRA-LIGAND FREE ENERGY PREDICTED BY IDOCK:    0.34 KCAL/MOL
REMARK 927      BINDING AFFINITY PREDICTED BY RF-SCORE:    0.00 PKD
ROOT
HETATM    1  C   UNL     1      -7.430  17.711  69.165  1.00  0.00    -0.085 C  
HETATM    2  C   UNL     1      -6.911  16.345  68.847  1.00  0.00    -0.180 A  
HETATM    3  C   UNL     1      -5.697  16.229  68.193  1.00  0.00    -0.105 A  
HETATM    4  N   UNL     1      -5.127  15.064  67.856  1.00  0.00    -0.219 NA 
HETATM    5  C   UNL     1      -5.816  13.963  68.157  1.00  0.00    -0.124 A  
HETATM    6  C   UNL     1      -7.538  15.148  69.190  1.00  0.00    -0.188 A  
HETATM    7  N   UNL     1      -6.990  13.977  68.820  1.00  0.00    -0.101 NA 
ENDROOT
BRANCH   5   8
HETATM    8  N   UNL     1      -5.230  12.770  67.728  1.00  0.00    -0.104 NA 
HETATM    9  H   UNL     1      -4.492  12.874  67.032  1.00  0.00     0.000 HD 
BRANCH   8  10
HETATM   10  C   UNL     1      -5.506  11.451  68.114  1.00  0.00    -0.042 A  
HETATM   11  C   UNL     1      -5.545  10.417  67.187  1.00  0.00    -0.041 A  
HETATM   12  C   UNL     1      -6.271   9.874  69.816  1.00  0.00    -0.050 A  
HETATM   13  C   UNL     1      -6.361   8.864  68.861  1.00  0.00    -0.044 A  
HETATM   14  C   UNL     1      -5.961   9.140  67.548  1.00  0.00    -0.050 A  
HETATM   15  C   UNL     1      -5.848  11.161  69.444  1.00  0.00    -0.048 A  
BRANCH  13  16
HETATM   16  O   UNL     1      -6.867   7.647  69.264  1.00  0.00    -0.050 OA 
BRANCH  16  17
HETATM   17  C   UNL     1      -8.012   7.263  68.500  1.00  0.00    -0.124 C  
BRANCH  17  18
HETATM   18  C   UNL     1      -7.692   6.475  67.229  1.00  0.00    -0.101 C  
BRANCH  18  19
HETATM   19  N   UNL     1      -7.307   7.416  66.165  1.00  0.00    -0.080 NA 
HETATM   20  C   UNL     1      -8.436   7.924  65.375  1.00  0.00    -0.119 C  
HETATM   21  C   UNL     1      -6.357   6.857  65.213  1.00  0.00    -0.043 C  
HETATM   22  C   UNL     1      -7.840   8.322  64.033  1.00  0.00    -0.146 C  
HETATM   23  C   UNL     1      -6.380   7.906  64.114  1.00  0.00    -0.057 C  
ENDBRANCH  18  19
ENDBRANCH  17  18
ENDBRANCH  16  17
ENDBRANCH  13  16
ENDBRANCH   8  10
ENDBRANCH   5   8
BRANCH   6  24
HETATM   24  N   UNL     1      -8.802  15.187  69.835  1.00  0.00    -0.399 NA 
HETATM   25  H   UNL     1      -8.759  14.952  70.827  1.00  0.00     0.000 HD 
BRANCH  24  26
HETATM   26  C   UNL     1     -10.112  15.485  69.383  1.00  0.00    -0.266 A  
HETATM   27  C   UNL     1     -11.151  15.942  70.199  1.00  0.00    -0.369 A  
HETATM   28  C   UNL     1     -10.445  15.155  68.056  1.00  0.00    -0.247 A  
HETATM   29  C   UNL     1     -12.470  16.057  69.726  1.00  0.00     0.232 A  
HETATM   30  C   UNL     1     -12.793  15.664  68.428  1.00  0.00     1.715 A  
HETATM   31  C   UNL     1     -11.777  15.188  67.602  1.00  0.00    -0.216 A  
BRANCH  31  32
HETATM   32  S   UNL     1     -12.164  14.663  65.951  1.00  0.00    -0.072 S  
HETATM   33  O   UNL     1     -13.025  13.504  66.066  1.00  0.00    -0.238 OA 
HETATM   34  O   UNL     1     -12.583  15.822  65.194  1.00  0.00     0.832 OA 
BRANCH  32  35
HETATM   35  N   UNL     1     -10.719  14.080  65.321  1.00  0.00    -0.336 N  
HETATM   36  C   UNL     1      -9.010  12.650  64.323  1.00  0.00     1.660 C  
HETATM   37  C   UNL     1     -10.586  11.675  65.966  1.00  0.00    -0.303 C  
HETATM   38  C   UNL     1     -11.387  12.348  63.667  1.00  0.00    -0.556 C  
HETATM   39  C   UNL     1     -10.467  12.701  64.835  1.00  0.00    -0.309 C  
HETATM   40  H   UNL     1      -9.941  14.738  65.268  1.00  0.00     0.000 HD 
ENDBRANCH  32  35
ENDBRANCH  31  32
ENDBRANCH  24  26
ENDBRANCH   6  24
TORSDOF 10
ENDMDL
MODEL      290
REMARK 921   NORMALIZED FREE ENERGY PREDICTED BY IDOCK:    0.49 KCAL/MOL
REMARK 922        TOTAL FREE ENERGY PREDICTED BY IDOCK:   -0.57 KCAL/MOL
REMARK 923 INTER-LIGAND FREE ENERGY PREDICTED BY IDOCK:   -5.14 KCAL/MOL
REMARK 924 INTRA-LIGAND FREE ENERGY PREDICTED BY IDOCK:    4.57 KCAL/MOL
REMARK 927      BINDING AFFINITY PREDICTED BY RF-SCORE:    0.00 PKD
ROOT
HETATM    1  C   UNL     1      -7.216  15.623  66.601  1.00  0.00     0.317 C  
HETATM    2  C   UNL     1      -7.131  14.513  67.600  1.00  0.00    -0.202 A  
HETATM    3  C   UNL     1      -5.923  13.861  67.771  1.00  0.00    -0.108 A  
HETATM    4  N   UNL     1      -5.721  12.856  68.633  1.00  0.00    -0.066 NA 
HETATM    5  C   UNL     1      -6.783  12.459  69.335  1.00  0.00    -0.032 A  
HETATM    6  C   UNL     1      -8.177  14.089  68.418  1.00  0.00    -0.150 A  
HETATM    7  N   UNL     1      -7.991  13.054  69.257  1.00  0.00     0.468 NA 
ENDROOT
BRANCH   5   8
HETATM    8  N   UNL     1      -6.557  11.363  70.170  1.00  0.00    -0.421 NA 
HETATM    9  H   UNL     1      -5.936  11.539  70.959  1.00  0.00     0.000 HD 
BRANCH   8  10
HETATM   10  C   UNL     1      -7.059  10.058  70.084  1.00  0.00    -0.154 A  
HETATM   11  C   UNL     1      -6.558   9.033  70.877  1.00  0.00    -0.068 A  
HETATM   12  C   UNL     1      -8.427   8.402  68.917  1.00  0.00    -0.124 A  
HETATM   13  C   UNL     1      -7.870   7.381  69.681  1.00  0.00    -0.117 A  
HETATM   14  C   UNL     1      -6.955   7.714  70.687  1.00  0.00    -0.047 A  
HETATM   15  C   UNL     1      -8.022   9.733  69.116  1.00  0.00    -0.104 A  
BRANCH  13  16
HETATM   16  O   UNL     1      -8.237   6.087  69.383  1.00  0.00    -0.111 OA 
BRANCH  16  17
HETATM   17  C   UNL     1      -7.161   5.344  68.803  1.00  0.00    -0.066 C  
BRANCH  17  18
HETATM   18  C   UNL     1      -6.978   5.560  67.300  1.00  0.00    -0.065 C  
BRANCH  18  19
HETATM   19  N   UNL     1      -7.875   4.648  66.572  1.00  0.00    -0.098 NA 
HETATM   20  C   UNL     1      -7.226   3.416  66.106  1.00  0.00    -0.067 C  
HETATM   21  C   UNL     1      -8.493   5.257  65.402  1.00  0.00    -0.145 C  
HETATM   22  C   UNL     1      -8.056   2.952  64.917  1.00  0.00    -0.086 C  
HETATM   23  C   UNL     1      -9.095   4.042  64.714  1.00  0.00    -0.141 C  
ENDBRANCH  18  19
ENDBRANCH  17  18
ENDBRANCH  16  17
ENDBRANCH  13  16
ENDBRANCH   8  10
ENDBRANCH   5   8
BRANCH   6  24
HETATM   24  N   UNL     1      -9.456  14.688  68.277  1.00  0.00    -0.204 NA 
HETATM   25  H   UNL     1     -10.033  14.615  69.116  1.00  0.00     0.000 HD 
BRANCH  24  26
HETATM   26  C   UNL     1     -10.096  15.368  67.211  1.00  0.00    -0.238 A  
HETATM   27  C   UNL     1     -10.675  14.744  66.103  1.00  0.00    -0.314 A  
HETATM   28  C   UNL     1     -10.011  16.772  67.176  1.00  0.00    -0.274 A  
HETATM   29  C   UNL     1     -11.142  15.478  64.998  1.00  0.00    -0.411 A  
HETATM   30  C   UNL     1     -10.992  16.862  64.954  1.00  0.00    -0.011 A  
HETATM   31  C   UNL     1     -10.401  17.505  66.040  1.00  0.00    -0.306 A  
BRANCH  31  32
HETATM   32  S   UNL     1     -10.179  19.266  66.001  1.00  0.00    -0.392 S  
HETATM   33  O   UNL     1      -8.802  19.512  65.626  1.00  0.00    -0.329 OA 
HETATM   34  O   UNL     1     -11.267  19.842  65.241  1.00  0.00    -0.329 OA 
BRANCH  32  35
HETATM   35  N   UNL     1     -10.297  19.762  67.603  1.00  0.00    -0.433 N  
HETATM   36  C   UNL     1     -10.143  19.865  70.038  1.00  0.00     0.402 C  
HETATM   37  C   UNL     1     -10.674  17.701  68.955  1.00  0.00     0.000 C  
HETATM   38  C   UNL     1      -8.364  18.702  68.751  1.00  0.00    -0.295 C  
HETATM   39  C   UNL     1      -9.863  18.991  68.795  1.00  0.00    -0.425 C  
HETATM   40  H   UNL     1     -10.706  20.681  67.772  1.00  0.00     0.000 HD 
ENDBRANCH  32  35
ENDBRANCH  31  32
ENDBRANCH  24  26
ENDBRANCH   6  24
TORSDOF 10
ENDMDL
MODEL      291
REMARK 921   NORMALIZED FREE ENERGY PREDICTED BY IDOCK:    0.90 KCAL/MOL
REMARK 922        TOTAL FREE ENERGY PREDICTED BY IDOCK:    0.08 KCAL/MOL
REMARK 923 INTER-LIGAND FREE ENERGY PREDICTED BY IDOCK:    0.39 KCAL/MOL
REMARK 924 INTRA-LIGAND FREE ENERGY PREDICTED BY IDOCK:   -0.31 KCAL/MOL
REMARK 927      BINDING AFFINITY PREDICTED BY RF-SCORE:    0.00 PKD
ROOT
HETATM    1  C   UNL     1      -5.125   9.837  73.373  1.00  0.00    -0.045 C  
HETATM    2  C   UNL     1      -5.241  10.839  72.268  1.00  0.00     0.248 A  
HETATM    3  C   UNL     1      -5.220  12.185  72.585  1.00  0.00     0.511 A  
HETATM    4  N   UNL     1      -5.313  13.175  71.688  1.00  0.00    -0.337 NA 
HETATM    5  C   UNL     1      -5.469  12.804  70.416  1.00  0.00    -0.149 A  
HETATM    6  C   UNL     1      -5.336  10.530  70.912  1.00  0.00    -0.089 A  
HETATM    7  N   UNL     1      -5.471  11.519  70.010  1.00  0.00    -0.082 NA 
ENDROOT
BRANCH   5   8
HETATM    8  N   UNL     1      -5.636  13.858  69.515  1.00  0.00    -0.086 NA 
HETATM    9  H   UNL     1      -4.805  14.108  68.980  1.00  0.00     0.000 HD 
BRANCH   8  10
HETATM   10  C   UNL     1      -6.778  14.622  69.238  1.00  0.00    -0.134 A  
HETATM   11  C   UNL     1      -8.039  14.227  69.668  1.00  0.00     0.492 A  
HETATM   12  C   UNL     1      -7.837  16.456  68.018  1.00  0.00    -0.159 A  
HETATM   13  C   UNL     1      -9.096  16.010  68.411  1.00  0.00    -0.192 A  
HETATM   14  C   UNL     1      -9.183  14.907  69.269  1.00  0.00    -0.100 A  
HETATM   15  C   UNL     1      -6.685  15.764  68.428  1.00  0.00    -0.116 A  
BRANCH  13  16
HETATM   16  O   UNL     1     -10.195  16.673  67.907  1.00  0.00    -0.264 OA 
BRANCH  16  17
HETATM   17  C   UNL     1     -10.410  16.380  66.525  1.00  0.00    -0.303 C  
BRANCH  17  18
HETATM   18  C   UNL     1     -11.197  17.448  65.765  1.00  0.00     0.665 C  
BRANCH  18  19
HETATM   19  N   UNL     1     -10.262  18.467  65.262  1.00  0.00     0.010 NA 
HETATM   20  C   UNL     1      -9.040  18.607  66.063  1.00  0.00     0.025 C  
HETATM   21  C   UNL     1     -10.849  19.797  65.171  1.00  0.00     0.432 C  
HETATM   22  C   UNL     1      -8.550  20.024  65.804  1.00  0.00     0.005 C  
HETATM   23  C   UNL     1      -9.618  20.653  64.923  1.00  0.00     1.586 C  
ENDBRANCH  18  19
ENDBRANCH  17  18
ENDBRANCH  16  17
ENDBRANCH  13  16
ENDBRANCH   8  10
ENDBRANCH   5   8
BRANCH   6  24
HETATM   24  N   UNL     1      -5.397   9.169  70.513  1.00  0.00    -0.029 NA 
HETATM   25  H   UNL     1      -4.527   8.660  70.673  1.00  0.00     0.000 HD 
BRANCH  24  26
HETATM   26  C   UNL     1      -6.417   8.372  69.937  1.00  0.00    -0.035 A  
HETATM   27  C   UNL     1      -7.335   7.607  70.662  1.00  0.00    -0.067 A  
HETATM   28  C   UNL     1      -6.418   8.208  68.539  1.00  0.00    -0.054 A  
HETATM   29  C   UNL     1      -8.212   6.707  70.033  1.00  0.00    -0.130 A  
HETATM   30  C   UNL     1      -8.155   6.510  68.654  1.00  0.00    -0.118 A  
HETATM   31  C   UNL     1      -7.235   7.248  67.912  1.00  0.00    -0.091 A  
BRANCH  31  32
HETATM   32  S   UNL     1      -7.128   7.003  66.157  1.00  0.00    -0.075 S  
HETATM   33  O   UNL     1      -5.820   7.469  65.743  1.00  0.00    -0.036 OA 
HETATM   34  O   UNL     1      -7.559   5.655  65.861  1.00  0.00    -0.084 OA 
BRANCH  32  35
HETATM   35  N   UNL     1      -8.218   8.095  65.490  1.00  0.00    -0.136 N  
HETATM   36  C   UNL     1      -9.250   9.817  64.100  1.00  0.00    -0.277 C  
HETATM   37  C   UNL     1      -6.887  10.085  64.791  1.00  0.00    -0.133 C  
HETATM   38  C   UNL     1      -7.536   8.316  63.109  1.00  0.00    -0.127 C  
HETATM   39  C   UNL     1      -7.941   9.049  64.387  1.00  0.00    -0.133 C  
HETATM   40  H   UNL     1      -9.160   8.103  65.881  1.00  0.00     0.000 HD 
ENDBRANCH  32  35
ENDBRANCH  31  32
ENDBRANCH  24  26
ENDBRANCH   6  24
TORSDOF 10
ENDMDL
MODEL      292
REMARK 921   NORMALIZED FREE ENERGY PREDICTED BY IDOCK:    1.02 KCAL/MOL
REMARK 922        TOTAL FREE ENERGY PREDICTED BY IDOCK:    0.26 KCAL/MOL
REMARK 923 INTER-LIGAND FREE ENERGY PREDICTED BY IDOCK:    1.38 KCAL/MOL
REMARK 924 INTRA-LIGAND FREE ENERGY PREDICTED BY IDOCK:   -1.11 KCAL/MOL
REMARK 927      BINDING AFFINITY PREDICTED BY RF-SCORE:    0.00 PKD
ROOT
HETATM    1  C   UNL     1     -11.055  18.104  68.620  1.00  0.00     0.764 C  
HETATM    2  C   UNL     1     -10.154  16.925  68.808  1.00  0.00    -0.295 A  
HETATM    3  C   UNL     1      -9.839  16.526  70.095  1.00  0.00     0.746 A  
HETATM    4  N   UNL     1      -9.047  15.487  70.392  1.00  0.00     0.711 NA 
HETATM    5  C   UNL     1      -8.517  14.835  69.356  1.00  0.00     0.016 A  
HETATM    6  C   UNL     1      -9.619  16.153  67.779  1.00  0.00    -0.223 A  
HETATM    7  N   UNL     1      -8.791  15.133  68.070  1.00  0.00    -0.168 NA 
ENDROOT
BRANCH   5   8
HETATM    8  N   UNL     1      -7.640  13.805  69.699  1.00  0.00    -0.167 NA 
HETATM    9  H   UNL     1      -7.452  13.709  70.697  1.00  0.00     0.000 HD 
BRANCH   8  10
HETATM   10  C   UNL     1      -6.980  12.883  68.875  1.00  0.00    -0.084 A  
HETATM   11  C   UNL     1      -5.843  13.234  68.157  1.00  0.00    -0.105 A  
HETATM   12  C   UNL     1      -6.950  10.717  67.744  1.00  0.00    -0.078 A  
HETATM   13  C   UNL     1      -5.846  11.109  66.991  1.00  0.00    -0.079 A  
HETATM   14  C   UNL     1      -5.277  12.365  67.232  1.00  0.00    -0.062 A  
HETATM   15  C   UNL     1      -7.515  11.601  68.679  1.00  0.00    -0.117 A  
BRANCH  13  16
HETATM   16  O   UNL     1      -5.389  10.237  66.026  1.00  0.00    -0.048 OA 
BRANCH  16  17
HETATM   17  C   UNL     1      -5.208   8.915  66.539  1.00  0.00    -0.034 C  
BRANCH  17  18
HETATM   18  C   UNL     1      -6.444   8.021  66.440  1.00  0.00    -0.047 C  
BRANCH  18  19
HETATM   19  N   UNL     1      -6.296   6.892  67.371  1.00  0.00    -0.043 NA 
HETATM   20  C   UNL     1      -7.458   6.675  68.242  1.00  0.00    -0.095 C  
HETATM   21  C   UNL     1      -5.140   7.015  68.250  1.00  0.00    -0.015 C  
HETATM   22  C   UNL     1      -6.912   5.960  69.470  1.00  0.00    -0.063 C  
HETATM   23  C   UNL     1      -5.408   5.907  69.256  1.00  0.00    -0.004 C  
ENDBRANCH  18  19
ENDBRANCH  17  18
ENDBRANCH  16  17
ENDBRANCH  13  16
ENDBRANCH   8  10
ENDBRANCH   5   8
BRANCH   6  24
HETATM   24  N   UNL     1      -9.871  16.521  66.431  1.00  0.00    -0.276 NA 
HETATM   25  H   UNL     1      -9.547  17.460  66.199  1.00  0.00     0.000 HD 
BRANCH  24  26
HETATM   26  C   UNL     1     -10.481  15.851  65.341  1.00  0.00    -0.405 A  
HETATM   27  C   UNL     1     -10.950  16.478  64.183  1.00  0.00     0.917 A  
HETATM   28  C   UNL     1     -10.783  14.485  65.489  1.00  0.00    -0.350 A  
HETATM   29  C   UNL     1     -11.697  15.785  63.214  1.00  0.00     2.605 A  
HETATM   30  C   UNL     1     -12.041  14.449  63.409  1.00  0.00     0.592 A  
HETATM   31  C   UNL     1     -11.600  13.808  64.565  1.00  0.00    -0.392 A  
BRANCH  31  32
HETATM   32  S   UNL     1     -12.040  12.111  64.847  1.00  0.00    -0.184 S  
HETATM   33  O   UNL     1     -11.800  11.838  66.249  1.00  0.00    -0.501 OA 
HETATM   34  O   UNL     1     -13.341  11.877  64.261  1.00  0.00    -0.610 OA 
BRANCH  32  35
HETATM   35  N   UNL     1     -10.887  11.211  64.018  1.00  0.00    -0.461 N  
HETATM   36  C   UNL     1      -8.888   9.933  63.442  1.00  0.00    -0.253 C  
HETATM   37  C   UNL     1      -8.667  11.918  64.907  1.00  0.00     0.795 C  
HETATM   38  C   UNL     1      -9.783   9.818  65.757  1.00  0.00    -0.340 C  
HETATM   39  C   UNL     1      -9.586  10.743  64.557  1.00  0.00    -0.270 C  
HETATM   40  H   UNL     1     -11.103  10.963  63.053  1.00  0.00     0.000 HD 
ENDBRANCH  32  35
ENDBRANCH  31  32
ENDBRANCH  24  26
ENDBRANCH   6  24
TORSDOF 10
ENDMDL
MODEL      293
REMARK 921   NORMALIZED FREE ENERGY PREDICTED BY IDOCK:    1.40 KCAL/MOL
REMARK 922        TOTAL FREE ENERGY PREDICTED BY IDOCK:    0.88 KCAL/MOL
REMARK 923 INTER-LIGAND FREE ENERGY PREDICTED BY IDOCK:    1.61 KCAL/MOL
REMARK 924 INTRA-LIGAND FREE ENERGY PREDICTED BY IDOCK:   -0.73 KCAL/MOL
REMARK 927      BINDING AFFINITY PREDICTED BY RF-SCORE:    0.00 PKD
ROOT
HETATM    1  C   UNL     1      -7.370  21.093  67.119  1.00  0.00    -0.202 C  
HETATM    2  C   UNL     1      -6.965  19.654  67.077  1.00  0.00    -0.222 A  
HETATM    3  C   UNL     1      -5.618  19.342  67.025  1.00  0.00    -0.170 A  
HETATM    4  N   UNL     1      -5.131  18.095  66.987  1.00  0.00    -0.120 NA 
HETATM    5  C   UNL     1      -6.032  17.112  66.965  1.00  0.00    -0.174 A  
HETATM    6  C   UNL     1      -7.843  18.572  67.121  1.00  0.00    -0.230 A  
HETATM    7  N   UNL     1      -7.362  17.318  67.042  1.00  0.00    -0.171 NA 
ENDROOT
BRANCH   5   8
HETATM    8  N   UNL     1      -5.494  15.827  66.850  1.00  0.00    -0.103 NA 
HETATM    9  H   UNL     1      -4.921  15.669  66.022  1.00  0.00     0.000 HD 
BRANCH   8  10
HETATM   10  C   UNL     1      -5.627  14.726  67.706  1.00  0.00    -0.051 A  
HETATM   11  C   UNL     1      -5.775  14.885  69.078  1.00  0.00    -0.096 A  
HETATM   12  C   UNL     1      -5.497  12.311  68.062  1.00  0.00    -0.068 A  
HETATM   13  C   UNL     1      -5.587  12.495  69.440  1.00  0.00    -0.080 A  
HETATM   14  C   UNL     1      -5.760  13.792  69.937  1.00  0.00    -0.118 A  
HETATM   15  C   UNL     1      -5.515  13.421  67.200  1.00  0.00     0.566 A  
BRANCH  13  16
HETATM   16  O   UNL     1      -5.474  11.380  70.241  1.00  0.00    -0.088 OA 
BRANCH  16  17
HETATM   17  C   UNL     1      -6.681  10.614  70.269  1.00  0.00    -0.094 C  
BRANCH  17  18
HETATM   18  C   UNL     1      -6.471   9.100  70.321  1.00  0.00    -0.050 C  
BRANCH  18  19
HETATM   19  N   UNL     1      -7.257   8.471  69.248  1.00  0.00    -0.062 NA 
HETATM   20  C   UNL     1      -8.287   9.342  68.668  1.00  0.00    -0.117 C  
HETATM   21  C   UNL     1      -7.937   7.252  69.667  1.00  0.00    -0.127 C  
HETATM   22  C   UNL     1      -9.334   8.399  68.095  1.00  0.00    -0.141 C  
HETATM   23  C   UNL     1      -8.867   7.007  68.490  1.00  0.00    -0.124 C  
ENDBRANCH  18  19
ENDBRANCH  17  18
ENDBRANCH  16  17
ENDBRANCH  13  16
ENDBRANCH   8  10
ENDBRANCH   5   8
BRANCH   6  24
HETATM   24  N   UNL     1      -9.241  18.813  67.142  1.00  0.00    -0.283 NA 
HETATM   25  H   UNL     1      -9.489  19.783  66.943  1.00  0.00     0.000 HD 
BRANCH  24  26
HETATM   26  C   UNL     1     -10.365  17.983  67.383  1.00  0.00    -0.382 A  
HETATM   27  C   UNL     1     -11.633  18.446  67.748  1.00  0.00     1.300 A  
HETATM   28  C   UNL     1     -10.165  16.591  67.412  1.00  0.00    -0.287 A  
HETATM   29  C   UNL     1     -12.659  17.568  68.138  1.00  0.00     4.493 A  
HETATM   30  C   UNL     1     -12.423  16.197  68.222  1.00  0.00     1.317 A  
HETATM   31  C   UNL     1     -11.161  15.714  67.880  1.00  0.00    -0.324 A  
BRANCH  31  32
HETATM   32  S   UNL     1     -10.828  13.974  67.997  1.00  0.00    -0.251 S  
HETATM   33  O   UNL     1      -9.400  13.804  67.825  1.00  0.00    -0.198 OA 
HETATM   34  O   UNL     1     -11.496  13.464  69.174  1.00  0.00    -0.266 OA 
BRANCH  32  35
HETATM   35  N   UNL     1     -11.523  13.297  66.625  1.00  0.00    -0.332 N  
HETATM   36  C   UNL     1     -12.033  12.699  64.313  1.00  0.00    -0.480 C  
HETATM   37  C   UNL     1     -11.402  15.035  64.841  1.00  0.00    -0.419 C  
HETATM   38  C   UNL     1      -9.684  13.188  64.956  1.00  0.00     0.062 C  
HETATM   39  C   UNL     1     -11.138  13.574  65.219  1.00  0.00    -0.297 C  
HETATM   40  H   UNL     1     -12.282  12.632  66.773  1.00  0.00     0.000 HD 
ENDBRANCH  32  35
ENDBRANCH  31  32
ENDBRANCH  24  26
ENDBRANCH   6  24
TORSDOF 10
ENDMDL
MODEL      294
REMARK 921   NORMALIZED FREE ENERGY PREDICTED BY IDOCK:    1.48 KCAL/MOL
REMARK 922        TOTAL FREE ENERGY PREDICTED BY IDOCK:    1.00 KCAL/MOL
REMARK 923 INTER-LIGAND FREE ENERGY PREDICTED BY IDOCK:   -0.34 KCAL/MOL
REMARK 924 INTRA-LIGAND FREE ENERGY PREDICTED BY IDOCK:    1.34 KCAL/MOL
REMARK 927      BINDING AFFINITY PREDICTED BY RF-SCORE:    0.00 PKD
ROOT
HETATM    1  C   UNL     1      -5.785  11.795  73.852  1.00  0.00     1.619 C  
HETATM    2  C   UNL     1      -5.744  12.711  72.671  1.00  0.00     1.326 A  
HETATM    3  C   UNL     1      -5.236  13.988  72.835  1.00  0.00    -0.228 A  
HETATM    4  N   UNL     1      -5.145  14.897  71.856  1.00  0.00    -0.162 NA 
HETATM    5  C   UNL     1      -5.612  14.527  70.663  1.00  0.00    -0.154 A  
HETATM    6  C   UNL     1      -6.148  12.374  71.380  1.00  0.00     1.273 A  
HETATM    7  N   UNL     1      -6.095  13.296  70.402  1.00  0.00    -0.115 NA 
ENDROOT
BRANCH   5   8
HETATM    8  N   UNL     1      -5.569  15.521  69.683  1.00  0.00    -0.110 NA 
HETATM    9  H   UNL     1      -4.688  16.029  69.619  1.00  0.00     0.000 HD 
BRANCH   8  10
HETATM   10  C   UNL     1      -6.559  15.922  68.776  1.00  0.00    -0.119 A  
HETATM   11  C   UNL     1      -7.906  15.902  69.114  1.00  0.00    -0.227 A  
HETATM   12  C   UNL     1      -7.204  16.525  66.497  1.00  0.00    -0.187 A  
HETATM   13  C   UNL     1      -8.551  16.442  66.840  1.00  0.00    -0.214 A  
HETATM   14  C   UNL     1      -8.892  16.161  68.169  1.00  0.00    -0.184 A  
HETATM   15  C   UNL     1      -6.214  16.264  67.459  1.00  0.00    -0.186 A  
BRANCH  13  16
HETATM   16  O   UNL     1      -9.478  16.619  65.836  1.00  0.00    -0.447 OA 
BRANCH  16  17
HETATM   17  C   UNL     1      -9.802  15.390  65.183  1.00  0.00    -0.101 C  
BRANCH  17  18
HETATM   18  C   UNL     1      -9.708  14.152  66.076  1.00  0.00    -0.274 C  
BRANCH  18  19
HETATM   19  N   UNL     1      -9.728  12.948  65.230  1.00  0.00    -0.068 NA 
HETATM   20  C   UNL     1     -10.472  13.109  63.974  1.00  0.00    -0.234 C  
HETATM   21  C   UNL     1     -10.293  11.782  65.896  1.00  0.00    -0.241 C  
HETATM   22  C   UNL     1     -10.906  11.704  63.582  1.00  0.00    -0.503 C  
HETATM   23  C   UNL     1     -10.454  10.819  64.732  1.00  0.00    -0.335 C  
ENDBRANCH  18  19
ENDBRANCH  17  18
ENDBRANCH  16  17
ENDBRANCH  13  16
ENDBRANCH   8  10
ENDBRANCH   5   8
BRANCH   6  24
HETATM   24  N   UNL     1      -6.709  11.092  71.141  1.00  0.00     0.383 NA 
HETATM   25  H   UNL     1      -7.427  11.092  70.415  1.00  0.00     0.000 HD 
BRANCH  24  26
HETATM   26  C   UNL     1      -6.477   9.812  71.703  1.00  0.00     0.352 A  
HETATM   27  C   UNL     1      -5.416   9.497  72.557  1.00  0.00     0.011 A  
HETATM   28  C   UNL     1      -7.270   8.739  71.255  1.00  0.00    -0.105 A  
HETATM   29  C   UNL     1      -5.143   8.174  72.944  1.00  0.00    -0.037 A  
HETATM   30  C   UNL     1      -5.900   7.118  72.439  1.00  0.00    -0.037 A  
HETATM   31  C   UNL     1      -6.951   7.406  71.572  1.00  0.00    -0.055 A  
BRANCH  31  32
HETATM   32  S   UNL     1      -7.919   6.079  70.899  1.00  0.00    -0.117 S  
HETATM   33  O   UNL     1      -6.997   5.024  70.531  1.00  0.00    -0.042 OA 
HETATM   34  O   UNL     1      -9.018   5.817  71.802  1.00  0.00    -0.139 OA 
BRANCH  32  35
HETATM   35  N   UNL     1      -8.524   6.664  69.444  1.00  0.00    -0.130 N  
HETATM   36  C   UNL     1      -9.275   6.850  67.128  1.00  0.00    -0.153 C  
HETATM   37  C   UNL     1      -7.261   5.501  67.635  1.00  0.00    -0.075 C  
HETATM   38  C   UNL     1      -9.551   4.693  68.330  1.00  0.00    -0.212 C  
HETATM   39  C   UNL     1      -8.637   5.907  68.172  1.00  0.00    -0.113 C  
HETATM   40  H   UNL     1      -8.843   7.633  69.434  1.00  0.00     0.000 HD 
ENDBRANCH  32  35
ENDBRANCH  31  32
ENDBRANCH  24  26
ENDBRANCH   6  24
TORSDOF 10
ENDMDL
MODEL      295
REMARK 921   NORMALIZED FREE ENERGY PREDICTED BY IDOCK:    4.30 KCAL/MOL
REMARK 922        TOTAL FREE ENERGY PREDICTED BY IDOCK:    5.47 KCAL/MOL
REMARK 923 INTER-LIGAND FREE ENERGY PREDICTED BY IDOCK:   -5.41 KCAL/MOL
REMARK 924 INTRA-LIGAND FREE ENERGY PREDICTED BY IDOCK:   10.88 KCAL/MOL
REMARK 927      BINDING AFFINITY PREDICTED BY RF-SCORE:    0.00 PKD
ROOT
HETATM    1  C   UNL     1      -5.152   9.132  68.848  1.00  0.00    -0.033 C  
HETATM    2  C   UNL     1      -6.517   9.739  68.802  1.00  0.00    -0.046 A  
HETATM    3  C   UNL     1      -6.709  10.992  69.357  1.00  0.00    -0.112 A  
HETATM    4  N   UNL     1      -7.881  11.640  69.377  1.00  0.00     0.223 NA 
HETATM    5  C   UNL     1      -8.920  10.994  68.847  1.00  0.00    -0.115 A  
HETATM    6  C   UNL     1      -7.635   9.157  68.206  1.00  0.00    -0.083 A  
HETATM    7  N   UNL     1      -8.823   9.785  68.257  1.00  0.00    -0.119 NA 
ENDROOT
BRANCH   5   8
HETATM    8  N   UNL     1     -10.141  11.664  68.948  1.00  0.00    -0.373 NA 
HETATM    9  H   UNL     1     -10.899  11.125  69.365  1.00  0.00     0.000 HD 
BRANCH   8  10
HETATM   10  C   UNL     1     -10.477  12.968  68.561  1.00  0.00    -0.249 A  
HETATM   11  C   UNL     1     -10.377  13.382  67.238  1.00  0.00    -0.244 A  
HETATM   12  C   UNL     1     -11.029  15.269  69.174  1.00  0.00    -0.251 A  
HETATM   13  C   UNL     1     -10.866  15.676  67.853  1.00  0.00    -0.306 A  
HETATM   14  C   UNL     1     -10.570  14.712  66.882  1.00  0.00    -0.281 A  
HETATM   15  C   UNL     1     -10.833  13.923  69.526  1.00  0.00    -0.045 A  
BRANCH  13  16
HETATM   16  O   UNL     1     -10.982  17.022  67.580  1.00  0.00    -0.290 OA 
BRANCH  16  17
HETATM   17  C   UNL     1     -10.448  17.358  66.298  1.00  0.00    -0.276 C  
BRANCH  17  18
HETATM   18  C   UNL     1      -9.257  16.503  65.862  1.00  0.00    -0.174 C  
BRANCH  18  19
HETATM   19  N   UNL     1      -8.844  15.649  66.986  1.00  0.00    -0.209 NA 
HETATM   20  C   UNL     1      -8.603  16.379  68.238  1.00  0.00    -0.200 C  
HETATM   21  C   UNL     1      -7.633  14.883  66.717  1.00  0.00     0.396 C  
HETATM   22  C   UNL     1      -7.636  15.510  69.030  1.00  0.00    -0.180 C  
HETATM   23  C   UNL     1      -7.298  14.354  68.102  1.00  0.00    -0.130 C  
ENDBRANCH  18  19
ENDBRANCH  17  18
ENDBRANCH  16  17
ENDBRANCH  13  16
ENDBRANCH   8  10
ENDBRANCH   5   8
BRANCH   6  24
HETATM   24  N   UNL     1      -7.524   7.858  67.644  1.00  0.00    -0.095 NA 
HETATM   25  H   UNL     1      -7.135   7.856  66.700  1.00  0.00     0.000 HD 
BRANCH  24  26
HETATM   26  C   UNL     1      -7.841   6.563  68.125  1.00  0.00    -0.106 A  
HETATM   27  C   UNL     1      -8.038   5.440  67.317  1.00  0.00    -0.101 A  
HETATM   28  C   UNL     1      -8.134   6.419  69.494  1.00  0.00    -0.118 A  
HETATM   29  C   UNL     1      -8.517   4.225  67.838  1.00  0.00    -0.100 A  
HETATM   30  C   UNL     1      -8.862   4.121  69.184  1.00  0.00    -0.142 A  
HETATM   31  C   UNL     1      -8.691   5.233  70.006  1.00  0.00    -0.116 A  
BRANCH  31  32
HETATM   32  S   UNL     1      -9.142   5.133  71.720  1.00  0.00    -0.138 S  
HETATM   33  O   UNL     1     -10.074   4.033  71.850  1.00  0.00    -0.180 OA 
HETATM   34  O   UNL     1      -7.931   5.173  72.509  1.00  0.00    -0.100 OA 
BRANCH  32  35
HETATM   35  N   UNL     1     -10.047   6.517  72.022  1.00  0.00    -0.184 N  
HETATM   36  C   UNL     1     -11.892   8.097  72.276  1.00  0.00    -0.441 C  
HETATM   37  C   UNL     1     -11.922   6.507  70.377  1.00  0.00    -0.295 C  
HETATM   38  C   UNL     1     -12.278   5.687  72.740  1.00  0.00     0.100 C  
HETATM   39  C   UNL     1     -11.513   6.662  71.846  1.00  0.00    -0.291 C  
HETATM   40  H   UNL     1      -9.540   7.336  72.358  1.00  0.00     0.000 HD 
ENDBRANCH  32  35
ENDBRANCH  31  32
ENDBRANCH  24  26
ENDBRANCH   6  24
TORSDOF 10
ENDMDL
MODEL      296
REMARK 921   NORMALIZED FREE ENERGY PREDICTED BY IDOCK:    6.17 KCAL/MOL
REMARK 922        TOTAL FREE ENERGY PREDICTED BY IDOCK:    8.44 KCAL/MOL
REMARK 923 INTER-LIGAND FREE ENERGY PREDICTED BY IDOCK:    6.79 KCAL/MOL
REMARK 924 INTRA-LIGAND FREE ENERGY PREDICTED BY IDOCK:    1.65 KCAL/MOL
REMARK 927      BINDING AFFINITY PREDICTED BY RF-SCORE:    0.00 PKD
ROOT
HETATM    1  C   UNL     1     -10.175  14.273  63.467  1.00  0.00     3.908 C  
HETATM    2  C   UNL     1      -9.986  13.016  64.254  1.00  0.00    -0.085 A  
HETATM    3  C   UNL     1      -9.081  12.073  63.797  1.00  0.00     0.532 A  
HETATM    4  N   UNL     1      -8.822  10.913  64.413  1.00  0.00    -0.117 NA 
HETATM    5  C   UNL     1      -9.523  10.664  65.520  1.00  0.00    -0.214 A  
HETATM    6  C   UNL     1     -10.628  12.716  65.454  1.00  0.00    -0.282 A  
HETATM    7  N   UNL     1     -10.402  11.535  66.056  1.00  0.00    -0.238 NA 
ENDROOT
BRANCH   5   8
HETATM    8  N   UNL     1      -9.283   9.415  66.097  1.00  0.00    -0.175 NA 
HETATM    9  H   UNL     1      -9.063   8.668  65.439  1.00  0.00     0.000 HD 
BRANCH   8  10
HETATM   10  C   UNL     1      -9.300   9.038  67.447  1.00  0.00    -0.139 A  
HETATM   11  C   UNL     1      -9.212   7.706  67.830  1.00  0.00    -0.139 A  
HETATM   12  C   UNL     1      -9.671   9.624  69.790  1.00  0.00    -0.247 A  
HETATM   13  C   UNL     1      -9.640   8.278  70.147  1.00  0.00    -0.167 A  
HETATM   14  C   UNL     1      -9.375   7.325  69.157  1.00  0.00    -0.146 A  
HETATM   15  C   UNL     1      -9.504  10.001  68.447  1.00  0.00    -0.146 A  
BRANCH  13  16
HETATM   16  O   UNL     1      -9.899   7.960  71.463  1.00  0.00    -0.161 OA 
BRANCH  16  17
HETATM   17  C   UNL     1     -10.417   9.075  72.192  1.00  0.00    -0.128 C  
BRANCH  17  18
HETATM   18  C   UNL     1     -11.943   9.134  72.263  1.00  0.00    -0.207 C  
BRANCH  18  19
HETATM   19  N   UNL     1     -12.462   7.788  72.552  1.00  0.00    -0.112 NA 
HETATM   20  C   UNL     1     -11.723   6.705  71.890  1.00  0.00    -0.313 C  
HETATM   21  C   UNL     1     -13.862   7.616  72.185  1.00  0.00    -0.074 C  
HETATM   22  C   UNL     1     -12.712   5.553  71.781  1.00  0.00     1.565 C  
HETATM   23  C   UNL     1     -14.023   6.110  72.313  1.00  0.00     0.569 C  
ENDBRANCH  18  19
ENDBRANCH  17  18
ENDBRANCH  16  17
ENDBRANCH  13  16
ENDBRANCH   8  10
ENDBRANCH   5   8
BRANCH   6  24
HETATM   24  N   UNL     1     -11.594  13.620  65.969  1.00  0.00    -0.326 NA 
HETATM   25  H   UNL     1     -12.464  13.632  65.435  1.00  0.00     0.000 HD 
BRANCH  24  26
HETATM   26  C   UNL     1     -11.599  14.510  67.072  1.00  0.00    -0.386 A  
HETATM   27  C   UNL     1     -12.625  15.414  67.361  1.00  0.00     1.510 A  
HETATM   28  C   UNL     1     -10.428  14.611  67.845  1.00  0.00    -0.242 A  
HETATM   29  C   UNL     1     -12.495  16.386  68.369  1.00  0.00     1.555 A  
HETATM   30  C   UNL     1     -11.304  16.512  69.080  1.00  0.00    -0.156 A  
HETATM   31  C   UNL     1     -10.260  15.634  68.796  1.00  0.00    -0.215 A  
BRANCH  31  32
HETATM   32  S   UNL     1      -8.725  15.786  69.675  1.00  0.00     0.105 S  
HETATM   33  O   UNL     1      -9.050  15.888  71.082  1.00  0.00     2.632 OA 
HETATM   34  O   UNL     1      -7.827  14.758  69.196  1.00  0.00    -0.151 OA 
BRANCH  32  35
HETATM   35  N   UNL     1      -8.119  17.295  69.251  1.00  0.00     0.012 N  
HETATM   36  C   UNL     1      -7.435  19.272  67.990  1.00  0.00    -0.312 C  
HETATM   37  C   UNL     1      -7.071  17.029  67.003  1.00  0.00    -0.228 C  
HETATM   38  C   UNL     1      -9.407  17.964  67.232  1.00  0.00    -0.258 C  
HETATM   39  C   UNL     1      -8.026  17.849  67.877  1.00  0.00    -0.235 C  
HETATM   40  H   UNL     1      -7.783  17.887  70.010  1.00  0.00     0.000 HD 
ENDBRANCH  32  35
ENDBRANCH  31  32
ENDBRANCH  24  26
ENDBRANCH   6  24
TORSDOF 10
ENDMDL
MODEL      297
REMARK 921   NORMALIZED FREE ENERGY PREDICTED BY IDOCK:    7.40 KCAL/MOL
REMARK 922        TOTAL FREE ENERGY PREDICTED BY IDOCK:   10.38 KCAL/MOL
REMARK 923 INTER-LIGAND FREE ENERGY PREDICTED BY IDOCK:    6.76 KCAL/MOL
REMARK 924 INTRA-LIGAND FREE ENERGY PREDICTED BY IDOCK:    3.62 KCAL/MOL
REMARK 927      BINDING AFFINITY PREDICTED BY RF-SCORE:    0.00 PKD
ROOT
HETATM    1  C   UNL     1     -11.675  17.156  66.140  1.00  0.00     2.058 C  
HETATM    2  C   UNL     1     -11.803  15.720  65.742  1.00  0.00     0.678 A  
HETATM    3  C   UNL     1     -11.407  15.343  64.470  1.00  0.00    -0.313 A  
HETATM    4  N   UNL     1     -11.470  14.092  63.998  1.00  0.00    -0.196 NA 
HETATM    5  C   UNL     1     -11.983  13.177  64.821  1.00  0.00    -0.388 A  
HETATM    6  C   UNL     1     -12.263  14.696  66.568  1.00  0.00    -0.131 A  
HETATM    7  N   UNL     1     -12.367  13.444  66.086  1.00  0.00    -0.405 NA 
ENDROOT
BRANCH   5   8
HETATM    8  N   UNL     1     -12.103  11.898  64.274  1.00  0.00    -0.289 NA 
HETATM    9  H   UNL     1     -13.047  11.632  63.992  1.00  0.00     0.000 HD 
BRANCH   8  10
HETATM   10  C   UNL     1     -11.118  10.926  64.053  1.00  0.00     0.313 A  
HETATM   11  C   UNL     1     -10.694  10.598  62.771  1.00  0.00     0.931 A  
HETATM   12  C   UNL     1      -9.725   9.110  64.911  1.00  0.00     0.368 A  
HETATM   13  C   UNL     1      -9.359   8.759  63.614  1.00  0.00     1.211 A  
HETATM   14  C   UNL     1      -9.826   9.536  62.547  1.00  0.00     1.033 A  
HETATM   15  C   UNL     1     -10.602  10.186  65.129  1.00  0.00     0.227 A  
BRANCH  13  16
HETATM   16  O   UNL     1      -8.569   7.640  63.454  1.00  0.00     0.184 OA 
BRANCH  16  17
HETATM   17  C   UNL     1      -8.028   7.184  64.695  1.00  0.00    -0.114 C  
BRANCH  17  18
HETATM   18  C   UNL     1      -8.887   7.505  65.919  1.00  0.00    -0.126 C  
BRANCH  18  19
HETATM   19  N   UNL     1      -8.793   6.391  66.876  1.00  0.00    -0.117 NA 
HETATM   20  C   UNL     1     -10.092   5.839  67.283  1.00  0.00    -0.176 C  
HETATM   21  C   UNL     1      -8.091   6.739  68.104  1.00  0.00    -0.115 C  
HETATM   22  C   UNL     1      -9.849   5.205  68.645  1.00  0.00    -0.225 C  
HETATM   23  C   UNL     1      -8.405   5.538  68.981  1.00  0.00    -0.102 C  
ENDBRANCH  18  19
ENDBRANCH  17  18
ENDBRANCH  16  17
ENDBRANCH  13  16
ENDBRANCH   8  10
ENDBRANCH   5   8
BRANCH   6  24
HETATM   24  N   UNL     1     -12.718  15.010  67.875  1.00  0.00     0.338 NA 
HETATM   25  H   UNL     1     -13.716  14.844  68.009  1.00  0.00     0.000 HD 
BRANCH  24  26
HETATM   26  C   UNL     1     -12.070  15.507  69.034  1.00  0.00    -0.221 A  
HETATM   27  C   UNL     1     -12.235  14.989  70.322  1.00  0.00    -0.390 A  
HETATM   28  C   UNL     1     -11.330  16.699  68.919  1.00  0.00    -0.123 A  
HETATM   29  C   UNL     1     -11.699  15.630  71.453  1.00  0.00    -0.491 A  
HETATM   30  C   UNL     1     -11.025  16.843  71.326  1.00  0.00     0.895 A  
HETATM   31  C   UNL     1     -10.864  17.388  70.053  1.00  0.00     0.773 A  
BRANCH  31  32
HETATM   32  S   UNL     1     -10.026  18.941  69.865  1.00  0.00     1.008 S  
HETATM   33  O   UNL     1     -10.644  19.624  68.748  1.00  0.00    -0.191 OA 
HETATM   34  O   UNL     1      -9.945  19.572  71.164  1.00  0.00     1.509 OA 
BRANCH  32  35
HETATM   35  N   UNL     1      -8.478  18.548  69.341  1.00  0.00     0.264 N  
HETATM   36  C   UNL     1      -6.585  17.785  68.000  1.00  0.00    -0.192 C  
HETATM   37  C   UNL     1      -8.709  16.515  67.916  1.00  0.00    -0.188 C  
HETATM   38  C   UNL     1      -8.547  18.808  66.869  1.00  0.00    -0.290 C  
HETATM   39  C   UNL     1      -8.123  17.924  68.042  1.00  0.00    -0.252 C  
HETATM   40  H   UNL     1      -7.708  18.759  69.977  1.00  0.00     0.000 HD 
ENDBRANCH  32  35
ENDBRANCH  31  32
ENDBRANCH  24  26
ENDBRANCH   6  24
TORSDOF 10
ENDMDL
MODEL      298
REMARK 921   NORMALIZED FREE ENERGY PREDICTED BY IDOCK:    8.83 KCAL/MOL
REMARK 922        TOTAL FREE ENERGY PREDICTED BY IDOCK:   12.64 KCAL/MOL
REMARK 923 INTER-LIGAND FREE ENERGY PREDICTED BY IDOCK:   12.86 KCAL/MOL
REMARK 924 INTRA-LIGAND FREE ENERGY PREDICTED BY IDOCK:   -0.22 KCAL/MOL
REMARK 927      BINDING AFFINITY PREDICTED BY RF-SCORE:    0.00 PKD
ROOT
HETATM    1  C   UNL     1      -8.317  17.068  70.258  1.00  0.00     2.805 C  
HETATM    2  C   UNL     1      -7.703  15.878  69.592  1.00  0.00     0.001 A  
HETATM    3  C   UNL     1      -6.574  16.059  68.812  1.00  0.00    -0.126 A  
HETATM    4  N   UNL     1      -5.934  15.075  68.167  1.00  0.00    -0.127 NA 
HETATM    5  C   UNL     1      -6.463  13.856  68.279  1.00  0.00    -0.111 A  
HETATM    6  C   UNL     1      -8.156  14.566  69.717  1.00  0.00     0.395 A  
HETATM    7  N   UNL     1      -7.541  13.579  69.040  1.00  0.00     0.008 NA 
ENDROOT
BRANCH   5   8
HETATM    8  N   UNL     1      -5.815  12.866  67.537  1.00  0.00    -0.242 NA 
HETATM    9  H   UNL     1      -5.213  13.208  66.789  1.00  0.00     0.000 HD 
BRANCH   8  10
HETATM   10  C   UNL     1      -5.870  11.472  67.670  1.00  0.00    -0.055 A  
HETATM   11  C   UNL     1      -5.667  10.630  66.584  1.00  0.00    -0.068 A  
HETATM   12  C   UNL     1      -6.435   9.507  69.009  1.00  0.00    -0.046 A  
HETATM   13  C   UNL     1      -6.284   8.686  67.895  1.00  0.00    -0.052 A  
HETATM   14  C   UNL     1      -5.865   9.258  66.688  1.00  0.00    -0.055 A  
HETATM   15  C   UNL     1      -6.231  10.893  68.897  1.00  0.00    -0.041 A  
BRANCH  13  16
HETATM   16  O   UNL     1      -6.585   7.349  68.041  1.00  0.00    -0.050 OA 
BRANCH  16  17
HETATM   17  C   UNL     1      -5.409   6.541  68.121  1.00  0.00    -0.008 C  
BRANCH  17  18
HETATM   18  C   UNL     1      -5.512   5.197  67.399  1.00  0.00    -0.012 C  
BRANCH  18  19
HETATM   19  N   UNL     1      -6.873   4.663  67.570  1.00  0.00    -0.058 NA 
HETATM   20  C   UNL     1      -7.052   3.857  68.784  1.00  0.00    -0.051 C  
HETATM   21  C   UNL     1      -7.315   3.835  66.456  1.00  0.00    -0.072 C  
HETATM   22  C   UNL     1      -8.221   2.931  68.481  1.00  0.00    -0.080 C  
HETATM   23  C   UNL     1      -8.575   3.208  67.029  1.00  0.00    -0.121 C  
ENDBRANCH  18  19
ENDBRANCH  17  18
ENDBRANCH  16  17
ENDBRANCH  13  16
ENDBRANCH   8  10
ENDBRANCH   5   8
BRANCH   6  24
HETATM   24  N   UNL     1      -9.328  14.305  70.474  1.00  0.00     1.593 NA 
HETATM   25  H   UNL     1      -9.136  13.912  71.396  1.00  0.00     0.000 HD 
BRANCH  24  26
HETATM   26  C   UNL     1     -10.710  14.480  70.213  1.00  0.00     0.216 A  
HETATM   27  C   UNL     1     -11.723  14.344  71.167  1.00  0.00    -0.225 A  
HETATM   28  C   UNL     1     -11.115  14.648  68.876  1.00  0.00    -0.268 A  
HETATM   29  C   UNL     1     -13.084  14.362  70.811  1.00  0.00    -0.344 A  
HETATM   30  C   UNL     1     -13.464  14.465  69.474  1.00  0.00     2.126 A  
HETATM   31  C   UNL     1     -12.470  14.583  68.504  1.00  0.00     0.201 A  
BRANCH  31  32
HETATM   32  S   UNL     1     -12.927  14.696  66.793  1.00  0.00     1.998 S  
HETATM   33  O   UNL     1     -13.648  13.484  66.465  1.00  0.00     1.537 OA 
HETATM   34  O   UNL     1     -13.523  15.994  66.568  1.00  0.00     4.561 OA 
BRANCH  32  35
HETATM   35  N   UNL     1     -11.481  14.595  65.941  1.00  0.00    -0.346 N  
HETATM   36  C   UNL     1      -9.495  13.756  64.795  1.00  0.00     0.893 C  
HETATM   37  C   UNL     1     -10.250  12.636  66.871  1.00  0.00    -0.242 C  
HETATM   38  C   UNL     1     -11.589  12.421  64.741  1.00  0.00    -0.395 C  
HETATM   39  C   UNL     1     -10.744  13.350  65.609  1.00  0.00    -0.277 C  
HETATM   40  H   UNL     1     -11.071  15.473  65.622  1.00  0.00     0.000 HD 
ENDBRANCH  32  35
ENDBRANCH  31  32
ENDBRANCH  24  26
ENDBRANCH   6  24
TORSDOF 10
ENDMDL
MODEL      299
REMARK 921   NORMALIZED FREE ENERGY PREDICTED BY IDOCK:   11.90 KCAL/MOL
REMARK 922        TOTAL FREE ENERGY PREDICTED BY IDOCK:   17.50 KCAL/MOL
REMARK 923 INTER-LIGAND FREE ENERGY PREDICTED BY IDOCK:   17.21 KCAL/MOL
REMARK 924 INTRA-LIGAND FREE ENERGY PREDICTED BY IDOCK:    0.29 KCAL/MOL
REMARK 927      BINDING AFFINITY PREDICTED BY RF-SCORE:    0.00 PKD
ROOT
HETATM    1  C   UNL     1      -8.930  19.217  65.115  1.00  0.00     1.969 C  
HETATM    2  C   UNL     1      -8.223  18.637  66.298  1.00  0.00    -0.258 A  
HETATM    3  C   UNL     1      -7.505  19.482  67.126  1.00  0.00    -0.231 A  
HETATM    4  N   UNL     1      -6.833  19.084  68.214  1.00  0.00    -0.240 NA 
HETATM    5  C   UNL     1      -6.851  17.776  68.471  1.00  0.00    -0.233 A  
HETATM    6  C   UNL     1      -8.252  17.294  66.671  1.00  0.00    -0.261 A  
HETATM    7  N   UNL     1      -7.546  16.883  67.740  1.00  0.00    -0.166 NA 
ENDROOT
BRANCH   5   8
HETATM    8  N   UNL     1      -6.081  17.385  69.569  1.00  0.00    -0.242 NA 
HETATM    9  H   UNL     1      -5.225  17.920  69.712  1.00  0.00     0.000 HD 
BRANCH   8  10
HETATM   10  C   UNL     1      -6.313  16.366  70.503  1.00  0.00     0.563 A  
HETATM   11  C   UNL     1      -7.601  16.001  70.876  1.00  0.00     3.009 A  
HETATM   12  C   UNL     1      -5.454  14.835  72.204  1.00  0.00     0.043 A  
HETATM   13  C   UNL     1      -6.752  14.527  72.603  1.00  0.00     2.218 A  
HETATM   14  C   UNL     1      -7.825  15.095  71.906  1.00  0.00     4.818 A  
HETATM   15  C   UNL     1      -5.236  15.752  71.161  1.00  0.00    -0.091 A  
BRANCH  13  16
HETATM   16  O   UNL     1      -6.904  13.693  73.690  1.00  0.00     1.610 OA 
BRANCH  16  17
HETATM   17  C   UNL     1      -6.512  12.351  73.394  1.00  0.00     5.043 C  
BRANCH  17  18
HETATM   18  C   UNL     1      -5.582  12.212  72.188  1.00  0.00     0.896 C  
BRANCH  18  19
HETATM   19  N   UNL     1      -5.569  10.806  71.753  1.00  0.00    -0.316 NA 
HETATM   20  C   UNL     1      -6.644  10.458  70.815  1.00  0.00     0.109 C  
HETATM   21  C   UNL     1      -5.661   9.858  72.855  1.00  0.00     0.325 C  
HETATM   22  C   UNL     1      -6.850   8.959  70.979  1.00  0.00    -0.081 C  
HETATM   23  C   UNL     1      -5.919   8.557  72.112  1.00  0.00    -0.062 C  
ENDBRANCH  18  19
ENDBRANCH  17  18
ENDBRANCH  16  17
ENDBRANCH  13  16
ENDBRANCH   8  10
ENDBRANCH   5   8
BRANCH   6  24
HETATM   24  N   UNL     1      -8.941  16.361  65.853  1.00  0.00    -0.466 NA 
HETATM   25  H   UNL     1      -9.131  16.709  64.912  1.00  0.00     0.000 HD 
BRANCH  24  26
HETATM   26  C   UNL     1      -9.421  15.046  66.074  1.00  0.00    -0.302 A  
HETATM   27  C   UNL     1     -10.021  14.243  65.100  1.00  0.00    -0.266 A  
HETATM   28  C   UNL     1      -9.443  14.563  67.396  1.00  0.00    -0.202 A  
HETATM   29  C   UNL     1     -10.629  13.016  65.420  1.00  0.00    -0.307 A  
HETATM   30  C   UNL     1     -10.697  12.586  66.744  1.00  0.00    -0.261 A  
HETATM   31  C   UNL     1     -10.122  13.379  67.735  1.00  0.00    -0.232 A  
BRANCH  31  32
HETATM   32  S   UNL     1     -10.211  12.863  69.431  1.00  0.00     0.797 S  
HETATM   33  O   UNL     1     -11.411  12.063  69.569  1.00  0.00    -0.267 OA 
HETATM   34  O   UNL     1      -8.921  12.330  69.811  1.00  0.00     1.693 OA 
BRANCH  32  35
HETATM   35  N   UNL     1     -10.512  14.266  70.306  1.00  0.00    -0.046 N  
HETATM   36  C   UNL     1     -11.607  16.184  71.347  1.00  0.00    -0.495 C  
HETATM   37  C   UNL     1     -12.281  15.507  69.062  1.00  0.00    -0.147 C  
HETATM   38  C   UNL     1     -12.876  14.069  71.051  1.00  0.00    -0.410 C  
HETATM   39  C   UNL     1     -11.815  14.968  70.418  1.00  0.00    -0.297 C  
HETATM   40  H   UNL     1      -9.724  14.675  70.808  1.00  0.00     0.000 HD 
ENDBRANCH  32  35
ENDBRANCH  31  32
ENDBRANCH  24  26
ENDBRANCH   6  24
TORSDOF 10
ENDMDL
MODEL      300
REMARK 921   NORMALIZED FREE ENERGY PREDICTED BY IDOCK:   12.66 KCAL/MOL
REMARK 922        TOTAL FREE ENERGY PREDICTED BY IDOCK:   18.72 KCAL/MOL
REMARK 923 INTER-LIGAND FREE ENERGY PREDICTED BY IDOCK:   16.53 KCAL/MOL
REMARK 924 INTRA-LIGAND FREE ENERGY PREDICTED BY IDOCK:    2.19 KCAL/MOL
REMARK 927      BINDING AFFINITY PREDICTED BY RF-SCORE:    0.00 PKD
ROOT
HETATM    1  C   UNL     1     -10.002  14.397  63.216  1.00  0.00     6.893 C  
HETATM    2  C   UNL     1      -9.368  13.285  63.989  1.00  0.00     2.190 A  
HETATM    3  C   UNL     1      -8.513  12.419  63.331  1.00  0.00     3.059 A  
HETATM    4  N   UNL     1      -7.884  11.389  63.912  1.00  0.00     1.061 NA 
HETATM    5  C   UNL     1      -8.146  11.193  65.205  1.00  0.00     0.325 A  
HETATM    6  C   UNL     1      -9.538  13.058  65.354  1.00  0.00     0.100 A  
HETATM    7  N   UNL     1      -8.940  12.002  65.935  1.00  0.00    -0.044 NA 
ENDROOT
BRANCH   5   8
HETATM    8  N   UNL     1      -7.532  10.070  65.763  1.00  0.00    -0.114 NA 
HETATM    9  H   UNL     1      -7.375   9.295  65.118  1.00  0.00     0.000 HD 
BRANCH   8  10
HETATM   10  C   UNL     1      -7.102   9.849  67.078  1.00  0.00    -0.089 A  
HETATM   11  C   UNL     1      -6.650   8.603  67.496  1.00  0.00    -0.058 A  
HETATM   12  C   UNL     1      -6.922  10.621  69.390  1.00  0.00    -0.106 A  
HETATM   13  C   UNL     1      -6.527   9.349  69.799  1.00  0.00    -0.041 A  
HETATM   14  C   UNL     1      -6.362   8.351  68.832  1.00  0.00    -0.045 A  
HETATM   15  C   UNL     1      -7.209  10.868  68.037  1.00  0.00    -0.086 A  
BRANCH  13  16
HETATM   16  O   UNL     1      -6.346   9.141  71.149  1.00  0.00    -0.062 OA 
BRANCH  16  17
HETATM   17  C   UNL     1      -6.861  10.219  71.933  1.00  0.00     1.997 C  
BRANCH  17  18
HETATM   18  C   UNL     1      -8.307  10.036  72.393  1.00  0.00     4.967 C  
BRANCH  18  19
HETATM   19  N   UNL     1      -8.512   8.631  72.783  1.00  0.00    -0.418 NA 
HETATM   20  C   UNL     1      -7.794   7.665  71.942  1.00  0.00    -0.088 C  
HETATM   21  C   UNL     1      -9.911   8.226  72.772  1.00  0.00    -0.263 C  
HETATM   22  C   UNL     1      -8.577   6.366  72.065  1.00  0.00    -0.126 C  
HETATM   23  C   UNL     1      -9.788   6.718  72.914  1.00  0.00    -0.184 C  
ENDBRANCH  18  19
ENDBRANCH  17  18
ENDBRANCH  16  17
ENDBRANCH  13  16
ENDBRANCH   8  10
ENDBRANCH   5   8
BRANCH   6  24
HETATM   24  N   UNL     1     -10.425  13.886  66.090  1.00  0.00    -0.291 NA 
HETATM   25  H   UNL     1     -11.388  13.548  66.090  1.00  0.00     0.000 HD 
BRANCH  24  26
HETATM   26  C   UNL     1     -10.249  15.084  66.826  1.00  0.00    -0.260 A  
HETATM   27  C   UNL     1     -11.285  15.825  67.402  1.00  0.00    -0.179 A  
HETATM   28  C   UNL     1      -8.966  15.662  66.851  1.00  0.00    -0.267 A  
HETATM   29  C   UNL     1     -11.064  17.091  67.972  1.00  0.00    -0.149 A  
HETATM   30  C   UNL     1      -9.800  17.675  67.930  1.00  0.00    -0.300 A  
HETATM   31  C   UNL     1      -8.755  16.963  67.344  1.00  0.00    -0.203 A  
BRANCH  31  32
HETATM   32  S   UNL     1      -7.138  17.691  67.260  1.00  0.00    -0.182 S  
HETATM   33  O   UNL     1      -6.754  17.714  65.864  1.00  0.00    -0.259 OA 
HETATM   34  O   UNL     1      -7.148  18.907  68.043  1.00  0.00    -0.230 OA 
BRANCH  32  35
HETATM   35  N   UNL     1      -6.111  16.574  67.982  1.00  0.00    -0.116 N  
HETATM   36  C   UNL     1      -5.149  14.921  69.501  1.00  0.00    -0.088 C  
HETATM   37  C   UNL     1      -6.401  16.837  70.445  1.00  0.00     0.513 C  
HETATM   38  C   UNL     1      -7.613  15.007  69.196  1.00  0.00    -0.176 C  
HETATM   39  C   UNL     1      -6.349  15.863  69.264  1.00  0.00    -0.153 C  
HETATM   40  H   UNL     1      -5.241  16.363  67.494  1.00  0.00     0.000 HD 
ENDBRANCH  32  35
ENDBRANCH  31  32
ENDBRANCH  24  26
ENDBRANCH   6  24
TORSDOF 10
ENDMDL
MODEL      301
REMARK 921   NORMALIZED FREE ENERGY PREDICTED BY IDOCK:   14.43 KCAL/MOL
REMARK 922        TOTAL FREE ENERGY PREDICTED BY IDOCK:   21.52 KCAL/MOL
REMARK 923 INTER-LIGAND FREE ENERGY PREDICTED BY IDOCK:   -0.90 KCAL/MOL
REMARK 924 INTRA-LIGAND FREE ENERGY PREDICTED BY IDOCK:   22.42 KCAL/MOL
REMARK 927      BINDING AFFINITY PREDICTED BY RF-SCORE:    0.00 PKD
ROOT
HETATM    1  C   UNL     1      -6.622  14.802  72.339  1.00  0.00     1.656 C  
HETATM    2  C   UNL     1      -6.900  14.706  70.873  1.00  0.00     0.584 A  
HETATM    3  C   UNL     1      -7.137  15.869  70.162  1.00  0.00     0.418 A  
HETATM    4  N   UNL     1      -7.395  15.914  68.848  1.00  0.00    -0.154 NA 
HETATM    5  C   UNL     1      -7.451  14.739  68.219  1.00  0.00    -0.115 A  
HETATM    6  C   UNL     1      -6.907  13.524  70.133  1.00  0.00     0.434 A  
HETATM    7  N   UNL     1      -7.204  13.559  68.822  1.00  0.00    -0.103 NA 
ENDROOT
BRANCH   5   8
HETATM    8  N   UNL     1      -7.794  14.815  66.867  1.00  0.00    -0.326 NA 
HETATM    9  H   UNL     1      -7.039  15.102  66.244  1.00  0.00     0.000 HD 
BRANCH   8  10
HETATM   10  C   UNL     1      -9.020  14.554  66.241  1.00  0.00    -0.042 A  
HETATM   11  C   UNL     1      -9.278  13.334  65.629  1.00  0.00     0.384 A  
HETATM   12  C   UNL     1     -11.159  15.367  65.384  1.00  0.00    -0.331 A  
HETATM   13  C   UNL     1     -11.373  14.158  64.728  1.00  0.00    -0.371 A  
HETATM   14  C   UNL     1     -10.435  13.130  64.886  1.00  0.00    -0.369 A  
HETATM   15  C   UNL     1      -9.988  15.565  66.135  1.00  0.00    -0.332 A  
BRANCH  13  16
HETATM   16  O   UNL     1     -12.494  14.051  63.933  1.00  0.00    -0.696 OA 
BRANCH  16  17
HETATM   17  C   UNL     1     -12.829  12.689  63.657  1.00  0.00    -0.077 C  
BRANCH  17  18
HETATM   18  C   UNL     1     -11.816  11.669  64.178  1.00  0.00    -0.172 C  
BRANCH  18  19
HETATM   19  N   UNL     1     -11.761  11.754  65.646  1.00  0.00    -0.316 NA 
HETATM   20  C   UNL     1     -12.146  13.064  66.185  1.00  0.00    -0.409 C  
HETATM   21  C   UNL     1     -10.445  11.454  66.194  1.00  0.00    -0.255 C  
HETATM   22  C   UNL     1     -11.455  13.160  67.538  1.00  0.00    -0.371 C  
HETATM   23  C   UNL     1     -10.611  11.899  67.637  1.00  0.00    -0.241 C  
ENDBRANCH  18  19
ENDBRANCH  17  18
ENDBRANCH  16  17
ENDBRANCH  13  16
ENDBRANCH   8  10
ENDBRANCH   5   8
BRANCH   6  24
HETATM   24  N   UNL     1      -6.703  12.287  70.799  1.00  0.00     0.292 NA 
HETATM   25  H   UNL     1      -6.861  12.338  71.806  1.00  0.00     0.000 HD 
BRANCH  24  26
HETATM   26  C   UNL     1      -6.327  10.996  70.353  1.00  0.00    -0.060 A  
HETATM   27  C   UNL     1      -5.982  10.678  69.036  1.00  0.00    -0.040 A  
HETATM   28  C   UNL     1      -6.456   9.921  71.252  1.00  0.00     0.167 A  
HETATM   29  C   UNL     1      -5.783   9.350  68.621  1.00  0.00    -0.040 A  
HETATM   30  C   UNL     1      -5.979   8.294  69.510  1.00  0.00    -0.033 A  
HETATM   31  C   UNL     1      -6.340   8.586  70.823  1.00  0.00    -0.039 A  
BRANCH  31  32
HETATM   32  S   UNL     1      -6.614   7.260  71.971  1.00  0.00    -0.055 S  
HETATM   33  O   UNL     1      -7.082   6.124  71.204  1.00  0.00    -0.070 OA 
HETATM   34  O   UNL     1      -5.448   7.148  72.819  1.00  0.00    -0.037 OA 
BRANCH  32  35
HETATM   35  N   UNL     1      -7.931   7.741  72.898  1.00  0.00    -0.113 N  
HETATM   36  C   UNL     1     -10.197   8.220  73.672  1.00  0.00     0.955 C  
HETATM   37  C   UNL     1      -9.612   8.668  71.307  1.00  0.00    -0.292 C  
HETATM   38  C   UNL     1      -9.810   6.295  72.149  1.00  0.00    -0.171 C  
HETATM   39  C   UNL     1      -9.354   7.716  72.479  1.00  0.00    -0.163 C  
HETATM   40  H   UNL     1      -7.733   8.082  73.839  1.00  0.00     0.000 HD 
ENDBRANCH  32  35
ENDBRANCH  31  32
ENDBRANCH  24  26
ENDBRANCH   6  24
TORSDOF 10
ENDMDL
MODEL      302
REMARK 921   NORMALIZED FREE ENERGY PREDICTED BY IDOCK:   16.06 KCAL/MOL
REMARK 922        TOTAL FREE ENERGY PREDICTED BY IDOCK:   24.11 KCAL/MOL
REMARK 923 INTER-LIGAND FREE ENERGY PREDICTED BY IDOCK:   23.30 KCAL/MOL
REMARK 924 INTRA-LIGAND FREE ENERGY PREDICTED BY IDOCK:    0.81 KCAL/MOL
REMARK 927      BINDING AFFINITY PREDICTED BY RF-SCORE:    0.00 PKD
ROOT
HETATM    1  C   UNL     1     -10.746  11.410  63.406  1.00  0.00    -0.405 C  
HETATM    2  C   UNL     1     -10.764  12.416  64.511  1.00  0.00    -0.355 A  
HETATM    3  C   UNL     1     -11.780  13.356  64.541  1.00  0.00    -0.384 A  
HETATM    4  N   UNL     1     -11.906  14.305  65.477  1.00  0.00    -0.353 NA 
HETATM    5  C   UNL     1     -10.955  14.340  66.412  1.00  0.00    -0.311 A  
HETATM    6  C   UNL     1      -9.848  12.473  65.560  1.00  0.00    -0.183 A  
HETATM    7  N   UNL     1      -9.946  13.448  66.481  1.00  0.00    -0.279 NA 
ENDROOT
BRANCH   5   8
HETATM    8  N   UNL     1     -11.075  15.385  67.331  1.00  0.00    -0.324 NA 
HETATM    9  H   UNL     1     -11.591  16.199  66.998  1.00  0.00     0.000 HD 
BRANCH   8  10
HETATM   10  C   UNL     1     -10.591  15.479  68.642  1.00  0.00    -0.243 A  
HETATM   11  C   UNL     1      -9.318  15.036  68.981  1.00  0.00    -0.206 A  
HETATM   12  C   UNL     1     -11.007  15.901  71.013  1.00  0.00    -0.169 A  
HETATM   13  C   UNL     1      -9.750  15.398  71.339  1.00  0.00     2.424 A  
HETATM   14  C   UNL     1      -8.896  14.997  70.305  1.00  0.00     0.852 A  
HETATM   15  C   UNL     1     -11.426  15.939  69.672  1.00  0.00    -0.346 A  
BRANCH  13  16
HETATM   16  O   UNL     1      -9.428  15.301  72.675  1.00  0.00     4.729 OA 
BRANCH  16  17
HETATM   17  C   UNL     1      -9.876  14.070  73.247  1.00  0.00     9.502 C  
BRANCH  17  18
HETATM   18  C   UNL     1     -10.896  13.311  72.398  1.00  0.00     7.868 C  
BRANCH  18  19
HETATM   19  N   UNL     1     -12.251  13.631  72.876  1.00  0.00     0.498 NA 
HETATM   20  C   UNL     1     -13.122  14.226  71.855  1.00  0.00    -0.365 C  
HETATM   21  C   UNL     1     -12.263  14.544  74.011  1.00  0.00     0.303 C  
HETATM   22  C   UNL     1     -14.160  15.025  72.629  1.00  0.00    -0.397 C  
HETATM   23  C   UNL     1     -13.736  14.912  74.085  1.00  0.00     3.305 C  
ENDBRANCH  18  19
ENDBRANCH  17  18
ENDBRANCH  16  17
ENDBRANCH  13  16
ENDBRANCH   8  10
ENDBRANCH   5   8
BRANCH   6  24
HETATM   24  N   UNL     1      -8.759  11.562  65.581  1.00  0.00    -0.396 NA 
HETATM   25  H   UNL     1      -8.394  11.345  64.653  1.00  0.00     0.000 HD 
BRANCH  24  26
HETATM   26  C   UNL     1      -8.075  10.891  66.625  1.00  0.00    -0.147 A  
HETATM   27  C   UNL     1      -6.754  10.440  66.551  1.00  0.00    -0.099 A  
HETATM   28  C   UNL     1      -8.814  10.509  67.761  1.00  0.00    -0.125 A  
HETATM   29  C   UNL     1      -6.188   9.634  67.555  1.00  0.00    -0.056 A  
HETATM   30  C   UNL     1      -6.954   9.212  68.639  1.00  0.00    -0.063 A  
HETATM   31  C   UNL     1      -8.280   9.634  68.725  1.00  0.00    -0.106 A  
BRANCH  31  32
HETATM   32  S   UNL     1      -9.284   9.096  70.087  1.00  0.00    -0.225 S  
HETATM   33  O   UNL     1      -9.043  10.015  71.180  1.00  0.00     0.388 OA 
HETATM   34  O   UNL     1     -10.624   8.866  69.597  1.00  0.00    -0.223 OA 
BRANCH  32  35
HETATM   35  N   UNL     1      -8.614   7.636  70.581  1.00  0.00    -0.134 N  
HETATM   36  C   UNL     1      -8.149   5.257  70.879  1.00  0.00    -0.107 C  
HETATM   37  C   UNL     1     -10.503   6.019  70.765  1.00  0.00    -0.298 C  
HETATM   38  C   UNL     1      -9.041   6.062  68.705  1.00  0.00    -0.116 C  
HETATM   39  C   UNL     1      -9.097   6.281  70.216  1.00  0.00    -0.154 C  
HETATM   40  H   UNL     1      -7.797   7.686  71.190  1.00  0.00     0.000 HD 
ENDBRANCH  32  35
ENDBRANCH  31  32
ENDBRANCH  24  26
ENDBRANCH   6  24
TORSDOF 10
ENDMDL
MODEL      303
REMARK 921   NORMALIZED FREE ENERGY PREDICTED BY IDOCK:   18.53 KCAL/MOL
REMARK 922        TOTAL FREE ENERGY PREDICTED BY IDOCK:   28.02 KCAL/MOL
REMARK 923 INTER-LIGAND FREE ENERGY PREDICTED BY IDOCK:   15.40 KCAL/MOL
REMARK 924 INTRA-LIGAND FREE ENERGY PREDICTED BY IDOCK:   12.62 KCAL/MOL
REMARK 927      BINDING AFFINITY PREDICTED BY RF-SCORE:    0.00 PKD
ROOT
HETATM    1  C   UNL     1      -7.497  14.837  72.671  1.00  0.00     5.057 C  
HETATM    2  C   UNL     1      -7.647  15.172  71.221  1.00  0.00     2.590 A  
HETATM    3  C   UNL     1      -7.841  16.493  70.859  1.00  0.00     4.416 A  
HETATM    4  N   UNL     1      -7.986  16.919  69.598  1.00  0.00     0.411 NA 
HETATM    5  C   UNL     1      -7.969  15.978  68.653  1.00  0.00    -0.174 A  
HETATM    6  C   UNL     1      -7.572  14.255  70.174  1.00  0.00     0.736 A  
HETATM    7  N   UNL     1      -7.756  14.671  68.908  1.00  0.00    -0.136 NA 
ENDROOT
BRANCH   5   8
HETATM    8  N   UNL     1      -8.196  16.445  67.357  1.00  0.00    -0.153 NA 
HETATM    9  H   UNL     1      -7.462  17.041  66.976  1.00  0.00     0.000 HD 
BRANCH   8  10
HETATM   10  C   UNL     1      -9.282  16.214  66.502  1.00  0.00    -0.272 A  
HETATM   11  C   UNL     1      -9.292  15.149  65.610  1.00  0.00    -0.096 A  
HETATM   12  C   UNL     1     -11.378  16.985  65.508  1.00  0.00     0.634 A  
HETATM   13  C   UNL     1     -11.339  15.944  64.584  1.00  0.00    -0.322 A  
HETATM   14  C   UNL     1     -10.302  15.007  64.666  1.00  0.00    -0.017 A  
HETATM   15  C   UNL     1     -10.353  17.120  66.461  1.00  0.00    -0.306 A  
BRANCH  13  16
HETATM   16  O   UNL     1     -12.320  15.912  63.616  1.00  0.00    -0.659 OA 
BRANCH  16  17
HETATM   17  C   UNL     1     -12.290  14.699  62.862  1.00  0.00     2.250 C  
BRANCH  17  18
HETATM   18  C   UNL     1     -11.347  13.630  63.415  1.00  0.00     0.541 C  
BRANCH  18  19
HETATM   19  N   UNL     1     -11.830  13.201  64.736  1.00  0.00    -0.351 NA 
HETATM   20  C   UNL     1     -13.133  13.766  65.111  1.00  0.00    -0.083 C  
HETATM   21  C   UNL     1     -10.914  13.524  65.822  1.00  0.00    -0.278 C  
HETATM   22  C   UNL     1     -13.157  13.743  66.633  1.00  0.00     1.154 C  
HETATM   23  C   UNL     1     -11.779  13.246  67.039  1.00  0.00    -0.439 C  
ENDBRANCH  18  19
ENDBRANCH  17  18
ENDBRANCH  16  17
ENDBRANCH  13  16
ENDBRANCH   8  10
ENDBRANCH   5   8
BRANCH   6  24
HETATM   24  N   UNL     1      -7.407  12.876  70.469  1.00  0.00     1.407 NA 
HETATM   25  H   UNL     1      -7.792  12.606  71.374  1.00  0.00     0.000 HD 
BRANCH  24  26
HETATM   26  C   UNL     1      -6.816  11.798  69.764  1.00  0.00     0.090 A  
HETATM   27  C   UNL     1      -6.048  11.931  68.604  1.00  0.00    -0.052 A  
HETATM   28  C   UNL     1      -7.148  10.489  70.158  1.00  0.00    -0.078 A  
HETATM   29  C   UNL     1      -5.633  10.814  67.856  1.00  0.00    -0.042 A  
HETATM   30  C   UNL     1      -6.026   9.530  68.227  1.00  0.00    -0.044 A  
HETATM   31  C   UNL     1      -6.807   9.374  69.370  1.00  0.00    -0.049 A  
BRANCH  31  32
HETATM   32  S   UNL     1      -7.337   7.750  69.854  1.00  0.00    -0.081 S  
HETATM   33  O   UNL     1      -8.694   7.876  70.346  1.00  0.00    -0.135 OA 
HETATM   34  O   UNL     1      -7.022   6.833  68.782  1.00  0.00    -0.073 OA 
BRANCH  32  35
HETATM   35  N   UNL     1      -6.412   7.367  71.204  1.00  0.00    -0.039 N  
HETATM   36  C   UNL     1      -5.211   7.482  73.327  1.00  0.00    -0.041 C  
HETATM   37  C   UNL     1      -5.136   9.426  71.794  1.00  0.00    -0.059 C  
HETATM   38  C   UNL     1      -7.268   8.840  73.014  1.00  0.00     0.144 C  
HETATM   39  C   UNL     1      -6.033   8.292  72.300  1.00  0.00    -0.053 C  
HETATM   40  H   UNL     1      -6.079   6.405  71.276  1.00  0.00     0.000 HD 
ENDBRANCH  32  35
ENDBRANCH  31  32
ENDBRANCH  24  26
ENDBRANCH   6  24
TORSDOF 10
ENDMDL
MODEL      304
REMARK 921   NORMALIZED FREE ENERGY PREDICTED BY IDOCK:   26.21 KCAL/MOL
REMARK 922        TOTAL FREE ENERGY PREDICTED BY IDOCK:   40.18 KCAL/MOL
REMARK 923 INTER-LIGAND FREE ENERGY PREDICTED BY IDOCK:   35.64 KCAL/MOL
REMARK 924 INTRA-LIGAND FREE ENERGY PREDICTED BY IDOCK:    4.54 KCAL/MOL
REMARK 927      BINDING AFFINITY PREDICTED BY RF-SCORE:    0.00 PKD
ROOT
HETATM    1  C   UNL     1      -7.803  19.173  64.203  1.00  0.00     5.349 C  
HETATM    2  C   UNL     1      -7.304  18.647  65.511  1.00  0.00     0.037 A  
HETATM    3  C   UNL     1      -6.778  19.537  66.431  1.00  0.00    -0.194 A  
HETATM    4  N   UNL     1      -6.303  19.189  67.634  1.00  0.00    -0.206 NA 
HETATM    5  C   UNL     1      -6.322  17.887  67.921  1.00  0.00    -0.178 A  
HETATM    6  C   UNL     1      -7.354  17.312  65.911  1.00  0.00    -0.034 A  
HETATM    7  N   UNL     1      -6.842  16.952  67.101  1.00  0.00    -0.166 NA 
ENDROOT
BRANCH   5   8
HETATM    8  N   UNL     1      -5.753  17.550  69.151  1.00  0.00    -0.183 NA 
HETATM    9  H   UNL     1      -4.950  18.114  69.427  1.00  0.00     0.000 HD 
BRANCH   8  10
HETATM   10  C   UNL     1      -6.123  16.551  70.061  1.00  0.00    -0.151 A  
HETATM   11  C   UNL     1      -7.445  16.145  70.196  1.00  0.00     0.919 A  
HETATM   12  C   UNL     1      -5.552  15.109  71.950  1.00  0.00     0.295 A  
HETATM   13  C   UNL     1      -6.891  14.760  72.107  1.00  0.00     2.185 A  
HETATM   14  C   UNL     1      -7.830  15.261  71.198  1.00  0.00     2.750 A  
HETATM   15  C   UNL     1      -5.171  16.002  70.934  1.00  0.00    -0.142 A  
BRANCH  13  16
HETATM   16  O   UNL     1      -7.219  13.953  73.175  1.00  0.00     2.928 OA 
BRANCH  16  17
HETATM   17  C   UNL     1      -6.681  12.636  73.038  1.00  0.00     6.427 C  
BRANCH  17  18
HETATM   18  C   UNL     1      -5.732  12.458  71.852  1.00  0.00     0.888 C  
BRANCH  18  19
HETATM   19  N   UNL     1      -5.557  11.021  71.589  1.00  0.00    -0.333 NA 
HETATM   20  C   UNL     1      -6.577  10.446  70.702  1.00  0.00     0.006 C  
HETATM   21  C   UNL     1      -5.556  10.207  72.797  1.00  0.00     0.478 C  
HETATM   22  C   UNL     1      -6.617   8.964  71.046  1.00  0.00    -0.069 C  
HETATM   23  C   UNL     1      -5.659   8.807  72.216  1.00  0.00    -0.060 C  
ENDBRANCH  18  19
ENDBRANCH  17  18
ENDBRANCH  16  17
ENDBRANCH  13  16
ENDBRANCH   8  10
ENDBRANCH   5   8
BRANCH   6  24
HETATM   24  N   UNL     1      -7.851  16.336  65.008  1.00  0.00     3.204 NA 
HETATM   25  H   UNL     1      -7.860  16.648  64.037  1.00  0.00     0.000 HD 
BRANCH  24  26
HETATM   26  C   UNL     1      -8.337  15.015  65.178  1.00  0.00     4.598 A  
HETATM   27  C   UNL     1      -8.663  14.146  64.134  1.00  0.00     7.629 A  
HETATM   28  C   UNL     1      -8.665  14.594  66.480  1.00  0.00    -0.115 A  
HETATM   29  C   UNL     1      -9.300  12.914  64.365  1.00  0.00     0.870 A  
HETATM   30  C   UNL     1      -9.675  12.543  65.655  1.00  0.00    -0.169 A  
HETATM   31  C   UNL     1      -9.376  13.402  66.711  1.00  0.00    -0.256 A  
BRANCH  31  32
HETATM   32  S   UNL     1      -9.860  12.963  68.361  1.00  0.00    -0.156 S  
HETATM   33  O   UNL     1      -8.790  13.382  69.243  1.00  0.00     0.489 OA 
HETATM   34  O   UNL     1     -11.215  13.422  68.573  1.00  0.00    -0.252 OA 
BRANCH  32  35
HETATM   35  N   UNL     1      -9.831  11.283  68.399  1.00  0.00    -0.193 N  
HETATM   36  C   UNL     1      -9.245   8.943  68.012  1.00  0.00    -0.147 C  
HETATM   37  C   UNL     1      -9.153  10.537  66.118  1.00  0.00    -0.184 C  
HETATM   38  C   UNL     1      -7.457  10.668  67.985  1.00  0.00    -0.090 C  
HETATM   39  C   UNL     1      -8.918  10.403  67.626  1.00  0.00    -0.138 C  
HETATM   40  H   UNL     1     -10.505  10.823  69.011  1.00  0.00     0.000 HD 
ENDBRANCH  32  35
ENDBRANCH  31  32
ENDBRANCH  24  26
ENDBRANCH   6  24
TORSDOF 10
ENDMDL
MODEL      305
REMARK 921   NORMALIZED FREE ENERGY PREDICTED BY IDOCK:   26.77 KCAL/MOL
REMARK 922        TOTAL FREE ENERGY PREDICTED BY IDOCK:   41.07 KCAL/MOL
REMARK 923 INTER-LIGAND FREE ENERGY PREDICTED BY IDOCK:   37.90 KCAL/MOL
REMARK 924 INTRA-LIGAND FREE ENERGY PREDICTED BY IDOCK:    3.17 KCAL/MOL
REMARK 927      BINDING AFFINITY PREDICTED BY RF-SCORE:    0.00 PKD
ROOT
HETATM    1  C   UNL     1      -7.803  19.173  64.203  1.00  0.00     5.349 C  
HETATM    2  C   UNL     1      -7.310  18.648  65.513  1.00  0.00     0.037 A  
HETATM    3  C   UNL     1      -6.789  19.538  66.435  1.00  0.00    -0.207 A  
HETATM    4  N   UNL     1      -6.318  19.191  67.640  1.00  0.00    -0.206 NA 
HETATM    5  C   UNL     1      -6.337  17.889  67.927  1.00  0.00    -0.178 A  
HETATM    6  C   UNL     1      -7.360  17.313  65.913  1.00  0.00    -0.034 A  
HETATM    7  N   UNL     1      -6.853  16.953  67.106  1.00  0.00    -0.166 NA 
ENDROOT
BRANCH   5   8
HETATM    8  N   UNL     1      -5.773  17.553  69.160  1.00  0.00    -0.183 NA 
HETATM    9  H   UNL     1      -5.000  18.146  69.460  1.00  0.00     0.000 HD 
BRANCH   8  10
HETATM   10  C   UNL     1      -6.114  16.521  70.045  1.00  0.00    -0.151 A  
HETATM   11  C   UNL     1      -7.419  16.056  70.151  1.00  0.00     0.789 A  
HETATM   12  C   UNL     1      -5.511  15.069  71.916  1.00  0.00     0.122 A  
HETATM   13  C   UNL     1      -6.835  14.659  72.045  1.00  0.00     2.066 A  
HETATM   14  C   UNL     1      -7.781  15.138  71.129  1.00  0.00     2.466 A  
HETATM   15  C   UNL     1      -5.153  15.997  70.923  1.00  0.00    -0.178 A  
BRANCH  13  16
HETATM   16  O   UNL     1      -7.145  13.819  73.092  1.00  0.00     2.730 OA 
BRANCH  16  17
HETATM   17  C   UNL     1      -6.549  12.529  72.938  1.00  0.00     5.863 C  
BRANCH  17  18
HETATM   18  C   UNL     1      -6.031  12.232  71.530  1.00  0.00     1.131 C  
BRANCH  18  19
HETATM   19  N   UNL     1      -5.804  10.784  71.398  1.00  0.00    -0.338 NA 
HETATM   20  C   UNL     1      -6.993  10.026  70.988  1.00  0.00     0.323 C  
HETATM   21  C   UNL     1      -5.320  10.160  72.622  1.00  0.00     0.218 C  
HETATM   22  C   UNL     1      -6.763   8.612  71.500  1.00  0.00    -0.078 C  
HETATM   23  C   UNL     1      -5.462   8.685  72.284  1.00  0.00    -0.052 C  
ENDBRANCH  18  19
ENDBRANCH  17  18
ENDBRANCH  16  17
ENDBRANCH  13  16
ENDBRANCH   8  10
ENDBRANCH   5   8
BRANCH   6  24
HETATM   24  N   UNL     1      -7.852  16.336  65.008  1.00  0.00     3.204 NA 
HETATM   25  H   UNL     1      -7.774  16.613  64.029  1.00  0.00     0.000 HD 
BRANCH  24  26
HETATM   26  C   UNL     1      -8.429  15.054  65.185  1.00  0.00     3.988 A  
HETATM   27  C   UNL     1      -7.838  13.852  64.782  1.00  0.00    10.269 A  
HETATM   28  C   UNL     1      -9.753  14.983  65.655  1.00  0.00    -0.344 A  
HETATM   29  C   UNL     1      -8.533  12.631  64.831  1.00  0.00     2.627 A  
HETATM   30  C   UNL     1      -9.865  12.591  65.238  1.00  0.00    -0.157 A  
HETATM   31  C   UNL     1     -10.480  13.779  65.627  1.00  0.00    -0.305 A  
BRANCH  31  32
HETATM   32  S   UNL     1     -12.182  13.759  66.132  1.00  0.00    -0.454 S  
HETATM   33  O   UNL     1     -12.938  14.445  65.105  1.00  0.00    -0.631 OA 
HETATM   34  O   UNL     1     -12.523  12.408  66.521  1.00  0.00    -0.373 OA 
BRANCH  32  35
HETATM   35  N   UNL     1     -12.256  14.760  67.480  1.00  0.00    -0.514 N  
HETATM   36  C   UNL     1     -11.865  16.566  69.077  1.00  0.00     0.235 C  
HETATM   37  C   UNL     1      -9.935  15.581  67.877  1.00  0.00    -0.218 C  
HETATM   38  C   UNL     1     -11.613  17.013  66.646  1.00  0.00     1.378 C  
HETATM   39  C   UNL     1     -11.413  15.956  67.732  1.00  0.00    -0.128 C  
HETATM   40  H   UNL     1     -12.946  14.524  68.193  1.00  0.00     0.000 HD 
ENDBRANCH  32  35
ENDBRANCH  31  32
ENDBRANCH  24  26
ENDBRANCH   6  24
TORSDOF 10
ENDMDL
MODEL      306
REMARK 921   NORMALIZED FREE ENERGY PREDICTED BY IDOCK:   30.40 KCAL/MOL
REMARK 922        TOTAL FREE ENERGY PREDICTED BY IDOCK:   46.83 KCAL/MOL
REMARK 923 INTER-LIGAND FREE ENERGY PREDICTED BY IDOCK:   46.10 KCAL/MOL
REMARK 924 INTRA-LIGAND FREE ENERGY PREDICTED BY IDOCK:    0.73 KCAL/MOL
REMARK 927      BINDING AFFINITY PREDICTED BY RF-SCORE:    0.00 PKD
ROOT
HETATM    1  C   UNL     1      -7.803  19.173  64.203  1.00  0.00     5.349 C  
HETATM    2  C   UNL     1      -7.313  18.656  65.518  1.00  0.00     0.037 A  
HETATM    3  C   UNL     1      -6.800  19.554  66.438  1.00  0.00    -0.207 A  
HETATM    4  N   UNL     1      -6.334  19.215  67.647  1.00  0.00    -0.206 NA 
HETATM    5  C   UNL     1      -6.349  17.914  67.940  1.00  0.00    -0.178 A  
HETATM    6  C   UNL     1      -7.360  17.324  65.924  1.00  0.00    -0.034 A  
HETATM    7  N   UNL     1      -6.856  16.972  67.121  1.00  0.00    -0.161 NA 
ENDROOT
BRANCH   5   8
HETATM    8  N   UNL     1      -5.789  17.586  69.177  1.00  0.00    -0.192 NA 
HETATM    9  H   UNL     1      -5.019  18.184  69.478  1.00  0.00     0.000 HD 
BRANCH   8  10
HETATM   10  C   UNL     1      -6.129  16.558  70.066  1.00  0.00    -0.151 A  
HETATM   11  C   UNL     1      -7.433  16.088  70.168  1.00  0.00     0.789 A  
HETATM   12  C   UNL     1      -5.528  15.118  71.947  1.00  0.00     0.174 A  
HETATM   13  C   UNL     1      -6.852  14.703  72.072  1.00  0.00     2.066 A  
HETATM   14  C   UNL     1      -7.795  15.173  71.150  1.00  0.00     2.638 A  
HETATM   15  C   UNL     1      -5.170  16.042  70.951  1.00  0.00    -0.142 A  
BRANCH  13  16
HETATM   16  O   UNL     1      -7.163  13.866  73.122  1.00  0.00     2.928 OA 
BRANCH  16  17
HETATM   17  C   UNL     1      -6.560  12.578  72.977  1.00  0.00     5.865 C  
BRANCH  17  18
HETATM   18  C   UNL     1      -6.035  12.277  71.573  1.00  0.00     1.131 C  
BRANCH  18  19
HETATM   19  N   UNL     1      -6.276  10.858  71.266  1.00  0.00    -0.129 NA 
HETATM   20  C   UNL     1      -5.978   9.945  72.377  1.00  0.00     0.539 C  
HETATM   21  C   UNL     1      -5.513  10.376  70.122  1.00  0.00    -0.051 C  
HETATM   22  C   UNL     1      -5.679   8.603  71.724  1.00  0.00    -0.050 C  
HETATM   23  C   UNL     1      -5.726   8.875  70.229  1.00  0.00    -0.033 C  
ENDBRANCH  18  19
ENDBRANCH  17  18
ENDBRANCH  16  17
ENDBRANCH  13  16
ENDBRANCH   8  10
ENDBRANCH   5   8
BRANCH   6  24
HETATM   24  N   UNL     1      -7.844  16.340  65.022  1.00  0.00     3.204 NA 
HETATM   25  H   UNL     1      -7.762  16.613  64.043  1.00  0.00     0.000 HD 
BRANCH  24  26
HETATM   26  C   UNL     1      -8.416  15.056  65.203  1.00  0.00     3.988 A  
HETATM   27  C   UNL     1      -7.819  13.855  64.809  1.00  0.00    10.269 A  
HETATM   28  C   UNL     1      -9.743  14.982  65.667  1.00  0.00    -0.344 A  
HETATM   29  C   UNL     1      -8.509  12.631  64.861  1.00  0.00     2.627 A  
HETATM   30  C   UNL     1      -9.842  12.588  65.262  1.00  0.00    -0.157 A  
HETATM   31  C   UNL     1     -10.465  13.775  65.643  1.00  0.00    -0.305 A  
BRANCH  31  32
HETATM   32  S   UNL     1     -12.169  13.751  66.140  1.00  0.00    -0.454 S  
HETATM   33  O   UNL     1     -12.416  12.457  66.742  1.00  0.00    -0.294 OA 
HETATM   34  O   UNL     1     -12.445  14.969  66.868  1.00  0.00     0.245 OA 
BRANCH  32  35
HETATM   35  N   UNL     1     -13.048  13.748  64.708  1.00  0.00    -0.521 N  
HETATM   36  C   UNL     1     -13.776  13.356  62.410  1.00  0.00     6.055 C  
HETATM   37  C   UNL     1     -11.380  13.802  62.855  1.00  0.00     2.227 C  
HETATM   38  C   UNL     1     -12.432  11.622  63.576  1.00  0.00    -0.345 C  
HETATM   39  C   UNL     1     -12.633  13.129  63.425  1.00  0.00    -0.079 C  
HETATM   40  H   UNL     1     -13.954  14.216  64.722  1.00  0.00     0.000 HD 
ENDBRANCH  32  35
ENDBRANCH  31  32
ENDBRANCH  24  26
ENDBRANCH   6  24
TORSDOF 10
ENDMDL
MODEL      307
REMARK 921   NORMALIZED FREE ENERGY PREDICTED BY IDOCK:   31.68 KCAL/MOL
REMARK 922        TOTAL FREE ENERGY PREDICTED BY IDOCK:   48.85 KCAL/MOL
REMARK 923 INTER-LIGAND FREE ENERGY PREDICTED BY IDOCK:   37.82 KCAL/MOL
REMARK 924 INTRA-LIGAND FREE ENERGY PREDICTED BY IDOCK:   11.04 KCAL/MOL
REMARK 927      BINDING AFFINITY PREDICTED BY RF-SCORE:    0.00 PKD
ROOT
HETATM    1  C   UNL     1      -8.167  14.951  73.201  1.00  0.00     8.730 C  
HETATM    2  C   UNL     1      -8.238  15.328  71.756  1.00  0.00     5.211 A  
HETATM    3  C   UNL     1      -8.248  16.669  71.416  1.00  0.00     7.848 A  
HETATM    4  N   UNL     1      -8.307  17.131  70.160  1.00  0.00     2.024 NA 
HETATM    5  C   UNL     1      -8.394  16.212  69.198  1.00  0.00    -0.230 A  
HETATM    6  C   UNL     1      -8.261  14.427  70.692  1.00  0.00     2.457 A  
HETATM    7  N   UNL     1      -8.360  14.884  69.432  1.00  0.00    -0.121 NA 
ENDROOT
BRANCH   5   8
HETATM    8  N   UNL     1      -8.527  16.726  67.907  1.00  0.00    -0.197 NA 
HETATM    9  H   UNL     1      -7.787  17.364  67.615  1.00  0.00     0.000 HD 
BRANCH   8  10
HETATM   10  C   UNL     1      -9.527  16.494  66.953  1.00  0.00    -0.237 A  
HETATM   11  C   UNL     1      -9.511  15.366  66.142  1.00  0.00    -0.371 A  
HETATM   12  C   UNL     1     -11.447  17.308  65.677  1.00  0.00     1.231 A  
HETATM   13  C   UNL     1     -11.377  16.199  64.838  1.00  0.00    -0.198 A  
HETATM   14  C   UNL     1     -10.420  15.212  65.102  1.00  0.00    -0.437 A  
HETATM   15  C   UNL     1     -10.525  17.456  66.728  1.00  0.00    -0.257 A  
BRANCH  13  16
HETATM   16  O   UNL     1     -12.248  16.151  63.770  1.00  0.00    -0.934 OA 
BRANCH  16  17
HETATM   17  C   UNL     1     -12.265  14.863  63.150  1.00  0.00     1.793 C  
BRANCH  17  18
HETATM   18  C   UNL     1     -11.615  13.752  63.975  1.00  0.00    -0.275 C  
BRANCH  18  19
HETATM   19  N   UNL     1     -12.179  13.772  65.334  1.00  0.00    -0.412 NA 
HETATM   20  C   UNL     1     -11.183  13.974  66.394  1.00  0.00    -0.319 C  
HETATM   21  C   UNL     1     -12.905  12.556  65.677  1.00  0.00     0.706 C  
HETATM   22  C   UNL     1     -11.797  13.360  67.644  1.00  0.00    -0.394 C  
HETATM   23  C   UNL     1     -13.101  12.735  67.173  1.00  0.00     3.302 C  
ENDBRANCH  18  19
ENDBRANCH  17  18
ENDBRANCH  16  17
ENDBRANCH  13  16
ENDBRANCH   8  10
ENDBRANCH   5   8
BRANCH   6  24
HETATM   24  N   UNL     1      -8.286  13.033  70.964  1.00  0.00     6.545 NA 
HETATM   25  H   UNL     1      -9.035  12.757  71.598  1.00  0.00     0.000 HD 
BRANCH  24  26
HETATM   26  C   UNL     1      -7.483  11.948  70.534  1.00  0.00     3.137 A  
HETATM   27  C   UNL     1      -6.088  11.974  70.447  1.00  0.00    -0.027 A  
HETATM   28  C   UNL     1      -8.129  10.814  70.008  1.00  0.00     0.628 A  
HETATM   29  C   UNL     1      -5.361  10.927  69.854  1.00  0.00    -0.046 A  
HETATM   30  C   UNL     1      -6.023   9.843  69.281  1.00  0.00    -0.037 A  
HETATM   31  C   UNL     1      -7.414   9.803  69.339  1.00  0.00    -0.099 A  
BRANCH  31  32
HETATM   32  S   UNL     1      -8.283   8.443  68.600  1.00  0.00    -0.124 S  
HETATM   33  O   UNL     1      -7.331   7.729  67.775  1.00  0.00    -0.091 OA 
HETATM   34  O   UNL     1      -9.020   7.759  69.639  1.00  0.00    -0.142 OA 
BRANCH  32  35
HETATM   35  N   UNL     1      -9.366   9.143  67.521  1.00  0.00    -0.134 N  
HETATM   36  C   UNL     1     -10.372  10.556  65.802  1.00  0.00    -0.270 C  
HETATM   37  C   UNL     1      -8.794  11.568  67.420  1.00  0.00    -0.157 C  
HETATM   38  C   UNL     1      -7.961   9.975  65.646  1.00  0.00    -0.140 C  
HETATM   39  C   UNL     1      -9.090  10.293  66.624  1.00  0.00    -0.144 C  
HETATM   40  H   UNL     1     -10.301   8.738  67.478  1.00  0.00     0.000 HD 
ENDBRANCH  32  35
ENDBRANCH  31  32
ENDBRANCH  24  26
ENDBRANCH   6  24
TORSDOF 10
ENDMDL
MODEL      308
REMARK 921   NORMALIZED FREE ENERGY PREDICTED BY IDOCK:   34.86 KCAL/MOL
REMARK 922        TOTAL FREE ENERGY PREDICTED BY IDOCK:   53.89 KCAL/MOL
REMARK 923 INTER-LIGAND FREE ENERGY PREDICTED BY IDOCK:   36.83 KCAL/MOL
REMARK 924 INTRA-LIGAND FREE ENERGY PREDICTED BY IDOCK:   17.07 KCAL/MOL
REMARK 927      BINDING AFFINITY PREDICTED BY RF-SCORE:    0.00 PKD
ROOT
HETATM    1  C   UNL     1     -11.186  12.279  62.443  1.00  0.00     2.478 C  
HETATM    2  C   UNL     1     -11.443  13.328  63.477  1.00  0.00    -0.200 A  
HETATM    3  C   UNL     1     -12.125  14.474  63.109  1.00  0.00     1.365 A  
HETATM    4  N   UNL     1     -12.417  15.481  63.942  1.00  0.00    -0.605 NA 
HETATM    5  C   UNL     1     -11.979  15.355  65.195  1.00  0.00     0.146 A  
HETATM    6  C   UNL     1     -11.078  13.237  64.820  1.00  0.00    -0.342 A  
HETATM    7  N   UNL     1     -11.333  14.263  65.652  1.00  0.00    -0.312 NA 
ENDROOT
BRANCH   5   8
HETATM    8  N   UNL     1     -12.236  16.453  66.019  1.00  0.00     2.150 NA 
HETATM    9  H   UNL     1     -13.210  16.570  66.296  1.00  0.00     0.000 HD 
BRANCH   8  10
HETATM   10  C   UNL     1     -11.352  17.417  66.522  1.00  0.00     0.995 A  
HETATM   11  C   UNL     1     -11.402  18.740  66.100  1.00  0.00     0.949 A  
HETATM   12  C   UNL     1      -9.340  17.965  67.797  1.00  0.00    -0.262 A  
HETATM   13  C   UNL     1      -9.373  19.272  67.316  1.00  0.00    -0.306 A  
HETATM   14  C   UNL     1     -10.434  19.659  66.489  1.00  0.00    -0.612 A  
HETATM   15  C   UNL     1     -10.323  17.043  67.400  1.00  0.00    -0.319 A  
BRANCH  13  16
HETATM   16  O   UNL     1      -8.335  20.108  67.666  1.00  0.00    -0.315 OA 
BRANCH  16  17
HETATM   17  C   UNL     1      -8.659  20.922  68.795  1.00  0.00     1.465 C  
BRANCH  17  18
HETATM   18  C   UNL     1      -8.507  20.222  70.146  1.00  0.00     1.457 C  
BRANCH  18  19
HETATM   19  N   UNL     1      -7.848  18.923  69.942  1.00  0.00     0.670 NA 
HETATM   20  C   UNL     1      -6.403  19.016  69.696  1.00  0.00    -0.251 C  
HETATM   21  C   UNL     1      -8.405  18.158  68.835  1.00  0.00    -0.130 C  
HETATM   22  C   UNL     1      -6.046  17.754  68.923  1.00  0.00    -0.203 C  
HETATM   23  C   UNL     1      -7.373  17.053  68.682  1.00  0.00    -0.229 C  
ENDBRANCH  18  19
ENDBRANCH  17  18
ENDBRANCH  16  17
ENDBRANCH  13  16
ENDBRANCH   8  10
ENDBRANCH   5   8
BRANCH   6  24
HETATM   24  N   UNL     1     -10.346  12.105  65.265  1.00  0.00    -0.270 NA 
HETATM   25  H   UNL     1      -9.479  12.346  65.746  1.00  0.00     0.000 HD 
BRANCH  24  26
HETATM   26  C   UNL     1     -10.573  10.709  65.179  1.00  0.00    -0.120 A  
HETATM   27  C   UNL     1     -11.581  10.112  64.417  1.00  0.00     4.306 A  
HETATM   28  C   UNL     1      -9.842   9.866  66.037  1.00  0.00    -0.330 A  
HETATM   29  C   UNL     1     -11.863   8.737  64.506  1.00  0.00    14.883 A  
HETATM   30  C   UNL     1     -11.171   7.930  65.408  1.00  0.00     7.063 A  
HETATM   31  C   UNL     1     -10.174   8.508  66.192  1.00  0.00     0.165 A  
BRANCH  31  32
HETATM   32  S   UNL     1      -9.291   7.507  67.362  1.00  0.00    -0.144 S  
HETATM   33  O   UNL     1      -7.916   7.963  67.359  1.00  0.00    -0.118 OA 
HETATM   34  O   UNL     1     -10.053   7.467  68.590  1.00  0.00    -0.174 OA 
BRANCH  32  35
HETATM   35  N   UNL     1      -9.247   5.969  66.685  1.00  0.00    -0.138 N  
HETATM   36  C   UNL     1      -9.160   4.110  65.104  1.00  0.00    -0.142 C  
HETATM   37  C   UNL     1     -10.523   6.102  64.547  1.00  0.00     4.266 C  
HETATM   38  C   UNL     1      -8.000   6.237  64.551  1.00  0.00    -0.121 C  
HETATM   39  C   UNL     1      -9.232   5.648  65.236  1.00  0.00     0.108 C  
HETATM   40  H   UNL     1      -9.229   5.180  67.332  1.00  0.00     0.000 HD 
ENDBRANCH  32  35
ENDBRANCH  31  32
ENDBRANCH  24  26
ENDBRANCH   6  24
TORSDOF 10
ENDMDL
MODEL      309
REMARK 921   NORMALIZED FREE ENERGY PREDICTED BY IDOCK:   41.96 KCAL/MOL
REMARK 922        TOTAL FREE ENERGY PREDICTED BY IDOCK:   65.15 KCAL/MOL
REMARK 923 INTER-LIGAND FREE ENERGY PREDICTED BY IDOCK:   63.42 KCAL/MOL
REMARK 924 INTRA-LIGAND FREE ENERGY PREDICTED BY IDOCK:    1.73 KCAL/MOL
REMARK 927      BINDING AFFINITY PREDICTED BY RF-SCORE:    0.00 PKD
ROOT
HETATM    1  C   UNL     1      -7.305  19.866  65.029  1.00  0.00     0.238 C  
HETATM    2  C   UNL     1      -6.901  19.305  66.355  1.00  0.00    -0.219 A  
HETATM    3  C   UNL     1      -6.457  20.172  67.338  1.00  0.00    -0.211 A  
HETATM    4  N   UNL     1      -6.071  19.793  68.563  1.00  0.00    -0.234 NA 
HETATM    5  C   UNL     1      -6.096  18.483  68.809  1.00  0.00    -0.217 A  
HETATM    6  C   UNL     1      -6.965  17.959  66.710  1.00  0.00    -0.191 A  
HETATM    7  N   UNL     1      -6.540  17.567  67.924  1.00  0.00    -0.171 NA 
ENDROOT
BRANCH   5   8
HETATM    8  N   UNL     1      -5.618  18.114  70.068  1.00  0.00    -0.234 NA 
HETATM    9  H   UNL     1      -4.827  18.660  70.410  1.00  0.00     0.000 HD 
BRANCH   8  10
HETATM   10  C   UNL     1      -6.065  17.105  70.932  1.00  0.00     0.979 A  
HETATM   11  C   UNL     1      -7.403  16.733  70.984  1.00  0.00     4.377 A  
HETATM   12  C   UNL     1      -5.639  15.603  72.813  1.00  0.00     0.984 A  
HETATM   13  C   UNL     1      -6.993  15.289  72.887  1.00  0.00     4.579 A  
HETATM   14  C   UNL     1      -7.866  15.838  71.941  1.00  0.00     6.769 A  
HETATM   15  C   UNL     1      -5.178  16.508  71.841  1.00  0.00     0.478 A  
BRANCH  13  16
HETATM   16  O   UNL     1      -7.402  14.467  73.915  1.00  0.00     2.759 OA 
BRANCH  16  17
HETATM   17  C   UNL     1      -8.761  14.051  73.762  1.00  0.00    10.605 C  
BRANCH  17  18
HETATM   18  C   UNL     1      -9.565  14.870  72.751  1.00  0.00     6.623 C  
BRANCH  18  19
HETATM   19  N   UNL     1     -10.939  15.032  73.251  1.00  0.00     1.053 NA 
HETATM   20  C   UNL     1     -11.978  14.767  72.247  1.00  0.00    -0.238 C  
HETATM   21  C   UNL     1     -11.209  16.362  73.781  1.00  0.00     1.927 C  
HETATM   22  C   UNL     1     -13.195  15.554  72.711  1.00  0.00    -0.605 C  
HETATM   23  C   UNL     1     -12.721  16.324  73.934  1.00  0.00    -0.586 C  
ENDBRANCH  18  19
ENDBRANCH  17  18
ENDBRANCH  16  17
ENDBRANCH  13  16
ENDBRANCH   8  10
ENDBRANCH   5   8
BRANCH   6  24
HETATM   24  N   UNL     1      -7.380  17.005  65.743  1.00  0.00    -0.053 NA 
HETATM   25  H   UNL     1      -7.327  17.350  64.784  1.00  0.00     0.000 HD 
BRANCH  24  26
HETATM   26  C   UNL     1      -7.852  15.672  65.836  1.00  0.00     1.685 A  
HETATM   27  C   UNL     1      -7.214  14.561  65.277  1.00  0.00    10.465 A  
HETATM   28  C   UNL     1      -9.127  15.459  66.392  1.00  0.00    -0.350 A  
HETATM   29  C   UNL     1      -7.817  13.291  65.258  1.00  0.00     5.530 A  
HETATM   30  C   UNL     1      -9.107  13.113  65.755  1.00  0.00     0.422 A  
HETATM   31  C   UNL     1      -9.770  14.211  66.301  1.00  0.00    -0.297 A  
BRANCH  31  32
HETATM   32  S   UNL     1     -11.421  14.016  66.923  1.00  0.00    -0.375 S  
HETATM   33  O   UNL     1     -11.944  12.788  66.361  1.00  0.00    -0.402 OA 
HETATM   34  O   UNL     1     -11.391  14.219  68.355  1.00  0.00    -0.256 OA 
BRANCH  32  35
HETATM   35  N   UNL     1     -12.312  15.246  66.206  1.00  0.00     0.428 N  
HETATM   36  C   UNL     1     -13.439  16.676  64.578  1.00  0.00     6.057 C  
HETATM   37  C   UNL     1     -11.225  15.721  64.013  1.00  0.00     0.350 C  
HETATM   38  C   UNL     1     -13.264  14.236  64.143  1.00  0.00     1.416 C  
HETATM   39  C   UNL     1     -12.536  15.434  64.751  1.00  0.00     0.332 C  
HETATM   40  H   UNL     1     -12.741  15.929  66.830  1.00  0.00     0.000 HD 
ENDBRANCH  32  35
ENDBRANCH  31  32
ENDBRANCH  24  26
ENDBRANCH   6  24
TORSDOF 10
ENDMDL
MODEL      310
REMARK 921   NORMALIZED FREE ENERGY PREDICTED BY IDOCK:   43.88 KCAL/MOL
REMARK 922        TOTAL FREE ENERGY PREDICTED BY IDOCK:   68.18 KCAL/MOL
REMARK 923 INTER-LIGAND FREE ENERGY PREDICTED BY IDOCK:   51.72 KCAL/MOL
REMARK 924 INTRA-LIGAND FREE ENERGY PREDICTED BY IDOCK:   16.46 KCAL/MOL
REMARK 927      BINDING AFFINITY PREDICTED BY RF-SCORE:    0.00 PKD
ROOT
HETATM    1  C   UNL     1     -10.483  11.560  63.388  1.00  0.00    -0.466 C  
HETATM    2  C   UNL     1     -10.144  12.915  63.922  1.00  0.00    -0.029 A  
HETATM    3  C   UNL     1     -10.946  13.988  63.575  1.00  0.00     1.428 A  
HETATM    4  N   UNL     1     -10.747  15.246  63.989  1.00  0.00     0.636 NA 
HETATM    5  C   UNL     1      -9.678  15.451  64.759  1.00  0.00     0.827 A  
HETATM    6  C   UNL     1      -9.086  13.196  64.786  1.00  0.00     1.550 A  
HETATM    7  N   UNL     1      -8.858  14.463  65.173  1.00  0.00     1.987 NA 
ENDROOT
BRANCH   5   8
HETATM    8  N   UNL     1      -9.457  16.783  65.114  1.00  0.00     0.402 NA 
HETATM    9  H   UNL     1      -9.805  17.473  64.448  1.00  0.00     0.000 HD 
BRANCH   8  10
HETATM   10  C   UNL     1      -8.829  17.312  66.250  1.00  0.00    -0.215 A  
HETATM   11  C   UNL     1      -7.601  16.835  66.689  1.00  0.00    -0.311 A  
HETATM   12  C   UNL     1      -8.932  18.711  68.251  1.00  0.00    -0.344 A  
HETATM   13  C   UNL     1      -7.728  18.178  68.704  1.00  0.00    -0.297 A  
HETATM   14  C   UNL     1      -7.051  17.259  67.893  1.00  0.00    -0.174 A  
HETATM   15  C   UNL     1      -9.481  18.279  67.032  1.00  0.00    -0.274 A  
BRANCH  13  16
HETATM   16  O   UNL     1      -7.284  18.571  69.948  1.00  0.00     0.260 OA 
BRANCH  16  17
HETATM   17  C   UNL     1      -7.779  17.723  70.987  1.00  0.00     5.898 C  
BRANCH  17  18
HETATM   18  C   UNL     1      -8.537  16.491  70.494  1.00  0.00     3.127 C  
BRANCH  18  19
HETATM   19  N   UNL     1      -9.858  16.908  69.997  1.00  0.00     0.547 NA 
HETATM   20  C   UNL     1     -10.070  16.652  68.567  1.00  0.00    -0.266 C  
HETATM   21  C   UNL     1     -10.136  18.323  70.208  1.00  0.00     1.554 C  
HETATM   22  C   UNL     1     -11.128  17.656  68.132  1.00  0.00     0.075 C  
HETATM   23  C   UNL     1     -11.383  18.514  69.361  1.00  0.00     3.082 C  
ENDBRANCH  18  19
ENDBRANCH  17  18
ENDBRANCH  16  17
ENDBRANCH  13  16
ENDBRANCH   8  10
ENDBRANCH   5   8
BRANCH   6  24
HETATM   24  N   UNL     1      -8.200  12.151  65.160  1.00  0.00     0.951 NA 
HETATM   25  H   UNL     1      -8.207  11.362  64.513  1.00  0.00     0.000 HD 
BRANCH  24  26
HETATM   26  C   UNL     1      -7.308  11.980  66.248  1.00  0.00     0.584 A  
HETATM   27  C   UNL     1      -6.158  11.185  66.217  1.00  0.00    -0.117 A  
HETATM   28  C   UNL     1      -7.676  12.515  67.496  1.00  0.00    -0.165 A  
HETATM   29  C   UNL     1      -5.408  10.920  67.376  1.00  0.00    -0.041 A  
HETATM   30  C   UNL     1      -5.824  11.406  68.614  1.00  0.00    -0.042 A  
HETATM   31  C   UNL     1      -6.977  12.186  68.672  1.00  0.00    -0.097 A  
BRANCH  31  32
HETATM   32  S   UNL     1      -7.540  12.801  70.239  1.00  0.00     3.259 S  
HETATM   33  O   UNL     1      -6.809  14.024  70.502  1.00  0.00     0.149 OA 
HETATM   34  O   UNL     1      -8.986  12.792  70.236  1.00  0.00     3.800 OA 
BRANCH  32  35
HETATM   35  N   UNL     1      -6.979  11.697  71.376  1.00  0.00     3.228 N  
HETATM   36  C   UNL     1      -6.791   9.794  72.894  1.00  0.00     1.686 C  
HETATM   37  C   UNL     1      -8.971  10.950  72.677  1.00  0.00    14.414 C  
HETATM   38  C   UNL     1      -8.073   9.546  70.780  1.00  0.00    -0.081 C  
HETATM   39  C   UNL     1      -7.722  10.524  71.900  1.00  0.00     5.194 C  
HETATM   40  H   UNL     1      -6.038  11.848  71.740  1.00  0.00     0.000 HD 
ENDBRANCH  32  35
ENDBRANCH  31  32
ENDBRANCH  24  26
ENDBRANCH   6  24
TORSDOF 10
ENDMDL
MODEL      311
REMARK 921   NORMALIZED FREE ENERGY PREDICTED BY IDOCK:   69.47 KCAL/MOL
REMARK 922        TOTAL FREE ENERGY PREDICTED BY IDOCK:  108.73 KCAL/MOL
REMARK 923 INTER-LIGAND FREE ENERGY PREDICTED BY IDOCK:  107.38 KCAL/MOL
REMARK 924 INTRA-LIGAND FREE ENERGY PREDICTED BY IDOCK:    1.35 KCAL/MOL
REMARK 927      BINDING AFFINITY PREDICTED BY RF-SCORE:    0.00 PKD
ROOT
HETATM    1  C   UNL     1      -7.285  19.957  64.975  1.00  0.00     0.108 C  
HETATM    2  C   UNL     1      -6.923  19.428  66.327  1.00  0.00    -0.242 A  
HETATM    3  C   UNL     1      -6.784  20.320  67.376  1.00  0.00    -0.233 A  
HETATM    4  N   UNL     1      -6.466  19.970  68.629  1.00  0.00    -0.289 NA 
HETATM    5  C   UNL     1      -6.243  18.673  68.839  1.00  0.00    -0.231 A  
HETATM    6  C   UNL     1      -6.742  18.082  66.640  1.00  0.00    -0.200 A  
HETATM    7  N   UNL     1      -6.383  17.729  67.887  1.00  0.00    -0.174 NA 
ENDROOT
BRANCH   5   8
HETATM    8  N   UNL     1      -5.842  18.350  70.138  1.00  0.00    -0.223 NA 
HETATM    9  H   UNL     1      -5.028  18.861  70.481  1.00  0.00     0.000 HD 
BRANCH   8  10
HETATM   10  C   UNL     1      -6.393  17.430  71.039  1.00  0.00     1.806 A  
HETATM   11  C   UNL     1      -7.768  17.285  71.180  1.00  0.00     6.496 A  
HETATM   12  C   UNL     1      -6.101  15.879  72.905  1.00  0.00     2.530 A  
HETATM   13  C   UNL     1      -7.481  15.793  73.069  1.00  0.00     9.920 A  
HETATM   14  C   UNL     1      -8.310  16.479  72.174  1.00  0.00    12.521 A  
HETATM   15  C   UNL     1      -5.560  16.695  71.897  1.00  0.00     0.926 A  
BRANCH  13  16
HETATM   16  O   UNL     1      -7.953  15.051  74.130  1.00  0.00     7.564 OA 
BRANCH  16  17
HETATM   17  C   UNL     1      -9.375  14.911  74.097  1.00  0.00    10.882 C  
BRANCH  17  18
HETATM   18  C   UNL     1     -10.093  15.935  73.217  1.00  0.00     6.983 C  
BRANCH  18  19
HETATM   19  N   UNL     1     -11.338  16.350  73.882  1.00  0.00     1.053 NA 
HETATM   20  C   UNL     1     -12.178  15.233  74.333  1.00  0.00    -0.518 C  
HETATM   21  C   UNL     1     -12.187  17.192  73.049  1.00  0.00     0.835 C  
HETATM   22  C   UNL     1     -13.592  15.792  74.392  1.00  0.00     1.975 C  
HETATM   23  C   UNL     1     -13.476  17.209  73.853  1.00  0.00     1.999 C  
ENDBRANCH  18  19
ENDBRANCH  17  18
ENDBRANCH  16  17
ENDBRANCH  13  16
ENDBRANCH   8  10
ENDBRANCH   5   8
BRANCH   6  24
HETATM   24  N   UNL     1      -6.837  17.111  65.609  1.00  0.00     0.192 NA 
HETATM   25  H   UNL     1      -6.791  17.510  64.670  1.00  0.00     0.000 HD 
BRANCH  24  26
HETATM   26  C   UNL     1      -6.981  15.701  65.615  1.00  0.00     5.252 A  
HETATM   27  C   UNL     1      -6.049  14.803  65.085  1.00  0.00    14.675 A  
HETATM   28  C   UNL     1      -8.211  15.163  66.038  1.00  0.00     1.065 A  
HETATM   29  C   UNL     1      -6.326  13.430  64.968  1.00  0.00    12.958 A  
HETATM   30  C   UNL     1      -7.573  12.926  65.333  1.00  0.00     4.837 A  
HETATM   31  C   UNL     1      -8.525  13.805  65.846  1.00  0.00     1.540 A  
BRANCH  31  32
HETATM   32  S   UNL     1     -10.128  13.193  66.300  1.00  0.00    -0.289 S  
HETATM   33  O   UNL     1     -11.047  14.310  66.220  1.00  0.00    -0.312 OA 
HETATM   34  O   UNL     1     -10.375  11.978  65.557  1.00  0.00    -0.246 OA 
BRANCH  32  35
HETATM   35  N   UNL     1     -10.016  12.830  67.937  1.00  0.00    -0.222 N  
HETATM   36  C   UNL     1      -9.743  13.000  70.358  1.00  0.00     4.624 C  
HETATM   37  C   UNL     1      -8.294  14.365  68.885  1.00  0.00    -0.080 C  
HETATM   38  C   UNL     1     -10.753  14.895  69.109  1.00  0.00    -0.253 C  
HETATM   39  C   UNL     1      -9.705  13.787  69.029  1.00  0.00     0.148 C  
HETATM   40  H   UNL     1     -10.177  11.860  68.207  1.00  0.00     0.000 HD 
ENDBRANCH  32  35
ENDBRANCH  31  32
ENDBRANCH  24  26
ENDBRANCH   6  24
TORSDOF 10
ENDMDL
MODEL      312
REMARK 921   NORMALIZED FREE ENERGY PREDICTED BY IDOCK:   73.23 KCAL/MOL
REMARK 922        TOTAL FREE ENERGY PREDICTED BY IDOCK:  114.69 KCAL/MOL
REMARK 923 INTER-LIGAND FREE ENERGY PREDICTED BY IDOCK:  113.35 KCAL/MOL
REMARK 924 INTRA-LIGAND FREE ENERGY PREDICTED BY IDOCK:    1.34 KCAL/MOL
REMARK 927      BINDING AFFINITY PREDICTED BY RF-SCORE:    0.00 PKD
ROOT
HETATM    1  C   UNL     1      -7.286  19.958  64.962  1.00  0.00     0.108 C  
HETATM    2  C   UNL     1      -6.888  19.276  66.232  1.00  0.00    -0.231 A  
HETATM    3  C   UNL     1      -6.786  20.029  67.389  1.00  0.00    -0.226 A  
HETATM    4  N   UNL     1      -6.442  19.535  68.585  1.00  0.00    -0.257 NA 
HETATM    5  C   UNL     1      -6.152  18.234  68.623  1.00  0.00    -0.204 A  
HETATM    6  C   UNL     1      -6.637  17.912  66.365  1.00  0.00    -0.232 A  
HETATM    7  N   UNL     1      -6.251  17.417  67.555  1.00  0.00    -0.145 NA 
ENDROOT
BRANCH   5   8
HETATM    8  N   UNL     1      -5.726  17.765  69.868  1.00  0.00    -0.241 NA 
HETATM    9  H   UNL     1      -4.927  18.257  70.267  1.00  0.00     0.000 HD 
BRANCH   8  10
HETATM   10  C   UNL     1      -6.234  16.718  70.648  1.00  0.00     0.733 A  
HETATM   11  C   UNL     1      -7.589  16.410  70.658  1.00  0.00     2.842 A  
HETATM   12  C   UNL     1      -5.909  15.062  72.416  1.00  0.00     0.617 A  
HETATM   13  C   UNL     1      -7.278  14.810  72.452  1.00  0.00     3.738 A  
HETATM   14  C   UNL     1      -8.109  15.470  71.540  1.00  0.00     4.704 A  
HETATM   15  C   UNL     1      -5.391  16.012  71.520  1.00  0.00     0.154 A  
BRANCH  13  16
HETATM   16  O   UNL     1      -7.741  13.935  73.411  1.00  0.00     4.865 OA 
BRANCH  16  17
HETATM   17  C   UNL     1      -9.134  13.655  73.254  1.00  0.00    13.810 C  
BRANCH  17  18
HETATM   18  C   UNL     1      -9.898  14.683  72.419  1.00  0.00     5.358 C  
BRANCH  18  19
HETATM   19  N   UNL     1     -11.219  14.908  73.027  1.00  0.00     0.325 NA 
HETATM   20  C   UNL     1     -12.183  15.570  72.139  1.00  0.00    -0.404 C  
HETATM   21  C   UNL     1     -11.168  15.703  74.246  1.00  0.00     2.230 C  
HETATM   22  C   UNL     1     -13.180  16.252  73.066  1.00  0.00    -0.289 C  
HETATM   23  C   UNL     1     -12.640  16.011  74.467  1.00  0.00    -0.588 C  
ENDBRANCH  18  19
ENDBRANCH  17  18
ENDBRANCH  16  17
ENDBRANCH  13  16
ENDBRANCH   8  10
ENDBRANCH   5   8
BRANCH   6  24
HETATM   24  N   UNL     1      -6.689  17.081  65.215  1.00  0.00     1.179 NA 
HETATM   25  H   UNL     1      -7.077  17.547  64.395  1.00  0.00     0.000 HD 
BRANCH  24  26
HETATM   26  C   UNL     1      -6.314  15.736  64.973  1.00  0.00    10.475 A  
HETATM   27  C   UNL     1      -5.342  15.334  64.052  1.00  0.00    17.475 A  
HETATM   28  C   UNL     1      -7.071  14.717  65.580  1.00  0.00     7.356 A  
HETATM   29  C   UNL     1      -5.134  13.981  63.735  1.00  0.00    16.830 A  
HETATM   30  C   UNL     1      -5.938  12.991  64.298  1.00  0.00    13.247 A  
HETATM   31  C   UNL     1      -6.926  13.369  65.205  1.00  0.00     9.746 A  
BRANCH  31  32
HETATM   32  S   UNL     1      -7.976  12.131  65.923  1.00  0.00     1.222 S  
HETATM   33  O   UNL     1      -7.998  12.369  67.351  1.00  0.00    -0.159 OA 
HETATM   34  O   UNL     1      -9.205  12.084  65.162  1.00  0.00     0.016 OA 
BRANCH  32  35
HETATM   35  N   UNL     1      -7.147  10.681  65.730  1.00  0.00    -0.239 N  
HETATM   36  C   UNL     1      -6.493   8.330  65.818  1.00  0.00    -0.052 C  
HETATM   37  C   UNL     1      -7.520   9.370  67.818  1.00  0.00    -0.087 C  
HETATM   38  C   UNL     1      -8.905   8.924  65.754  1.00  0.00    -0.223 C  
HETATM   39  C   UNL     1      -7.542   9.363  66.286  1.00  0.00    -0.097 C  
HETATM   40  H   UNL     1      -6.290  10.710  65.177  1.00  0.00     0.000 HD 
ENDBRANCH  32  35
ENDBRANCH  31  32
ENDBRANCH  24  26
ENDBRANCH   6  24
TORSDOF 10
ENDMDL
