MODEL        1
REMARK 921   NORMALIZED FREE ENERGY PREDICTED BY IDOCK:   -5.95 KCAL/MOL
REMARK 922        TOTAL FREE ENERGY PREDICTED BY IDOCK:   -7.74 KCAL/MOL
REMARK 923 INTER-LIGAND FREE ENERGY PREDICTED BY IDOCK:   -7.35 KCAL/MOL
REMARK 924 INTRA-LIGAND FREE ENERGY PREDICTED BY IDOCK:   -0.40 KCAL/MOL
REMARK 927      BINDING AFFINITY PREDICTED BY RF-SCORE:    0.00 PKD
ROOT
HETATM    1  N   UNL     1     -12.210  11.537  62.963  1.00  0.00    -0.941 N  
HETATM    2  C   UNL     1     -12.582  12.705  63.527  1.00  0.00    -0.311 C  
HETATM    3  H2  UNL     1     -11.779  11.563  62.038  1.00  0.00     0.000 HD 
HETATM    4  H1  UNL     1     -12.336  10.629  63.409  1.00  0.00     0.000 HD 
HETATM    5  O   UNL     1     -12.431  13.791  62.992  1.00  0.00    -0.712 OA 
ENDROOT
BRANCH   2   6
HETATM    6  O   UNL     1     -13.107  12.477  64.748  1.00  0.00    -0.853 OA 
BRANCH   6   7
HETATM    7  C   UNL     1     -12.726  13.409  65.779  1.00  0.00    -0.318 C  
HETATM    8  C   UNL     1     -11.215  13.332  66.079  1.00  0.00    -0.316 C  
HETATM    9  C   UNL     1     -10.797  14.357  67.147  1.00  0.00    -0.292 C  
HETATM   10  C   UNL     1     -10.793  11.923  66.485  1.00  0.00    -0.317 A  
HETATM   11  C   UNL     1      -9.831  11.234  65.732  1.00  0.00    -0.273 A  
HETATM   12  C   UNL     1     -11.365  11.278  67.594  1.00  0.00    -0.352 A  
HETATM   13  C   UNL     1     -11.000   9.973  67.926  1.00  0.00    -0.311 A  
HETATM   14  C   UNL     1      -9.464   9.928  66.069  1.00  0.00    -0.258 A  
HETATM   15  C   UNL     1     -10.053   9.297  67.161  1.00  0.00    -0.299 A  
BRANCH   9  16
HETATM   16  O   UNL     1     -11.113  15.693  66.715  1.00  0.00    -0.284 OA 
BRANCH  16  17
HETATM   17  C   UNL     1     -10.387  16.179  65.685  1.00  0.00    -0.382 C  
HETATM   18  H2  UNL     1      -8.677  15.702  66.822  1.00  0.00     0.000 HD 
HETATM   19  O   UNL     1     -10.819  16.630  64.637  1.00  0.00    -0.784 OA 
HETATM   20  H1  UNL     1      -8.520  16.452  65.183  1.00  0.00     0.000 HD 
HETATM   21  N   UNL     1      -9.069  16.085  65.961  1.00  0.00    -0.342 N  
ENDBRANCH  16  17
ENDBRANCH   9  16
ENDBRANCH   6   7
ENDBRANCH   2   6
TORSDOF 4
ENDMDL
MODEL        2
REMARK 921   NORMALIZED FREE ENERGY PREDICTED BY IDOCK:   -5.83 KCAL/MOL
REMARK 922        TOTAL FREE ENERGY PREDICTED BY IDOCK:   -7.59 KCAL/MOL
REMARK 923 INTER-LIGAND FREE ENERGY PREDICTED BY IDOCK:   -7.13 KCAL/MOL
REMARK 924 INTRA-LIGAND FREE ENERGY PREDICTED BY IDOCK:   -0.46 KCAL/MOL
REMARK 927      BINDING AFFINITY PREDICTED BY RF-SCORE:    0.00 PKD
ROOT
HETATM    1  N   UNL     1     -12.261  14.123  63.328  1.00  0.00    -1.043 N  
HETATM    2  C   UNL     1     -12.149  12.931  63.950  1.00  0.00    -0.480 C  
HETATM    3  H2  UNL     1     -11.742  14.266  62.461  1.00  0.00     0.000 HD 
HETATM    4  H1  UNL     1     -12.837  14.890  63.676  1.00  0.00     0.000 HD 
HETATM    5  O   UNL     1     -11.461  12.014  63.533  1.00  0.00    -0.425 OA 
ENDROOT
BRANCH   2   6
HETATM    6  O   UNL     1     -12.919  12.919  65.058  1.00  0.00    -0.777 OA 
BRANCH   6   7
HETATM    7  C   UNL     1     -12.644  13.952  66.025  1.00  0.00    -0.423 C  
HETATM    8  C   UNL     1     -11.234  13.794  66.631  1.00  0.00    -0.327 C  
HETATM    9  C   UNL     1     -10.919  14.921  67.630  1.00  0.00    -0.300 C  
HETATM   10  C   UNL     1     -11.050  12.427  67.280  1.00  0.00    -0.329 A  
HETATM   11  C   UNL     1     -10.041  11.564  66.826  1.00  0.00    -0.245 A  
HETATM   12  C   UNL     1     -11.887  11.990  68.320  1.00  0.00    -0.351 A  
HETATM   13  C   UNL     1     -11.733  10.719  68.874  1.00  0.00    -0.338 A  
HETATM   14  C   UNL     1      -9.887  10.293  67.385  1.00  0.00    -0.214 A  
HETATM   15  C   UNL     1     -10.736   9.869  68.404  1.00  0.00    -0.271 A  
BRANCH   9  16
HETATM   16  O   UNL     1     -11.003  16.206  66.986  1.00  0.00    -0.256 OA 
BRANCH  16  17
HETATM   17  C   UNL     1     -10.232  16.380  65.891  1.00  0.00    -0.359 C  
HETATM   18  H2  UNL     1      -8.578  16.341  67.198  1.00  0.00     0.000 HD 
HETATM   19  O   UNL     1     -10.613  16.471  64.737  1.00  0.00    -0.684 OA 
HETATM   20  H1  UNL     1      -8.346  16.557  65.417  1.00  0.00     0.000 HD 
HETATM   21  N   UNL     1      -8.929  16.425  66.244  1.00  0.00    -0.308 N  
ENDBRANCH  16  17
ENDBRANCH   9  16
ENDBRANCH   6   7
ENDBRANCH   2   6
TORSDOF 4
ENDMDL
MODEL        3
REMARK 921   NORMALIZED FREE ENERGY PREDICTED BY IDOCK:   -5.77 KCAL/MOL
REMARK 922        TOTAL FREE ENERGY PREDICTED BY IDOCK:   -7.52 KCAL/MOL
REMARK 923 INTER-LIGAND FREE ENERGY PREDICTED BY IDOCK:   -7.23 KCAL/MOL
REMARK 924 INTRA-LIGAND FREE ENERGY PREDICTED BY IDOCK:   -0.29 KCAL/MOL
REMARK 927      BINDING AFFINITY PREDICTED BY RF-SCORE:    0.00 PKD
ROOT
HETATM    1  N   UNL     1     -11.974  10.388  70.056  1.00  0.00    -0.395 N  
HETATM    2  C   UNL     1     -11.893  11.324  69.087  1.00  0.00    -0.355 C  
HETATM    3  H2  UNL     1     -12.156   9.422  69.780  1.00  0.00     0.000 HD 
HETATM    4  H1  UNL     1     -11.864  10.592  71.049  1.00  0.00     0.000 HD 
HETATM    5  O   UNL     1     -12.025  11.079  67.900  1.00  0.00    -0.620 OA 
ENDROOT
BRANCH   2   6
HETATM    6  O   UNL     1     -11.627  12.528  69.635  1.00  0.00    -0.283 OA 
BRANCH   6   7
HETATM    7  C   UNL     1     -11.806  13.665  68.768  1.00  0.00    -0.360 C  
HETATM    8  C   UNL     1     -11.367  14.974  69.457  1.00  0.00    -0.308 C  
HETATM    9  C   UNL     1     -11.514  16.184  68.518  1.00  0.00    -0.324 C  
HETATM   10  C   UNL     1     -12.122  15.205  70.762  1.00  0.00    -0.387 A  
HETATM   11  C   UNL     1     -11.419  15.312  71.970  1.00  0.00    -0.500 A  
HETATM   12  C   UNL     1     -13.524  15.291  70.791  1.00  0.00    -0.359 A  
HETATM   13  C   UNL     1     -14.203  15.459  71.999  1.00  0.00    -0.650 A  
HETATM   14  C   UNL     1     -12.101  15.483  73.178  1.00  0.00    -0.591 A  
HETATM   15  C   UNL     1     -13.492  15.550  73.192  1.00  0.00    -0.585 A  
BRANCH   9  16
HETATM   16  O   UNL     1     -10.723  16.001  67.330  1.00  0.00    -0.314 OA 
BRANCH  16  17
HETATM   17  C   UNL     1     -10.085  17.094  66.859  1.00  0.00    -0.298 C  
HETATM   18  H2  UNL     1     -11.137  18.190  68.320  1.00  0.00     0.000 HD 
HETATM   19  O   UNL     1      -9.268  17.129  65.954  1.00  0.00    -0.506 OA 
HETATM   20  H1  UNL     1      -9.984  19.015  67.197  1.00  0.00     0.000 HD 
HETATM   21  N   UNL     1     -10.466  18.189  67.552  1.00  0.00    -0.397 N  
ENDBRANCH  16  17
ENDBRANCH   9  16
ENDBRANCH   6   7
ENDBRANCH   2   6
TORSDOF 4
ENDMDL
MODEL        4
REMARK 921   NORMALIZED FREE ENERGY PREDICTED BY IDOCK:   -5.75 KCAL/MOL
REMARK 922        TOTAL FREE ENERGY PREDICTED BY IDOCK:   -7.50 KCAL/MOL
REMARK 923 INTER-LIGAND FREE ENERGY PREDICTED BY IDOCK:   -7.11 KCAL/MOL
REMARK 924 INTRA-LIGAND FREE ENERGY PREDICTED BY IDOCK:   -0.38 KCAL/MOL
REMARK 927      BINDING AFFINITY PREDICTED BY RF-SCORE:    0.00 PKD
ROOT
HETATM    1  N   UNL     1     -11.328  14.342  64.729  1.00  0.00    -0.368 N  
HETATM    2  C   UNL     1     -11.008  15.652  64.761  1.00  0.00    -0.400 C  
HETATM    3  H2  UNL     1     -12.064  14.039  64.089  1.00  0.00     0.000 HD 
HETATM    4  H1  UNL     1     -10.876  13.636  65.310  1.00  0.00     0.000 HD 
HETATM    5  O   UNL     1     -11.550  16.496  64.066  1.00  0.00    -1.154 OA 
ENDROOT
BRANCH   2   6
HETATM    6  O   UNL     1     -10.007  15.858  65.641  1.00  0.00    -0.329 OA 
BRANCH   6   7
HETATM    7  C   UNL     1     -10.261  15.423  66.992  1.00  0.00    -0.262 C  
HETATM    8  C   UNL     1     -10.969  16.520  67.814  1.00  0.00    -0.252 C  
HETATM    9  C   UNL     1     -11.282  16.043  69.243  1.00  0.00    -0.346 C  
HETATM   10  C   UNL     1     -10.162  17.814  67.839  1.00  0.00    -0.362 A  
HETATM   11  C   UNL     1     -10.720  18.999  67.337  1.00  0.00    -0.559 A  
HETATM   12  C   UNL     1      -8.849  17.849  68.336  1.00  0.00    -0.293 A  
HETATM   13  C   UNL     1      -8.109  19.032  68.312  1.00  0.00    -0.359 A  
HETATM   14  C   UNL     1      -9.978  20.183  67.317  1.00  0.00    -0.583 A  
HETATM   15  C   UNL     1      -8.672  20.197  67.799  1.00  0.00    -0.332 A  
BRANCH   9  16
HETATM   16  O   UNL     1     -12.122  14.874  69.213  1.00  0.00    -0.299 OA 
BRANCH  16  17
HETATM   17  C   UNL     1     -12.619  14.462  70.399  1.00  0.00    -0.345 C  
HETATM   18  H2  UNL     1     -13.363  16.420  70.632  1.00  0.00     0.000 HD 
HETATM   19  O   UNL     1     -12.534  13.343  70.876  1.00  0.00    -0.361 OA 
HETATM   20  H1  UNL     1     -13.640  15.166  71.907  1.00  0.00     0.000 HD 
HETATM   21  N   UNL     1     -13.265  15.478  71.010  1.00  0.00    -0.511 N  
ENDBRANCH  16  17
ENDBRANCH   9  16
ENDBRANCH   6   7
ENDBRANCH   2   6
TORSDOF 4
ENDMDL
MODEL        5
REMARK 921   NORMALIZED FREE ENERGY PREDICTED BY IDOCK:   -5.71 KCAL/MOL
REMARK 922        TOTAL FREE ENERGY PREDICTED BY IDOCK:   -7.44 KCAL/MOL
REMARK 923 INTER-LIGAND FREE ENERGY PREDICTED BY IDOCK:   -7.02 KCAL/MOL
REMARK 924 INTRA-LIGAND FREE ENERGY PREDICTED BY IDOCK:   -0.42 KCAL/MOL
REMARK 927      BINDING AFFINITY PREDICTED BY RF-SCORE:    0.00 PKD
ROOT
HETATM    1  N   UNL     1     -12.357  11.656  62.991  1.00  0.00    -0.956 N  
HETATM    2  C   UNL     1     -12.661  12.813  63.616  1.00  0.00    -0.286 C  
HETATM    3  H2  UNL     1     -12.043  11.700  62.021  1.00  0.00     0.000 HD 
HETATM    4  H1  UNL     1     -12.425  10.740  63.434  1.00  0.00     0.000 HD 
HETATM    5  O   UNL     1     -12.579  13.908  63.085  1.00  0.00    -0.775 OA 
ENDROOT
BRANCH   2   6
HETATM    6  O   UNL     1     -13.031  12.562  64.889  1.00  0.00    -0.821 OA 
BRANCH   6   7
HETATM    7  C   UNL     1     -12.448  13.417  65.892  1.00  0.00    -0.408 C  
HETATM    8  C   UNL     1     -10.930  13.177  66.024  1.00  0.00    -0.295 C  
HETATM    9  C   UNL     1     -10.296  14.119  67.062  1.00  0.00    -0.267 C  
HETATM   10  C   UNL     1     -10.616  11.720  66.351  1.00  0.00    -0.293 A  
HETATM   11  C   UNL     1      -9.816  10.963  65.484  1.00  0.00    -0.298 A  
HETATM   12  C   UNL     1     -11.132  11.101  67.502  1.00  0.00    -0.353 A  
HETATM   13  C   UNL     1     -10.871   9.755  67.765  1.00  0.00    -0.306 A  
HETATM   14  C   UNL     1      -9.554   9.616  65.751  1.00  0.00    -0.329 A  
HETATM   15  C   UNL     1     -10.086   9.012  66.887  1.00  0.00    -0.338 A  
BRANCH   9  16
HETATM   16  O   UNL     1     -10.516  15.494  66.696  1.00  0.00    -0.287 OA 
BRANCH  16  17
HETATM   17  C   UNL     1     -10.740  16.357  67.711  1.00  0.00    -0.328 C  
HETATM   18  H2  UNL     1      -9.474  17.699  66.691  1.00  0.00     0.000 HD 
HETATM   19  O   UNL     1     -11.450  16.170  68.684  1.00  0.00    -0.373 OA 
HETATM   20  H1  UNL     1     -10.235  18.160  68.266  1.00  0.00     0.000 HD 
HETATM   21  N   UNL     1     -10.066  17.508  67.500  1.00  0.00    -0.313 N  
ENDBRANCH  16  17
ENDBRANCH   9  16
ENDBRANCH   6   7
ENDBRANCH   2   6
TORSDOF 4
ENDMDL
MODEL        6
REMARK 921   NORMALIZED FREE ENERGY PREDICTED BY IDOCK:   -5.69 KCAL/MOL
REMARK 922        TOTAL FREE ENERGY PREDICTED BY IDOCK:   -7.42 KCAL/MOL
REMARK 923 INTER-LIGAND FREE ENERGY PREDICTED BY IDOCK:   -7.06 KCAL/MOL
REMARK 924 INTRA-LIGAND FREE ENERGY PREDICTED BY IDOCK:   -0.36 KCAL/MOL
REMARK 927      BINDING AFFINITY PREDICTED BY RF-SCORE:    0.00 PKD
ROOT
HETATM    1  N   UNL     1     -12.183  11.500  62.940  1.00  0.00    -0.855 N  
HETATM    2  C   UNL     1     -12.306  12.415  63.924  1.00  0.00    -0.508 C  
HETATM    3  H2  UNL     1     -12.972  10.879  62.756  1.00  0.00     0.000 HD 
HETATM    4  H1  UNL     1     -11.344  11.395  62.369  1.00  0.00     0.000 HD 
HETATM    5  O   UNL     1     -13.309  12.541  64.607  1.00  0.00    -0.804 OA 
ENDROOT
BRANCH   2   6
HETATM    6  O   UNL     1     -11.181  13.155  64.004  1.00  0.00    -0.382 OA 
BRANCH   6   7
HETATM    7  C   UNL     1     -11.311  14.423  64.679  1.00  0.00    -0.371 C  
HETATM    8  C   UNL     1     -10.290  14.558  65.827  1.00  0.00    -0.347 C  
HETATM    9  C   UNL     1     -10.396  15.927  66.520  1.00  0.00    -0.300 C  
HETATM   10  C   UNL     1     -10.429  13.426  66.840  1.00  0.00    -0.273 A  
HETATM   11  C   UNL     1      -9.344  12.573  67.093  1.00  0.00    -0.201 A  
HETATM   12  C   UNL     1     -11.636  13.195  67.520  1.00  0.00    -0.398 A  
HETATM   13  C   UNL     1     -11.760  12.128  68.412  1.00  0.00    -0.388 A  
HETATM   14  C   UNL     1      -9.470  11.507  67.988  1.00  0.00    -0.181 A  
HETATM   15  C   UNL     1     -10.678  11.283  68.642  1.00  0.00    -0.241 A  
BRANCH   9  16
HETATM   16  O   UNL     1     -10.171  16.990  65.575  1.00  0.00    -0.589 OA 
BRANCH  16  17
HETATM   17  C   UNL     1     -10.542  18.229  65.966  1.00  0.00    -0.296 C  
HETATM   18  H2  UNL     1     -10.121  17.604  67.934  1.00  0.00     0.000 HD 
HETATM   19  O   UNL     1     -10.909  19.141  65.245  1.00  0.00    -0.528 OA 
HETATM   20  H1  UNL     1     -10.716  19.280  67.602  1.00  0.00     0.000 HD 
HETATM   21  N   UNL     1     -10.436  18.344  67.307  1.00  0.00    -0.395 N  
ENDBRANCH  16  17
ENDBRANCH   9  16
ENDBRANCH   6   7
ENDBRANCH   2   6
TORSDOF 4
ENDMDL
MODEL        7
REMARK 921   NORMALIZED FREE ENERGY PREDICTED BY IDOCK:   -5.67 KCAL/MOL
REMARK 922        TOTAL FREE ENERGY PREDICTED BY IDOCK:   -7.40 KCAL/MOL
REMARK 923 INTER-LIGAND FREE ENERGY PREDICTED BY IDOCK:   -7.07 KCAL/MOL
REMARK 924 INTRA-LIGAND FREE ENERGY PREDICTED BY IDOCK:   -0.33 KCAL/MOL
REMARK 927      BINDING AFFINITY PREDICTED BY RF-SCORE:    0.00 PKD
ROOT
HETATM    1  N   UNL     1     -12.352  13.768  63.196  1.00  0.00    -1.106 N  
HETATM    2  C   UNL     1     -12.498  14.773  64.085  1.00  0.00    -0.111 C  
HETATM    3  H2  UNL     1     -11.923  13.980  62.295  1.00  0.00     0.000 HD 
HETATM    4  H1  UNL     1     -12.646  12.808  63.376  1.00  0.00     0.000 HD 
HETATM    5  O   UNL     1     -12.147  15.921  63.870  1.00  0.00    -0.768 OA 
ENDROOT
BRANCH   2   6
HETATM    6  O   UNL     1     -13.057  14.303  65.220  1.00  0.00    -0.707 OA 
BRANCH   6   7
HETATM    7  C   UNL     1     -12.324  13.260  65.893  1.00  0.00    -0.418 C  
HETATM    8  C   UNL     1     -11.822  13.726  67.275  1.00  0.00    -0.436 C  
HETATM    9  C   UNL     1     -11.078  12.601  68.016  1.00  0.00    -0.251 C  
HETATM   10  C   UNL     1     -10.949  14.972  67.166  1.00  0.00    -0.329 A  
HETATM   11  C   UNL     1     -11.320  16.150  67.831  1.00  0.00    -0.182 A  
HETATM   12  C   UNL     1      -9.779  14.981  66.388  1.00  0.00    -0.305 A  
HETATM   13  C   UNL     1      -9.014  16.142  66.264  1.00  0.00    -0.379 A  
HETATM   14  C   UNL     1     -10.551  17.310  67.707  1.00  0.00    -0.367 A  
HETATM   15  C   UNL     1      -9.403  17.307  66.920  1.00  0.00    -0.264 A  
BRANCH   9  16
HETATM   16  O   UNL     1     -11.939  11.462  68.198  1.00  0.00    -0.594 OA 
BRANCH  16  17
HETATM   17  C   UNL     1     -11.764  10.753  69.335  1.00  0.00    -0.306 C  
HETATM   18  H2  UNL     1     -12.743  12.333  70.329  1.00  0.00     0.000 HD 
HETATM   19  O   UNL     1     -11.235   9.659  69.438  1.00  0.00    -0.187 OA 
HETATM   20  H1  UNL     1     -12.153  10.888  71.244  1.00  0.00     0.000 HD 
HETATM   21  N   UNL     1     -12.285  11.424  70.385  1.00  0.00    -0.357 N  
ENDBRANCH  16  17
ENDBRANCH   9  16
ENDBRANCH   6   7
ENDBRANCH   2   6
TORSDOF 4
ENDMDL
MODEL        8
REMARK 921   NORMALIZED FREE ENERGY PREDICTED BY IDOCK:   -5.67 KCAL/MOL
REMARK 922        TOTAL FREE ENERGY PREDICTED BY IDOCK:   -7.40 KCAL/MOL
REMARK 923 INTER-LIGAND FREE ENERGY PREDICTED BY IDOCK:   -7.02 KCAL/MOL
REMARK 924 INTRA-LIGAND FREE ENERGY PREDICTED BY IDOCK:   -0.38 KCAL/MOL
REMARK 927      BINDING AFFINITY PREDICTED BY RF-SCORE:    0.00 PKD
ROOT
HETATM    1  N   UNL     1     -12.954   9.945  70.517  1.00  0.00    -0.572 N  
HETATM    2  C   UNL     1     -12.701  11.133  71.104  1.00  0.00    -0.408 C  
HETATM    3  H2  UNL     1     -13.725   9.382  70.880  1.00  0.00     0.000 HD 
HETATM    4  H1  UNL     1     -12.418   9.578  69.731  1.00  0.00     0.000 HD 
HETATM    5  O   UNL     1     -13.342  11.572  72.045  1.00  0.00    -0.476 OA 
ENDROOT
BRANCH   2   6
HETATM    6  O   UNL     1     -11.671  11.741  70.480  1.00  0.00    -0.272 OA 
BRANCH   6   7
HETATM    7  C   UNL     1     -12.012  12.500  69.302  1.00  0.00    -0.250 C  
HETATM    8  C   UNL     1     -11.596  13.979  69.445  1.00  0.00    -0.349 C  
HETATM    9  C   UNL     1     -11.917  14.781  68.172  1.00  0.00    -0.230 C  
HETATM   10  C   UNL     1     -12.233  14.627  70.670  1.00  0.00    -0.394 A  
HETATM   11  C   UNL     1     -11.423  15.170  71.678  1.00  0.00    -0.445 A  
HETATM   12  C   UNL     1     -13.628  14.677  70.830  1.00  0.00    -0.234 A  
HETATM   13  C   UNL     1     -14.194  15.235  71.977  1.00  0.00    -0.679 A  
HETATM   14  C   UNL     1     -11.993  15.730  72.824  1.00  0.00    -0.598 A  
HETATM   15  C   UNL     1     -13.376  15.758  72.975  1.00  0.00    -0.679 A  
BRANCH   9  16
HETATM   16  O   UNL     1     -11.237  14.218  67.035  1.00  0.00    -0.303 OA 
BRANCH  16  17
HETATM   17  C   UNL     1     -11.788  14.461  65.825  1.00  0.00    -0.364 C  
HETATM   18  H2  UNL     1     -13.386  13.232  66.440  1.00  0.00     0.000 HD 
HETATM   19  O   UNL     1     -11.327  15.165  64.942  1.00  0.00    -0.385 OA 
HETATM   20  H1  UNL     1     -13.386  14.000  64.802  1.00  0.00     0.000 HD 
HETATM   21  N   UNL     1     -12.970  13.817  65.716  1.00  0.00    -0.386 N  
ENDBRANCH  16  17
ENDBRANCH   9  16
ENDBRANCH   6   7
ENDBRANCH   2   6
TORSDOF 4
ENDMDL
MODEL        9
REMARK 921   NORMALIZED FREE ENERGY PREDICTED BY IDOCK:   -5.65 KCAL/MOL
REMARK 922        TOTAL FREE ENERGY PREDICTED BY IDOCK:   -7.37 KCAL/MOL
REMARK 923 INTER-LIGAND FREE ENERGY PREDICTED BY IDOCK:   -7.06 KCAL/MOL
REMARK 924 INTRA-LIGAND FREE ENERGY PREDICTED BY IDOCK:   -0.31 KCAL/MOL
REMARK 927      BINDING AFFINITY PREDICTED BY RF-SCORE:    0.00 PKD
ROOT
HETATM    1  N   UNL     1     -12.824  15.412  70.175  1.00  0.00    -0.654 N  
HETATM    2  C   UNL     1     -11.577  15.708  70.599  1.00  0.00    -0.367 C  
HETATM    3  H2  UNL     1     -13.485  15.027  70.851  1.00  0.00     0.000 HD 
HETATM    4  H1  UNL     1     -13.142  15.551  69.217  1.00  0.00     0.000 HD 
HETATM    5  O   UNL     1     -11.197  15.541  71.746  1.00  0.00    -0.391 OA 
ENDROOT
BRANCH   2   6
HETATM    6  O   UNL     1     -10.858  16.224  69.581  1.00  0.00    -0.303 OA 
BRANCH   6   7
HETATM    7  C   UNL     1     -11.347  15.930  68.256  1.00  0.00    -0.342 C  
HETATM    8  C   UNL     1     -10.279  16.226  67.183  1.00  0.00    -0.276 C  
HETATM    9  C   UNL     1     -10.780  15.871  65.773  1.00  0.00    -0.316 C  
HETATM   10  C   UNL     1      -9.808  17.676  67.242  1.00  0.00    -0.303 A  
HETATM   11  C   UNL     1      -8.456  17.966  67.473  1.00  0.00    -0.232 A  
HETATM   12  C   UNL     1     -10.707  18.745  67.092  1.00  0.00    -0.469 A  
HETATM   13  C   UNL     1     -10.268  20.066  67.192  1.00  0.00    -0.580 A  
HETATM   14  C   UNL     1      -8.018  19.290  67.570  1.00  0.00    -0.290 A  
HETATM   15  C   UNL     1      -8.924  20.338  67.435  1.00  0.00    -0.457 A  
BRANCH   9  16
HETATM   16  O   UNL     1     -11.135  14.478  65.699  1.00  0.00    -0.309 OA 
BRANCH  16  17
HETATM   17  C   UNL     1     -12.138  14.158  64.853  1.00  0.00    -0.428 C  
HETATM   18  H2  UNL     1     -12.184  12.280  65.808  1.00  0.00     0.000 HD 
HETATM   19  O   UNL     1     -12.627  14.875  63.996  1.00  0.00    -0.832 OA 
HETATM   20  H1  UNL     1     -13.322  12.657  64.454  1.00  0.00     0.000 HD 
HETATM   21  N   UNL     1     -12.564  12.899  65.093  1.00  0.00    -0.512 N  
ENDBRANCH  16  17
ENDBRANCH   9  16
ENDBRANCH   6   7
ENDBRANCH   2   6
TORSDOF 4
ENDMDL
MODEL       10
REMARK 921   NORMALIZED FREE ENERGY PREDICTED BY IDOCK:   -5.64 KCAL/MOL
REMARK 922        TOTAL FREE ENERGY PREDICTED BY IDOCK:   -7.35 KCAL/MOL
REMARK 923 INTER-LIGAND FREE ENERGY PREDICTED BY IDOCK:   -7.03 KCAL/MOL
REMARK 924 INTRA-LIGAND FREE ENERGY PREDICTED BY IDOCK:   -0.32 KCAL/MOL
REMARK 927      BINDING AFFINITY PREDICTED BY RF-SCORE:    0.00 PKD
ROOT
HETATM    1  N   UNL     1     -13.576  15.413  70.498  1.00  0.00    -0.810 N  
HETATM    2  C   UNL     1     -12.361  15.612  71.050  1.00  0.00    -0.428 C  
HETATM    3  H2  UNL     1     -14.335  15.096  71.102  1.00  0.00     0.000 HD 
HETATM    4  H1  UNL     1     -13.778  15.561  69.509  1.00  0.00     0.000 HD 
HETATM    5  O   UNL     1     -12.121  15.435  72.233  1.00  0.00    -0.341 OA 
ENDROOT
BRANCH   2   6
HETATM    6  O   UNL     1     -11.498  16.049  70.111  1.00  0.00    -0.330 OA 
BRANCH   6   7
HETATM    7  C   UNL     1     -11.849  15.746  68.746  1.00  0.00    -0.309 C  
HETATM    8  C   UNL     1     -10.629  15.867  67.810  1.00  0.00    -0.302 C  
HETATM    9  C   UNL     1     -10.991  15.501  66.360  1.00  0.00    -0.238 C  
HETATM   10  C   UNL     1     -10.003  17.256  67.878  1.00  0.00    -0.297 A  
HETATM   11  C   UNL     1      -8.664  17.404  68.270  1.00  0.00    -0.261 A  
HETATM   12  C   UNL     1     -10.744  18.411  67.575  1.00  0.00    -0.399 A  
HETATM   13  C   UNL     1     -10.168  19.677  67.684  1.00  0.00    -0.567 A  
HETATM   14  C   UNL     1      -8.089  18.673  68.376  1.00  0.00    -0.360 A  
HETATM   15  C   UNL     1      -8.843  19.808  68.089  1.00  0.00    -0.347 A  
BRANCH   9  16
HETATM   16  O   UNL     1     -11.495  14.155  66.290  1.00  0.00    -0.332 OA 
BRANCH  16  17
HETATM   17  C   UNL     1     -12.315  13.874  65.253  1.00  0.00    -0.464 C  
HETATM   18  H2  UNL     1     -11.824  15.781  64.504  1.00  0.00     0.000 HD 
HETATM   19  O   UNL     1     -12.940  12.842  65.077  1.00  0.00    -0.811 OA 
HETATM   20  H1  UNL     1     -12.963  14.700  63.607  1.00  0.00     0.000 HD 
HETATM   21  N   UNL     1     -12.344  14.912  64.390  1.00  0.00    -0.436 N  
ENDBRANCH  16  17
ENDBRANCH   9  16
ENDBRANCH   6   7
ENDBRANCH   2   6
TORSDOF 4
ENDMDL
MODEL       11
REMARK 921   NORMALIZED FREE ENERGY PREDICTED BY IDOCK:   -5.58 KCAL/MOL
REMARK 922        TOTAL FREE ENERGY PREDICTED BY IDOCK:   -7.28 KCAL/MOL
REMARK 923 INTER-LIGAND FREE ENERGY PREDICTED BY IDOCK:   -6.92 KCAL/MOL
REMARK 924 INTRA-LIGAND FREE ENERGY PREDICTED BY IDOCK:   -0.36 KCAL/MOL
REMARK 927      BINDING AFFINITY PREDICTED BY RF-SCORE:    0.00 PKD
ROOT
HETATM    1  N   UNL     1     -12.302  13.694  63.162  1.00  0.00    -1.076 N  
HETATM    2  C   UNL     1     -12.518  14.637  64.103  1.00  0.00    -0.147 C  
HETATM    3  H2  UNL     1     -11.947  13.991  62.253  1.00  0.00     0.000 HD 
HETATM    4  H1  UNL     1     -12.475  12.700  63.310  1.00  0.00     0.000 HD 
HETATM    5  O   UNL     1     -12.311  15.826  63.926  1.00  0.00    -0.728 OA 
ENDROOT
BRANCH   2   6
HETATM    6  O   UNL     1     -12.961  14.059  65.238  1.00  0.00    -0.743 OA 
BRANCH   6   7
HETATM    7  C   UNL     1     -12.137  13.000  65.766  1.00  0.00    -0.454 C  
HETATM    8  C   UNL     1     -11.670  13.312  67.203  1.00  0.00    -0.425 C  
HETATM    9  C   UNL     1     -10.827  12.165  67.785  1.00  0.00    -0.224 C  
HETATM   10  C   UNL     1     -10.911  14.633  67.274  1.00  0.00    -0.305 A  
HETATM   11  C   UNL     1     -11.380  15.670  68.093  1.00  0.00    -0.340 A  
HETATM   12  C   UNL     1      -9.750  14.853  66.514  1.00  0.00    -0.294 A  
HETATM   13  C   UNL     1      -9.091  16.082  66.557  1.00  0.00    -0.319 A  
HETATM   14  C   UNL     1     -10.717  16.899  68.137  1.00  0.00    -0.375 A  
HETATM   15  C   UNL     1      -9.577  17.106  67.365  1.00  0.00    -0.247 A  
BRANCH   9  16
HETATM   16  O   UNL     1     -11.584  10.940  67.802  1.00  0.00    -0.523 OA 
BRANCH  16  17
HETATM   17  C   UNL     1     -10.871   9.795  67.882  1.00  0.00    -0.242 C  
HETATM   18  H2  UNL     1     -10.972  10.019  69.975  1.00  0.00     0.000 HD 
HETATM   19  O   UNL     1     -10.481   9.113  66.950  1.00  0.00    -0.253 OA 
HETATM   20  H1  UNL     1     -10.111   8.611  69.235  1.00  0.00     0.000 HD 
HETATM   21  N   UNL     1     -10.649   9.476  69.175  1.00  0.00    -0.219 N  
ENDBRANCH  16  17
ENDBRANCH   9  16
ENDBRANCH   6   7
ENDBRANCH   2   6
TORSDOF 4
ENDMDL
MODEL       12
REMARK 921   NORMALIZED FREE ENERGY PREDICTED BY IDOCK:   -5.57 KCAL/MOL
REMARK 922        TOTAL FREE ENERGY PREDICTED BY IDOCK:   -7.27 KCAL/MOL
REMARK 923 INTER-LIGAND FREE ENERGY PREDICTED BY IDOCK:   -6.85 KCAL/MOL
REMARK 924 INTRA-LIGAND FREE ENERGY PREDICTED BY IDOCK:   -0.41 KCAL/MOL
REMARK 927      BINDING AFFINITY PREDICTED BY RF-SCORE:    0.00 PKD
ROOT
HETATM    1  N   UNL     1     -11.030  12.752  69.623  1.00  0.00    -0.447 N  
HETATM    2  C   UNL     1     -11.829  12.577  68.550  1.00  0.00    -0.295 C  
HETATM    3  H2  UNL     1     -10.719  11.925  70.134  1.00  0.00     0.000 HD 
HETATM    4  H1  UNL     1     -10.719  13.666  69.952  1.00  0.00     0.000 HD 
HETATM    5  O   UNL     1     -12.201  11.484  68.157  1.00  0.00    -0.576 OA 
ENDROOT
BRANCH   2   6
HETATM    6  O   UNL     1     -12.116  13.772  67.993  1.00  0.00    -0.362 OA 
BRANCH   6   7
HETATM    7  C   UNL     1     -10.982  14.603  67.673  1.00  0.00    -0.293 C  
HETATM    8  C   UNL     1     -11.026  15.076  66.206  1.00  0.00    -0.338 C  
HETATM    9  C   UNL     1      -9.841  16.000  65.873  1.00  0.00    -0.348 C  
HETATM   10  C   UNL     1     -11.086  13.900  65.236  1.00  0.00    -0.318 A  
HETATM   11  C   UNL     1     -12.168  13.772  64.354  1.00  0.00    -0.440 A  
HETATM   12  C   UNL     1     -10.084  12.915  65.216  1.00  0.00    -0.254 A  
HETATM   13  C   UNL     1     -10.175  11.823  64.353  1.00  0.00    -0.332 A  
HETATM   14  C   UNL     1     -12.256  12.679  63.488  1.00  0.00    -0.638 A  
HETATM   15  C   UNL     1     -11.263  11.703  63.492  1.00  0.00    -0.462 A  
BRANCH   9  16
HETATM   16  O   UNL     1      -9.845  17.155  66.732  1.00  0.00    -0.261 OA 
BRANCH  16  17
HETATM   17  C   UNL     1     -10.514  18.238  66.277  1.00  0.00    -0.376 C  
HETATM   18  H2  UNL     1     -10.365  19.003  68.236  1.00  0.00     0.000 HD 
HETATM   19  O   UNL     1     -10.903  18.429  65.138  1.00  0.00    -0.630 OA 
HETATM   20  H1  UNL     1     -11.194  19.946  66.934  1.00  0.00     0.000 HD 
HETATM   21  N   UNL     1     -10.689  19.129  67.277  1.00  0.00    -0.482 N  
ENDBRANCH  16  17
ENDBRANCH   9  16
ENDBRANCH   6   7
ENDBRANCH   2   6
TORSDOF 4
ENDMDL
MODEL       13
REMARK 921   NORMALIZED FREE ENERGY PREDICTED BY IDOCK:   -5.52 KCAL/MOL
REMARK 922        TOTAL FREE ENERGY PREDICTED BY IDOCK:   -7.21 KCAL/MOL
REMARK 923 INTER-LIGAND FREE ENERGY PREDICTED BY IDOCK:   -6.90 KCAL/MOL
REMARK 924 INTRA-LIGAND FREE ENERGY PREDICTED BY IDOCK:   -0.31 KCAL/MOL
REMARK 927      BINDING AFFINITY PREDICTED BY RF-SCORE:    0.00 PKD
ROOT
HETATM    1  N   UNL     1     -12.500  14.390  63.648  1.00  0.00    -1.086 N  
HETATM    2  C   UNL     1     -12.526  13.998  64.940  1.00  0.00    -0.396 C  
HETATM    3  H2  UNL     1     -12.928  13.780  62.951  1.00  0.00     0.000 HD 
HETATM    4  H1  UNL     1     -12.075  15.261  63.331  1.00  0.00     0.000 HD 
HETATM    5  O   UNL     1     -13.034  12.956  65.319  1.00  0.00    -0.703 OA 
ENDROOT
BRANCH   2   6
HETATM    6  O   UNL     1     -11.939  14.934  65.714  1.00  0.00    -0.211 OA 
BRANCH   6   7
HETATM    7  C   UNL     1     -11.659  14.539  67.072  1.00  0.00    -0.386 C  
HETATM    8  C   UNL     1     -11.253  15.750  67.938  1.00  0.00    -0.313 C  
HETATM    9  C   UNL     1     -10.997  15.339  69.399  1.00  0.00    -0.271 C  
HETATM   10  C   UNL     1     -10.042  16.475  67.359  1.00  0.00    -0.279 A  
HETATM   11  C   UNL     1     -10.141  17.827  66.998  1.00  0.00    -0.337 A  
HETATM   12  C   UNL     1      -8.820  15.813  67.154  1.00  0.00    -0.224 A  
HETATM   13  C   UNL     1      -7.735  16.480  66.583  1.00  0.00    -0.318 A  
HETATM   14  C   UNL     1      -9.052  18.493  66.429  1.00  0.00    -0.276 A  
HETATM   15  C   UNL     1      -7.853  17.818  66.217  1.00  0.00    -0.299 A  
BRANCH   9  16
HETATM   16  O   UNL     1     -12.175  14.740  69.968  1.00  0.00    -0.310 OA 
BRANCH  16  17
HETATM   17  C   UNL     1     -12.826  15.465  70.904  1.00  0.00    -0.476 C  
HETATM   18  H2  UNL     1     -10.929  16.134  71.532  1.00  0.00     0.000 HD 
HETATM   19  O   UNL     1     -14.033  15.528  71.069  1.00  0.00    -0.535 OA 
HETATM   20  H1  UNL     1     -12.432  16.705  72.360  1.00  0.00     0.000 HD 
HETATM   21  N   UNL     1     -11.941  16.156  71.654  1.00  0.00    -0.481 N  
ENDBRANCH  16  17
ENDBRANCH   9  16
ENDBRANCH   6   7
ENDBRANCH   2   6
TORSDOF 4
ENDMDL
MODEL       14
REMARK 921   NORMALIZED FREE ENERGY PREDICTED BY IDOCK:   -5.52 KCAL/MOL
REMARK 922        TOTAL FREE ENERGY PREDICTED BY IDOCK:   -7.21 KCAL/MOL
REMARK 923 INTER-LIGAND FREE ENERGY PREDICTED BY IDOCK:   -6.85 KCAL/MOL
REMARK 924 INTRA-LIGAND FREE ENERGY PREDICTED BY IDOCK:   -0.36 KCAL/MOL
REMARK 927      BINDING AFFINITY PREDICTED BY RF-SCORE:    0.00 PKD
ROOT
HETATM    1  N   UNL     1     -12.391  14.598  63.953  1.00  0.00    -1.060 N  
HETATM    2  C   UNL     1     -12.734  13.578  64.767  1.00  0.00    -0.230 C  
HETATM    3  H2  UNL     1     -12.432  14.446  62.945  1.00  0.00     0.000 HD 
HETATM    4  H1  UNL     1     -12.093  15.513  64.290  1.00  0.00     0.000 HD 
HETATM    5  O   UNL     1     -13.090  12.483  64.363  1.00  0.00    -0.759 OA 
ENDROOT
BRANCH   2   6
HETATM    6  O   UNL     1     -12.642  13.969  66.055  1.00  0.00    -0.481 OA 
BRANCH   6   7
HETATM    7  C   UNL     1     -11.483  14.759  66.389  1.00  0.00    -0.319 C  
HETATM    8  C   UNL     1     -10.538  13.999  67.342  1.00  0.00    -0.278 C  
HETATM    9  C   UNL     1      -9.279  14.822  67.665  1.00  0.00    -0.191 C  
HETATM   10  C   UNL     1     -11.251  13.575  68.622  1.00  0.00    -0.311 A  
HETATM   11  C   UNL     1     -11.331  12.217  68.964  1.00  0.00    -0.333 A  
HETATM   12  C   UNL     1     -11.858  14.517  69.469  1.00  0.00    -0.374 A  
HETATM   13  C   UNL     1     -12.545  14.109  70.614  1.00  0.00    -0.421 A  
HETATM   14  C   UNL     1     -12.016  11.811  70.112  1.00  0.00    -0.421 A  
HETATM   15  C   UNL     1     -12.627  12.756  70.933  1.00  0.00    -0.342 A  
BRANCH   9  16
HETATM   16  O   UNL     1      -8.560  15.140  66.459  1.00  0.00    -0.270 OA 
BRANCH  16  17
HETATM   17  C   UNL     1      -8.176  16.426  66.310  1.00  0.00    -0.308 C  
HETATM   18  H2  UNL     1      -6.343  15.854  67.179  1.00  0.00     0.000 HD 
HETATM   19  O   UNL     1      -8.830  17.330  65.818  1.00  0.00    -0.530 OA 
HETATM   20  H1  UNL     1      -6.629  17.564  66.662  1.00  0.00     0.000 HD 
HETATM   21  N   UNL     1      -6.919  16.592  66.774  1.00  0.00    -0.225 N  
ENDBRANCH  16  17
ENDBRANCH   9  16
ENDBRANCH   6   7
ENDBRANCH   2   6
TORSDOF 4
ENDMDL
MODEL       15
REMARK 921   NORMALIZED FREE ENERGY PREDICTED BY IDOCK:   -5.50 KCAL/MOL
REMARK 922        TOTAL FREE ENERGY PREDICTED BY IDOCK:   -7.19 KCAL/MOL
REMARK 923 INTER-LIGAND FREE ENERGY PREDICTED BY IDOCK:   -6.78 KCAL/MOL
REMARK 924 INTRA-LIGAND FREE ENERGY PREDICTED BY IDOCK:   -0.40 KCAL/MOL
REMARK 927      BINDING AFFINITY PREDICTED BY RF-SCORE:    0.00 PKD
ROOT
HETATM    1  N   UNL     1     -10.317  19.165  66.148  1.00  0.00    -0.459 N  
HETATM    2  C   UNL     1     -10.525  17.884  65.776  1.00  0.00    -0.196 C  
HETATM    3  H2  UNL     1     -10.682  19.907  65.550  1.00  0.00     0.000 HD 
HETATM    4  H1  UNL     1      -9.813  19.432  66.993  1.00  0.00     0.000 HD 
HETATM    5  O   UNL     1     -11.127  17.565  64.764  1.00  0.00    -0.959 OA 
ENDROOT
BRANCH   2   6
HETATM    6  O   UNL     1      -9.995  17.049  66.693  1.00  0.00    -0.277 OA 
BRANCH   6   7
HETATM    7  C   UNL     1     -10.871  16.666  67.772  1.00  0.00    -0.292 C  
HETATM    8  C   UNL     1     -10.719  15.170  68.116  1.00  0.00    -0.254 C  
HETATM    9  C   UNL     1     -11.620  14.767  69.297  1.00  0.00    -0.303 C  
HETATM   10  C   UNL     1     -10.986  14.283  66.904  1.00  0.00    -0.304 A  
HETATM   11  C   UNL     1      -9.987  13.418  66.434  1.00  0.00    -0.293 A  
HETATM   12  C   UNL     1     -12.214  14.324  66.223  1.00  0.00    -0.433 A  
HETATM   13  C   UNL     1     -12.426  13.537  65.089  1.00  0.00    -0.495 A  
HETATM   14  C   UNL     1     -10.203  12.630  65.300  1.00  0.00    -0.302 A  
HETATM   15  C   UNL     1     -11.420  12.694  64.626  1.00  0.00    -0.376 A  
BRANCH   9  16
HETATM   16  O   UNL     1     -11.298  15.544  70.465  1.00  0.00    -0.288 OA 
BRANCH  16  17
HETATM   17  C   UNL     1     -12.322  15.821  71.303  1.00  0.00    -0.438 C  
HETATM   18  H2  UNL     1     -10.861  16.435  72.693  1.00  0.00     0.000 HD 
HETATM   19  O   UNL     1     -13.511  15.687  71.070  1.00  0.00    -0.575 OA 
HETATM   20  H1  UNL     1     -12.620  16.510  73.105  1.00  0.00     0.000 HD 
HETATM   21  N   UNL     1     -11.847  16.301  72.473  1.00  0.00    -0.539 N  
ENDBRANCH  16  17
ENDBRANCH   9  16
ENDBRANCH   6   7
ENDBRANCH   2   6
TORSDOF 4
ENDMDL
MODEL       16
REMARK 921   NORMALIZED FREE ENERGY PREDICTED BY IDOCK:   -5.36 KCAL/MOL
REMARK 922        TOTAL FREE ENERGY PREDICTED BY IDOCK:   -7.02 KCAL/MOL
REMARK 923 INTER-LIGAND FREE ENERGY PREDICTED BY IDOCK:   -6.72 KCAL/MOL
REMARK 924 INTRA-LIGAND FREE ENERGY PREDICTED BY IDOCK:   -0.30 KCAL/MOL
REMARK 927      BINDING AFFINITY PREDICTED BY RF-SCORE:    0.00 PKD
ROOT
HETATM    1  N   UNL     1     -11.832  12.426  66.899  1.00  0.00    -0.360 N  
HETATM    2  C   UNL     1     -12.265  13.600  66.394  1.00  0.00    -0.423 C  
HETATM    3  H2  UNL     1     -12.056  11.570  66.390  1.00  0.00     0.000 HD 
HETATM    4  H1  UNL     1     -11.293  12.347  67.761  1.00  0.00     0.000 HD 
HETATM    5  O   UNL     1     -12.910  13.695  65.363  1.00  0.00    -0.634 OA 
ENDROOT
BRANCH   2   6
HETATM    6  O   UNL     1     -11.857  14.616  67.183  1.00  0.00    -0.391 OA 
BRANCH   6   7
HETATM    7  C   UNL     1     -11.961  14.388  68.603  1.00  0.00    -0.297 C  
HETATM    8  C   UNL     1     -11.832  15.705  69.396  1.00  0.00    -0.391 C  
HETATM    9  C   UNL     1     -11.987  15.471  70.909  1.00  0.00    -0.375 C  
HETATM   10  C   UNL     1     -10.520  16.420  69.090  1.00  0.00    -0.303 A  
HETATM   11  C   UNL     1     -10.535  17.717  68.556  1.00  0.00    -0.337 A  
HETATM   12  C   UNL     1      -9.279  15.800  69.310  1.00  0.00    -0.266 A  
HETATM   13  C   UNL     1      -8.088  16.452  68.984  1.00  0.00    -0.223 A  
HETATM   14  C   UNL     1      -9.342  18.368  68.233  1.00  0.00    -0.342 A  
HETATM   15  C   UNL     1      -8.120  17.734  68.442  1.00  0.00    -0.297 A  
BRANCH   9  16
HETATM   16  O   UNL     1     -13.268  14.881  71.199  1.00  0.00    -0.366 OA 
BRANCH  16  17
HETATM   17  C   UNL     1     -13.413  14.339  72.428  1.00  0.00    -0.489 C  
HETATM   18  H2  UNL     1     -12.587  16.124  73.183  1.00  0.00     0.000 HD 
HETATM   19  O   UNL     1     -13.883  13.245  72.691  1.00  0.00    -0.712 OA 
HETATM   20  H1  UNL     1     -13.083  14.790  74.299  1.00  0.00     0.000 HD 
HETATM   21  N   UNL     1     -12.973  15.199  73.371  1.00  0.00    -0.515 N  
ENDBRANCH  16  17
ENDBRANCH   9  16
ENDBRANCH   6   7
ENDBRANCH   2   6
TORSDOF 4
ENDMDL
MODEL       17
REMARK 921   NORMALIZED FREE ENERGY PREDICTED BY IDOCK:   -5.36 KCAL/MOL
REMARK 922        TOTAL FREE ENERGY PREDICTED BY IDOCK:   -7.01 KCAL/MOL
REMARK 923 INTER-LIGAND FREE ENERGY PREDICTED BY IDOCK:   -6.63 KCAL/MOL
REMARK 924 INTRA-LIGAND FREE ENERGY PREDICTED BY IDOCK:   -0.38 KCAL/MOL
REMARK 927      BINDING AFFINITY PREDICTED BY RF-SCORE:    0.00 PKD
ROOT
HETATM    1  N   UNL     1     -12.335  14.019  63.272  1.00  0.00    -1.145 N  
HETATM    2  C   UNL     1     -12.445  13.397  64.465  1.00  0.00    -0.301 C  
HETATM    3  H2  UNL     1     -12.868  13.648  62.484  1.00  0.00     0.000 HD 
HETATM    4  H1  UNL     1     -11.749  14.838  63.114  1.00  0.00     0.000 HD 
HETATM    5  O   UNL     1     -13.147  12.417  64.653  1.00  0.00    -0.825 OA 
ENDROOT
BRANCH   2   6
HETATM    6  O   UNL     1     -11.695  14.037  65.385  1.00  0.00    -0.322 OA 
BRANCH   6   7
HETATM    7  C   UNL     1     -12.231  14.064  66.723  1.00  0.00    -0.404 C  
HETATM    8  C   UNL     1     -11.139  13.771  67.773  1.00  0.00    -0.288 C  
HETATM    9  C   UNL     1     -11.697  13.843  69.205  1.00  0.00    -0.338 C  
HETATM   10  C   UNL     1     -10.461  12.428  67.522  1.00  0.00    -0.229 A  
HETATM   11  C   UNL     1      -9.079  12.371  67.290  1.00  0.00    -0.187 A  
HETATM   12  C   UNL     1     -11.196  11.231  67.493  1.00  0.00    -0.357 A  
HETATM   13  C   UNL     1     -10.567  10.015  67.219  1.00  0.00    -0.319 A  
HETATM   14  C   UNL     1      -8.452  11.152  67.019  1.00  0.00    -0.146 A  
HETATM   15  C   UNL     1      -9.197   9.977  66.978  1.00  0.00    -0.167 A  
BRANCH   9  16
HETATM   16  O   UNL     1     -12.252  15.145  69.466  1.00  0.00    -0.292 OA 
BRANCH  16  17
HETATM   17  C   UNL     1     -12.632  15.391  70.739  1.00  0.00    -0.442 C  
HETATM   18  H2  UNL     1     -10.840  16.484  70.936  1.00  0.00     0.000 HD 
HETATM   19  O   UNL     1     -13.660  15.019  71.278  1.00  0.00    -0.405 OA 
HETATM   20  H1  UNL     1     -11.990  16.334  72.324  1.00  0.00     0.000 HD 
HETATM   21  N   UNL     1     -11.703  16.148  71.363  1.00  0.00    -0.459 N  
ENDBRANCH  16  17
ENDBRANCH   9  16
ENDBRANCH   6   7
ENDBRANCH   2   6
TORSDOF 4
ENDMDL
MODEL       18
REMARK 921   NORMALIZED FREE ENERGY PREDICTED BY IDOCK:   -5.34 KCAL/MOL
REMARK 922        TOTAL FREE ENERGY PREDICTED BY IDOCK:   -6.98 KCAL/MOL
REMARK 923 INTER-LIGAND FREE ENERGY PREDICTED BY IDOCK:   -6.67 KCAL/MOL
REMARK 924 INTRA-LIGAND FREE ENERGY PREDICTED BY IDOCK:   -0.31 KCAL/MOL
REMARK 927      BINDING AFFINITY PREDICTED BY RF-SCORE:    0.00 PKD
ROOT
HETATM    1  N   UNL     1     -13.735  15.431  70.763  1.00  0.00    -0.845 N  
HETATM    2  C   UNL     1     -13.040  14.277  70.842  1.00  0.00    -0.304 C  
HETATM    3  H2  UNL     1     -14.265  15.732  71.581  1.00  0.00     0.000 HD 
HETATM    4  H1  UNL     1     -13.760  16.018  69.930  1.00  0.00     0.000 HD 
HETATM    5  O   UNL     1     -13.010  13.574  71.839  1.00  0.00    -0.350 OA 
ENDROOT
BRANCH   2   6
HETATM    6  O   UNL     1     -12.388  14.055  69.682  1.00  0.00    -0.334 OA 
BRANCH   6   7
HETATM    7  C   UNL     1     -11.370  15.017  69.341  1.00  0.00    -0.297 C  
HETATM    8  C   UNL     1     -11.487  15.463  67.869  1.00  0.00    -0.306 C  
HETATM    9  C   UNL     1     -10.430  16.524  67.514  1.00  0.00    -0.310 C  
HETATM   10  C   UNL     1     -11.408  14.278  66.912  1.00  0.00    -0.354 A  
HETATM   11  C   UNL     1     -12.475  14.005  66.043  1.00  0.00    -0.489 A  
HETATM   12  C   UNL     1     -10.292  13.426  66.892  1.00  0.00    -0.257 A  
HETATM   13  C   UNL     1     -10.254  12.320  66.042  1.00  0.00    -0.267 A  
HETATM   14  C   UNL     1     -12.433  12.899  65.190  1.00  0.00    -0.561 A  
HETATM   15  C   UNL     1     -11.326  12.054  65.194  1.00  0.00    -0.359 A  
BRANCH   9  16
HETATM   16  O   UNL     1     -10.570  17.680  68.360  1.00  0.00    -0.366 OA 
BRANCH  16  17
HETATM   17  C   UNL     1     -10.520  18.882  67.746  1.00  0.00    -0.416 C  
HETATM   18  H2  UNL     1     -10.070  19.695  69.638  1.00  0.00     0.000 HD 
HETATM   19  O   UNL     1     -10.690  19.103  66.558  1.00  0.00    -0.414 OA 
HETATM   20  H1  UNL     1     -10.191  20.758  68.179  1.00  0.00     0.000 HD 
HETATM   21  N   UNL     1     -10.229  19.849  68.642  1.00  0.00    -0.443 N  
ENDBRANCH  16  17
ENDBRANCH   9  16
ENDBRANCH   6   7
ENDBRANCH   2   6
TORSDOF 4
ENDMDL
MODEL       19
REMARK 921   NORMALIZED FREE ENERGY PREDICTED BY IDOCK:   -5.30 KCAL/MOL
REMARK 922        TOTAL FREE ENERGY PREDICTED BY IDOCK:   -6.94 KCAL/MOL
REMARK 923 INTER-LIGAND FREE ENERGY PREDICTED BY IDOCK:   -6.62 KCAL/MOL
REMARK 924 INTRA-LIGAND FREE ENERGY PREDICTED BY IDOCK:   -0.32 KCAL/MOL
REMARK 927      BINDING AFFINITY PREDICTED BY RF-SCORE:    0.00 PKD
ROOT
HETATM    1  N   UNL     1      -9.109  17.646  68.134  1.00  0.00    -0.268 N  
HETATM    2  C   UNL     1     -10.432  17.906  68.066  1.00  0.00    -0.382 C  
HETATM    3  H2  UNL     1      -8.473  18.237  67.598  1.00  0.00     0.000 HD 
HETATM    4  H1  UNL     1      -8.710  16.891  68.691  1.00  0.00     0.000 HD 
HETATM    5  O   UNL     1     -10.908  18.810  67.398  1.00  0.00    -0.449 OA 
ENDROOT
BRANCH   2   6
HETATM    6  O   UNL     1     -11.109  17.044  68.852  1.00  0.00    -0.221 OA 
BRANCH   6   7
HETATM    7  C   UNL     1     -10.627  15.685  68.851  1.00  0.00    -0.228 C  
HETATM    8  C   UNL     1     -11.727  14.698  69.294  1.00  0.00    -0.348 C  
HETATM    9  C   UNL     1     -11.231  13.242  69.252  1.00  0.00    -0.208 C  
HETATM   10  C   UNL     1     -12.273  15.045  70.676  1.00  0.00    -0.381 A  
HETATM   11  C   UNL     1     -13.635  15.336  70.840  1.00  0.00    -0.402 A  
HETATM   12  C   UNL     1     -11.434  15.103  71.801  1.00  0.00    -0.452 A  
HETATM   13  C   UNL     1     -11.940  15.464  73.050  1.00  0.00    -0.557 A  
HETATM   14  C   UNL     1     -14.140  15.695  72.092  1.00  0.00    -0.546 A  
HETATM   15  C   UNL     1     -13.292  15.764  73.195  1.00  0.00    -0.685 A  
BRANCH   9  16
HETATM   16  O   UNL     1     -10.805  12.892  67.922  1.00  0.00    -0.217 OA 
BRANCH  16  17
HETATM   17  C   UNL     1     -11.562  11.984  67.269  1.00  0.00    -0.313 C  
HETATM   18  H2  UNL     1     -11.330  13.196  65.560  1.00  0.00     0.000 HD 
HETATM   19  O   UNL     1     -12.035  10.960  67.732  1.00  0.00    -0.553 OA 
HETATM   20  H1  UNL     1     -12.293  11.667  65.486  1.00  0.00     0.000 HD 
HETATM   21  N   UNL     1     -11.722  12.354  65.980  1.00  0.00    -0.408 N  
ENDBRANCH  16  17
ENDBRANCH   9  16
ENDBRANCH   6   7
ENDBRANCH   2   6
TORSDOF 4
ENDMDL
MODEL       20
REMARK 921   NORMALIZED FREE ENERGY PREDICTED BY IDOCK:   -5.27 KCAL/MOL
REMARK 922        TOTAL FREE ENERGY PREDICTED BY IDOCK:   -6.89 KCAL/MOL
REMARK 923 INTER-LIGAND FREE ENERGY PREDICTED BY IDOCK:   -6.42 KCAL/MOL
REMARK 924 INTRA-LIGAND FREE ENERGY PREDICTED BY IDOCK:   -0.47 KCAL/MOL
REMARK 927      BINDING AFFINITY PREDICTED BY RF-SCORE:    0.00 PKD
ROOT
HETATM    1  N   UNL     1     -12.294  15.180  63.783  1.00  0.00    -1.037 N  
HETATM    2  C   UNL     1     -12.507  13.869  64.020  1.00  0.00    -0.211 C  
HETATM    3  H2  UNL     1     -12.050  15.465  62.833  1.00  0.00     0.000 HD 
HETATM    4  H1  UNL     1     -12.361  15.902  64.500  1.00  0.00     0.000 HD 
HETATM    5  O   UNL     1     -12.426  13.005  63.162  1.00  0.00    -0.660 OA 
ENDROOT
BRANCH   2   6
HETATM    6  O   UNL     1     -12.838  13.686  65.315  1.00  0.00    -0.672 OA 
BRANCH   6   7
HETATM    7  C   UNL     1     -12.029  12.740  66.042  1.00  0.00    -0.432 C  
HETATM    8  C   UNL     1     -11.573  13.314  67.399  1.00  0.00    -0.396 C  
HETATM    9  C   UNL     1     -10.747  12.290  68.197  1.00  0.00    -0.216 C  
HETATM   10  C   UNL     1     -10.800  14.618  67.228  1.00  0.00    -0.305 A  
HETATM   11  C   UNL     1     -11.267  15.795  67.832  1.00  0.00    -0.313 A  
HETATM   12  C   UNL     1      -9.631  14.680  66.452  1.00  0.00    -0.323 A  
HETATM   13  C   UNL     1      -8.959  15.891  66.269  1.00  0.00    -0.381 A  
HETATM   14  C   UNL     1     -10.591  17.005  67.650  1.00  0.00    -0.333 A  
HETATM   15  C   UNL     1      -9.442  17.053  66.865  1.00  0.00    -0.266 A  
BRANCH   9  16
HETATM   16  O   UNL     1     -11.516  11.097  68.437  1.00  0.00    -0.262 OA 
BRANCH  16  17
HETATM   17  C   UNL     1     -10.849   9.926  68.350  1.00  0.00    -0.221 C  
HETATM   18  H2  UNL     1     -10.048  10.654  66.541  1.00  0.00     0.000 HD 
HETATM   19  O   UNL     1     -10.877   9.009  69.153  1.00  0.00    -0.193 OA 
HETATM   20  H1  UNL     1      -9.597   9.015  67.159  1.00  0.00     0.000 HD 
HETATM   21  N   UNL     1     -10.101   9.900  67.225  1.00  0.00    -0.199 N  
ENDBRANCH  16  17
ENDBRANCH   9  16
ENDBRANCH   6   7
ENDBRANCH   2   6
TORSDOF 4
ENDMDL
MODEL       21
REMARK 921   NORMALIZED FREE ENERGY PREDICTED BY IDOCK:   -5.24 KCAL/MOL
REMARK 922        TOTAL FREE ENERGY PREDICTED BY IDOCK:   -6.86 KCAL/MOL
REMARK 923 INTER-LIGAND FREE ENERGY PREDICTED BY IDOCK:   -6.43 KCAL/MOL
REMARK 924 INTRA-LIGAND FREE ENERGY PREDICTED BY IDOCK:   -0.43 KCAL/MOL
REMARK 927      BINDING AFFINITY PREDICTED BY RF-SCORE:    0.00 PKD
ROOT
HETATM    1  N   UNL     1      -9.557  17.531  68.362  1.00  0.00    -0.291 N  
HETATM    2  C   UNL     1      -8.699  16.673  68.954  1.00  0.00    -0.238 C  
HETATM    3  H2  UNL     1      -9.169  18.298  67.813  1.00  0.00     0.000 HD 
HETATM    4  H1  UNL     1     -10.571  17.455  68.435  1.00  0.00     0.000 HD 
HETATM    5  O   UNL     1      -7.486  16.764  68.867  1.00  0.00    -0.220 OA 
ENDROOT
BRANCH   2   6
HETATM    6  O   UNL     1      -9.388  15.718  69.612  1.00  0.00    -0.274 OA 
BRANCH   6   7
HETATM    7  C   UNL     1     -10.730  16.071  70.005  1.00  0.00    -0.328 C  
HETATM    8  C   UNL     1     -11.629  14.823  70.125  1.00  0.00    -0.338 C  
HETATM    9  C   UNL     1     -13.049  15.192  70.587  1.00  0.00    -0.337 C  
HETATM   10  C   UNL     1     -11.672  14.033  68.821  1.00  0.00    -0.388 A  
HETATM   11  C   UNL     1     -11.247  12.696  68.796  1.00  0.00    -0.325 A  
HETATM   12  C   UNL     1     -12.110  14.619  67.622  1.00  0.00    -0.216 A  
HETATM   13  C   UNL     1     -12.102  13.896  66.429  1.00  0.00    -0.489 A  
HETATM   14  C   UNL     1     -11.242  11.972  67.600  1.00  0.00    -0.343 A  
HETATM   15  C   UNL     1     -11.664  12.574  66.418  1.00  0.00    -0.458 A  
BRANCH   9  16
HETATM   16  O   UNL     1     -13.008  15.855  71.864  1.00  0.00    -0.453 OA 
BRANCH  16  17
HETATM   17  C   UNL     1     -13.071  15.061  72.955  1.00  0.00    -0.504 C  
HETATM   18  H2  UNL     1     -12.193  16.655  74.019  1.00  0.00     0.000 HD 
HETATM   19  O   UNL     1     -13.523  13.930  73.009  1.00  0.00    -0.637 OA 
HETATM   20  H1  UNL     1     -12.615  15.107  74.854  1.00  0.00     0.000 HD 
HETATM   21  N   UNL     1     -12.567  15.707  74.029  1.00  0.00    -0.592 N  
ENDBRANCH  16  17
ENDBRANCH   9  16
ENDBRANCH   6   7
ENDBRANCH   2   6
TORSDOF 4
ENDMDL
MODEL       22
REMARK 921   NORMALIZED FREE ENERGY PREDICTED BY IDOCK:   -5.23 KCAL/MOL
REMARK 922        TOTAL FREE ENERGY PREDICTED BY IDOCK:   -6.85 KCAL/MOL
REMARK 923 INTER-LIGAND FREE ENERGY PREDICTED BY IDOCK:   -6.41 KCAL/MOL
REMARK 924 INTRA-LIGAND FREE ENERGY PREDICTED BY IDOCK:   -0.44 KCAL/MOL
REMARK 927      BINDING AFFINITY PREDICTED BY RF-SCORE:    0.00 PKD
ROOT
HETATM    1  N   UNL     1     -11.350   9.925  69.500  1.00  0.00    -0.398 N  
HETATM    2  C   UNL     1     -11.355  10.380  68.229  1.00  0.00    -0.224 C  
HETATM    3  H2  UNL     1     -10.728   9.150  69.733  1.00  0.00     0.000 HD 
HETATM    4  H1  UNL     1     -11.934  10.313  70.240  1.00  0.00     0.000 HD 
HETATM    5  O   UNL     1     -10.656   9.915  67.343  1.00  0.00    -0.253 OA 
ENDROOT
BRANCH   2   6
HETATM    6  O   UNL     1     -12.215  11.413  68.116  1.00  0.00    -0.602 OA 
BRANCH   6   7
HETATM    7  C   UNL     1     -11.631  12.728  68.214  1.00  0.00    -0.334 C  
HETATM    8  C   UNL     1     -12.056  13.623  67.032  1.00  0.00    -0.423 C  
HETATM    9  C   UNL     1     -11.471  15.041  67.157  1.00  0.00    -0.297 C  
HETATM   10  C   UNL     1     -11.684  13.000  65.691  1.00  0.00    -0.418 A  
HETATM   11  C   UNL     1     -12.683  12.714  64.749  1.00  0.00    -0.460 A  
HETATM   12  C   UNL     1     -10.354  12.679  65.376  1.00  0.00    -0.311 A  
HETATM   13  C   UNL     1     -10.035  12.069  64.162  1.00  0.00    -0.289 A  
HETATM   14  C   UNL     1     -12.362  12.106  63.532  1.00  0.00    -0.682 A  
HETATM   15  C   UNL     1     -11.040  11.779  63.242  1.00  0.00    -0.370 A  
BRANCH   9  16
HETATM   16  O   UNL     1     -11.903  15.659  68.384  1.00  0.00    -0.346 OA 
BRANCH  16  17
HETATM   17  C   UNL     1     -10.990  16.418  69.028  1.00  0.00    -0.325 C  
HETATM   18  H2  UNL     1     -10.869  14.859  70.442  1.00  0.00     0.000 HD 
HETATM   19  O   UNL     1     -10.579  17.513  68.685  1.00  0.00    -0.350 OA 
HETATM   20  H1  UNL     1      -9.864  16.352  70.622  1.00  0.00     0.000 HD 
HETATM   21  N   UNL     1     -10.554  15.779  70.135  1.00  0.00    -0.328 N  
ENDBRANCH  16  17
ENDBRANCH   9  16
ENDBRANCH   6   7
ENDBRANCH   2   6
TORSDOF 4
ENDMDL
MODEL       23
REMARK 921   NORMALIZED FREE ENERGY PREDICTED BY IDOCK:   -5.23 KCAL/MOL
REMARK 922        TOTAL FREE ENERGY PREDICTED BY IDOCK:   -6.84 KCAL/MOL
REMARK 923 INTER-LIGAND FREE ENERGY PREDICTED BY IDOCK:   -6.45 KCAL/MOL
REMARK 924 INTRA-LIGAND FREE ENERGY PREDICTED BY IDOCK:   -0.40 KCAL/MOL
REMARK 927      BINDING AFFINITY PREDICTED BY RF-SCORE:    0.00 PKD
ROOT
HETATM    1  N   UNL     1     -10.909   8.629  67.612  1.00  0.00    -0.493 N  
HETATM    2  C   UNL     1     -10.594   9.931  67.447  1.00  0.00    -0.277 C  
HETATM    3  H2  UNL     1     -10.192   7.930  67.415  1.00  0.00     0.000 HD 
HETATM    4  H1  UNL     1     -11.825   8.305  67.921  1.00  0.00     0.000 HD 
HETATM    5  O   UNL     1      -9.498  10.318  67.077  1.00  0.00    -0.159 OA 
ENDROOT
BRANCH   2   6
HETATM    6  O   UNL     1     -11.651  10.702  67.774  1.00  0.00    -0.501 OA 
BRANCH   6   7
HETATM    7  C   UNL     1     -11.442  11.623  68.864  1.00  0.00    -0.287 C  
HETATM    8  C   UNL     1     -12.150  12.969  68.608  1.00  0.00    -0.189 C  
HETATM    9  C   UNL     1     -11.967  13.938  69.789  1.00  0.00    -0.338 C  
HETATM   10  C   UNL     1     -11.686  13.610  67.304  1.00  0.00    -0.416 A  
HETATM   11  C   UNL     1     -12.613  13.882  66.287  1.00  0.00    -0.376 A  
HETATM   12  C   UNL     1     -10.335  13.920  67.080  1.00  0.00    -0.265 A  
HETATM   13  C   UNL     1      -9.920  14.467  65.865  1.00  0.00    -0.350 A  
HETATM   14  C   UNL     1     -12.196  14.432  65.072  1.00  0.00    -0.418 A  
HETATM   15  C   UNL     1     -10.850  14.718  64.860  1.00  0.00    -0.433 A  
BRANCH   9  16
HETATM   16  O   UNL     1     -12.492  13.363  71.000  1.00  0.00    -0.362 OA 
BRANCH  16  17
HETATM   17  C   UNL     1     -13.385  14.113  71.682  1.00  0.00    -0.364 C  
HETATM   18  H2  UNL     1     -12.830  15.707  70.419  1.00  0.00     0.000 HD 
HETATM   19  O   UNL     1     -14.099  13.744  72.599  1.00  0.00    -0.715 OA 
HETATM   20  H1  UNL     1     -14.080  15.938  71.707  1.00  0.00     0.000 HD 
HETATM   21  N   UNL     1     -13.405  15.372  71.192  1.00  0.00    -0.503 N  
ENDBRANCH  16  17
ENDBRANCH   9  16
ENDBRANCH   6   7
ENDBRANCH   2   6
TORSDOF 4
ENDMDL
MODEL       24
REMARK 921   NORMALIZED FREE ENERGY PREDICTED BY IDOCK:   -5.15 KCAL/MOL
REMARK 922        TOTAL FREE ENERGY PREDICTED BY IDOCK:   -6.75 KCAL/MOL
REMARK 923 INTER-LIGAND FREE ENERGY PREDICTED BY IDOCK:   -6.47 KCAL/MOL
REMARK 924 INTRA-LIGAND FREE ENERGY PREDICTED BY IDOCK:   -0.28 KCAL/MOL
REMARK 927      BINDING AFFINITY PREDICTED BY RF-SCORE:    0.00 PKD
ROOT
HETATM    1  N   UNL     1     -13.139  11.971  63.804  1.00  0.00    -0.692 N  
HETATM    2  C   UNL     1     -12.638  13.106  64.334  1.00  0.00    -0.245 C  
HETATM    3  H2  UNL     1     -13.408  11.976  62.819  1.00  0.00     0.000 HD 
HETATM    4  H1  UNL     1     -13.264  11.108  64.332  1.00  0.00     0.000 HD 
HETATM    5  O   UNL     1     -12.489  14.138  63.701  1.00  0.00    -0.819 OA 
ENDROOT
BRANCH   2   6
HETATM    6  O   UNL     1     -12.319  12.904  65.629  1.00  0.00    -0.459 OA 
BRANCH   6   7
HETATM    7  C   UNL     1     -12.223  14.090  66.444  1.00  0.00    -0.460 C  
HETATM    8  C   UNL     1     -10.971  14.054  67.345  1.00  0.00    -0.302 C  
HETATM    9  C   UNL     1     -10.841  15.338  68.183  1.00  0.00    -0.273 C  
HETATM   10  C   UNL     1     -10.957  12.819  68.240  1.00  0.00    -0.278 A  
HETATM   11  C   UNL     1      -9.898  11.904  68.156  1.00  0.00    -0.192 A  
HETATM   12  C   UNL     1     -12.001  12.556  69.143  1.00  0.00    -0.287 A  
HETATM   13  C   UNL     1     -11.994  11.399  69.924  1.00  0.00    -0.434 A  
HETATM   14  C   UNL     1      -9.892  10.747  68.941  1.00  0.00    -0.209 A  
HETATM   15  C   UNL     1     -10.942  10.494  69.820  1.00  0.00    -0.350 A  
BRANCH   9  16
HETATM   16  O   UNL     1     -10.761  16.493  67.328  1.00  0.00    -0.313 OA 
BRANCH  16  17
HETATM   17  C   UNL     1     -10.518  17.674  67.936  1.00  0.00    -0.392 C  
HETATM   18  H2  UNL     1     -10.836  18.571  66.055  1.00  0.00     0.000 HD 
HETATM   19  O   UNL     1     -10.264  17.849  69.116  1.00  0.00    -0.354 OA 
HETATM   20  H1  UNL     1     -10.430  19.577  67.503  1.00  0.00     0.000 HD 
HETATM   21  N   UNL     1     -10.614  18.684  67.044  1.00  0.00    -0.407 N  
ENDBRANCH  16  17
ENDBRANCH   9  16
ENDBRANCH   6   7
ENDBRANCH   2   6
TORSDOF 4
ENDMDL
MODEL       25
REMARK 921   NORMALIZED FREE ENERGY PREDICTED BY IDOCK:   -5.14 KCAL/MOL
REMARK 922        TOTAL FREE ENERGY PREDICTED BY IDOCK:   -6.74 KCAL/MOL
REMARK 923 INTER-LIGAND FREE ENERGY PREDICTED BY IDOCK:   -6.41 KCAL/MOL
REMARK 924 INTRA-LIGAND FREE ENERGY PREDICTED BY IDOCK:   -0.32 KCAL/MOL
REMARK 927      BINDING AFFINITY PREDICTED BY RF-SCORE:    0.00 PKD
ROOT
HETATM    1  N   UNL     1     -10.480  11.936  69.388  1.00  0.00    -0.427 N  
HETATM    2  C   UNL     1     -11.663  12.037  68.746  1.00  0.00    -0.321 C  
HETATM    3  H2  UNL     1     -10.177  11.012  69.699  1.00  0.00     0.000 HD 
HETATM    4  H1  UNL     1      -9.871  12.731  69.578  1.00  0.00     0.000 HD 
HETATM    5  O   UNL     1     -12.390  11.084  68.518  1.00  0.00    -0.536 OA 
ENDROOT
BRANCH   2   6
HETATM    6  O   UNL     1     -11.883  13.319  68.392  1.00  0.00    -0.336 OA 
BRANCH   6   7
HETATM    7  C   UNL     1     -11.881  13.588  66.975  1.00  0.00    -0.402 C  
HETATM    8  C   UNL     1     -10.478  13.996  66.481  1.00  0.00    -0.281 C  
HETATM    9  C   UNL     1     -10.462  14.239  64.962  1.00  0.00    -0.435 C  
HETATM   10  C   UNL     1      -9.949  15.214  67.231  1.00  0.00    -0.230 A  
HETATM   11  C   UNL     1      -8.753  15.126  67.958  1.00  0.00    -0.165 A  
HETATM   12  C   UNL     1     -10.646  16.433  67.232  1.00  0.00    -0.293 A  
HETATM   13  C   UNL     1     -10.171  17.526  67.958  1.00  0.00    -0.354 A  
HETATM   14  C   UNL     1      -8.277  16.222  68.682  1.00  0.00    -0.214 A  
HETATM   15  C   UNL     1      -8.989  17.419  68.687  1.00  0.00    -0.255 A  
BRANCH   9  16
HETATM   16  O   UNL     1     -10.873  13.054  64.256  1.00  0.00    -0.363 OA 
BRANCH  16  17
HETATM   17  C   UNL     1     -12.036  13.134  63.574  1.00  0.00    -0.514 C  
HETATM   18  H2  UNL     1     -12.040  11.027  63.567  1.00  0.00     0.000 HD 
HETATM   19  O   UNL     1     -12.622  14.153  63.249  1.00  0.00    -0.766 OA 
HETATM   20  H1  UNL     1     -13.379  11.957  62.784  1.00  0.00     0.000 HD 
HETATM   21  N   UNL     1     -12.500  11.896  63.299  1.00  0.00    -0.519 N  
ENDBRANCH  16  17
ENDBRANCH   9  16
ENDBRANCH   6   7
ENDBRANCH   2   6
TORSDOF 4
ENDMDL
MODEL       26
REMARK 921   NORMALIZED FREE ENERGY PREDICTED BY IDOCK:   -5.13 KCAL/MOL
REMARK 922        TOTAL FREE ENERGY PREDICTED BY IDOCK:   -6.73 KCAL/MOL
REMARK 923 INTER-LIGAND FREE ENERGY PREDICTED BY IDOCK:   -6.37 KCAL/MOL
REMARK 924 INTRA-LIGAND FREE ENERGY PREDICTED BY IDOCK:   -0.36 KCAL/MOL
REMARK 927      BINDING AFFINITY PREDICTED BY RF-SCORE:    0.00 PKD
ROOT
HETATM    1  N   UNL     1     -10.898  16.684  69.411  1.00  0.00    -0.318 N  
HETATM    2  C   UNL     1     -11.465  15.820  70.280  1.00  0.00    -0.359 C  
HETATM    3  H2  UNL     1     -10.974  17.683  69.605  1.00  0.00     0.000 HD 
HETATM    4  H1  UNL     1     -10.398  16.393  68.572  1.00  0.00     0.000 HD 
HETATM    5  O   UNL     1     -12.063  16.169  71.284  1.00  0.00    -0.414 OA 
ENDROOT
BRANCH   2   6
HETATM    6  O   UNL     1     -11.242  14.552  69.876  1.00  0.00    -0.248 OA 
BRANCH   6   7
HETATM    7  C   UNL     1     -11.200  14.347  68.449  1.00  0.00    -0.273 C  
HETATM    8  C   UNL     1     -11.904  13.034  68.048  1.00  0.00    -0.391 C  
HETATM    9  C   UNL     1     -11.901  12.835  66.522  1.00  0.00    -0.405 C  
HETATM   10  C   UNL     1     -11.292  11.829  68.754  1.00  0.00    -0.325 A  
HETATM   11  C   UNL     1     -12.086  11.024  69.584  1.00  0.00    -0.411 A  
HETATM   12  C   UNL     1      -9.931  11.510  68.612  1.00  0.00    -0.207 A  
HETATM   13  C   UNL     1      -9.377  10.429  69.299  1.00  0.00    -0.202 A  
HETATM   14  C   UNL     1     -11.529   9.940  70.268  1.00  0.00    -0.349 A  
HETATM   15  C   UNL     1     -10.175   9.647  70.130  1.00  0.00    -0.313 A  
BRANCH   9  16
HETATM   16  O   UNL     1     -12.564  13.932  65.868  1.00  0.00    -0.478 OA 
BRANCH  16  17
HETATM   17  C   UNL     1     -12.045  14.328  64.685  1.00  0.00    -0.463 C  
HETATM   18  H2  UNL     1     -10.168  14.324  65.644  1.00  0.00     0.000 HD 
HETATM   19  O   UNL     1     -12.656  14.513  63.646  1.00  0.00    -0.798 OA 
HETATM   20  H1  UNL     1     -10.315  14.781  63.900  1.00  0.00     0.000 HD 
HETATM   21  N   UNL     1     -10.708  14.482  64.793  1.00  0.00    -0.417 N  
ENDBRANCH  16  17
ENDBRANCH   9  16
ENDBRANCH   6   7
ENDBRANCH   2   6
TORSDOF 4
ENDMDL
MODEL       27
REMARK 921   NORMALIZED FREE ENERGY PREDICTED BY IDOCK:   -5.12 KCAL/MOL
REMARK 922        TOTAL FREE ENERGY PREDICTED BY IDOCK:   -6.72 KCAL/MOL
REMARK 923 INTER-LIGAND FREE ENERGY PREDICTED BY IDOCK:   -6.21 KCAL/MOL
REMARK 924 INTRA-LIGAND FREE ENERGY PREDICTED BY IDOCK:   -0.51 KCAL/MOL
REMARK 927      BINDING AFFINITY PREDICTED BY RF-SCORE:    0.00 PKD
ROOT
HETATM    1  N   UNL     1      -7.152  15.595  68.491  1.00  0.00    -0.113 N  
HETATM    2  C   UNL     1      -6.895  15.919  67.206  1.00  0.00    -0.197 C  
HETATM    3  H2  UNL     1      -6.416  15.742  69.182  1.00  0.00     0.000 HD 
HETATM    4  H1  UNL     1      -8.042  15.211  68.808  1.00  0.00     0.000 HD 
HETATM    5  O   UNL     1      -5.830  16.378  66.826  1.00  0.00    -0.336 OA 
ENDROOT
BRANCH   2   6
HETATM    6  O   UNL     1      -7.984  15.680  66.447  1.00  0.00    -0.168 OA 
BRANCH   6   7
HETATM    7  C   UNL     1      -9.118  15.119  67.137  1.00  0.00    -0.211 C  
HETATM    8  C   UNL     1     -10.428  15.832  66.743  1.00  0.00    -0.305 C  
HETATM    9  C   UNL     1     -11.646  15.206  67.443  1.00  0.00    -0.240 C  
HETATM   10  C   UNL     1     -10.357  17.331  67.016  1.00  0.00    -0.318 A  
HETATM   11  C   UNL     1     -10.522  18.245  65.965  1.00  0.00    -0.380 A  
HETATM   12  C   UNL     1     -10.105  17.830  68.305  1.00  0.00    -0.371 A  
HETATM   13  C   UNL     1     -10.000  19.203  68.531  1.00  0.00    -0.496 A  
HETATM   14  C   UNL     1     -10.419  19.620  66.194  1.00  0.00    -0.624 A  
HETATM   15  C   UNL     1     -10.152  20.097  67.475  1.00  0.00    -0.549 A  
BRANCH   9  16
HETATM   16  O   UNL     1     -11.761  13.811  67.105  1.00  0.00    -0.342 OA 
BRANCH  16  17
HETATM   17  C   UNL     1     -12.223  13.530  65.867  1.00  0.00    -0.460 C  
HETATM   18  H2  UNL     1     -10.670  12.110  65.742  1.00  0.00     0.000 HD 
HETATM   19  O   UNL     1     -13.183  14.038  65.314  1.00  0.00    -0.782 OA 
HETATM   20  H1  UNL     1     -11.819  12.349  64.365  1.00  0.00     0.000 HD 
HETATM   21  N   UNL     1     -11.470  12.562  65.300  1.00  0.00    -0.320 N  
ENDBRANCH  16  17
ENDBRANCH   9  16
ENDBRANCH   6   7
ENDBRANCH   2   6
TORSDOF 4
ENDMDL
MODEL       28
REMARK 921   NORMALIZED FREE ENERGY PREDICTED BY IDOCK:   -5.11 KCAL/MOL
REMARK 922        TOTAL FREE ENERGY PREDICTED BY IDOCK:   -6.70 KCAL/MOL
REMARK 923 INTER-LIGAND FREE ENERGY PREDICTED BY IDOCK:   -6.31 KCAL/MOL
REMARK 924 INTRA-LIGAND FREE ENERGY PREDICTED BY IDOCK:   -0.40 KCAL/MOL
REMARK 927      BINDING AFFINITY PREDICTED BY RF-SCORE:    0.00 PKD
ROOT
HETATM    1  N   UNL     1      -8.440  16.242  66.081  1.00  0.00    -0.327 N  
HETATM    2  C   UNL     1      -9.016  15.994  67.276  1.00  0.00    -0.197 C  
HETATM    3  H2  UNL     1      -8.324  17.214  65.793  1.00  0.00     0.000 HD 
HETATM    4  H1  UNL     1      -8.115  15.510  65.449  1.00  0.00     0.000 HD 
HETATM    5  O   UNL     1      -9.405  16.869  68.032  1.00  0.00    -0.230 OA 
ENDROOT
BRANCH   2   6
HETATM    6  O   UNL     1      -9.063  14.664  67.495  1.00  0.00    -0.180 OA 
BRANCH   6   7
HETATM    7  C   UNL     1      -9.961  13.920  66.646  1.00  0.00    -0.279 C  
HETATM    8  C   UNL     1     -11.428  14.337  66.877  1.00  0.00    -0.377 C  
HETATM    9  C   UNL     1     -12.385  13.578  65.941  1.00  0.00    -0.456 C  
HETATM   10  C   UNL     1     -11.842  14.161  68.334  1.00  0.00    -0.388 A  
HETATM   11  C   UNL     1     -12.285  15.265  69.077  1.00  0.00    -0.158 A  
HETATM   12  C   UNL     1     -11.768  12.911  68.971  1.00  0.00    -0.375 A  
HETATM   13  C   UNL     1     -12.109  12.775  70.317  1.00  0.00    -0.373 A  
HETATM   14  C   UNL     1     -12.629  15.126  70.424  1.00  0.00    -0.405 A  
HETATM   15  C   UNL     1     -12.535  13.883  71.044  1.00  0.00    -0.452 A  
BRANCH   9  16
HETATM   16  O   UNL     1     -12.046  13.824  64.564  1.00  0.00    -0.398 OA 
BRANCH  16  17
HETATM   17  C   UNL     1     -12.016  12.746  63.751  1.00  0.00    -0.510 C  
HETATM   18  H2  UNL     1      -9.920  12.963  63.739  1.00  0.00     0.000 HD 
HETATM   19  O   UNL     1     -12.974  12.098  63.363  1.00  0.00    -0.776 OA 
HETATM   20  H1  UNL     1     -10.718  11.634  62.808  1.00  0.00     0.000 HD 
HETATM   21  N   UNL     1     -10.741  12.448  63.422  1.00  0.00    -0.425 N  
ENDBRANCH  16  17
ENDBRANCH   9  16
ENDBRANCH   6   7
ENDBRANCH   2   6
TORSDOF 4
ENDMDL
MODEL       29
REMARK 921   NORMALIZED FREE ENERGY PREDICTED BY IDOCK:   -5.09 KCAL/MOL
REMARK 922        TOTAL FREE ENERGY PREDICTED BY IDOCK:   -6.68 KCAL/MOL
REMARK 923 INTER-LIGAND FREE ENERGY PREDICTED BY IDOCK:   -6.24 KCAL/MOL
REMARK 924 INTRA-LIGAND FREE ENERGY PREDICTED BY IDOCK:   -0.44 KCAL/MOL
REMARK 927      BINDING AFFINITY PREDICTED BY RF-SCORE:    0.00 PKD
ROOT
HETATM    1  N   UNL     1     -12.493  13.832  63.067  1.00  0.00    -1.000 N  
HETATM    2  C   UNL     1     -12.278  14.048  64.382  1.00  0.00    -0.426 C  
HETATM    3  H2  UNL     1     -13.444  13.628  62.760  1.00  0.00     0.000 HD 
HETATM    4  H1  UNL     1     -11.756  13.861  62.363  1.00  0.00     0.000 HD 
HETATM    5  O   UNL     1     -13.160  14.013  65.224  1.00  0.00    -0.782 OA 
ENDROOT
BRANCH   2   6
HETATM    6  O   UNL     1     -10.975  14.324  64.594  1.00  0.00    -0.391 OA 
BRANCH   6   7
HETATM    7  C   UNL     1     -10.685  15.128  65.755  1.00  0.00    -0.351 C  
HETATM    8  C   UNL     1      -9.597  14.477  66.634  1.00  0.00    -0.291 C  
HETATM    9  C   UNL     1      -9.253  15.354  67.850  1.00  0.00    -0.180 C  
HETATM   10  C   UNL     1      -9.995  13.072  67.074  1.00  0.00    -0.242 A  
HETATM   11  C   UNL     1      -9.194  11.974  66.728  1.00  0.00    -0.201 A  
HETATM   12  C   UNL     1     -11.170  12.839  67.808  1.00  0.00    -0.317 A  
HETATM   13  C   UNL     1     -11.543  11.543  68.166  1.00  0.00    -0.378 A  
HETATM   14  C   UNL     1      -9.567  10.677  67.091  1.00  0.00    -0.189 A  
HETATM   15  C   UNL     1     -10.744  10.462  67.804  1.00  0.00    -0.327 A  
BRANCH   9  16
HETATM   16  O   UNL     1      -8.788  16.648  67.424  1.00  0.00    -0.186 OA 
BRANCH  16  17
HETATM   17  C   UNL     1      -9.221  17.708  68.141  1.00  0.00    -0.282 C  
HETATM   18  H2  UNL     1     -11.121  16.796  68.115  1.00  0.00     0.000 HD 
HETATM   19  O   UNL     1      -8.551  18.652  68.524  1.00  0.00    -0.330 OA 
HETATM   20  H1  UNL     1     -10.865  18.379  68.953  1.00  0.00     0.000 HD 
HETATM   21  N   UNL     1     -10.538  17.579  68.411  1.00  0.00    -0.365 N  
ENDBRANCH  16  17
ENDBRANCH   9  16
ENDBRANCH   6   7
ENDBRANCH   2   6
TORSDOF 4
ENDMDL
MODEL       30
REMARK 921   NORMALIZED FREE ENERGY PREDICTED BY IDOCK:   -5.09 KCAL/MOL
REMARK 922        TOTAL FREE ENERGY PREDICTED BY IDOCK:   -6.67 KCAL/MOL
REMARK 923 INTER-LIGAND FREE ENERGY PREDICTED BY IDOCK:   -6.34 KCAL/MOL
REMARK 924 INTRA-LIGAND FREE ENERGY PREDICTED BY IDOCK:   -0.34 KCAL/MOL
REMARK 927      BINDING AFFINITY PREDICTED BY RF-SCORE:    0.00 PKD
ROOT
HETATM    1  N   UNL     1      -7.615  16.316  68.976  1.00  0.00    -0.210 N  
HETATM    2  C   UNL     1      -8.944  16.430  69.181  1.00  0.00    -0.197 C  
HETATM    3  H2  UNL     1      -7.106  17.135  68.642  1.00  0.00     0.000 HD 
HETATM    4  H1  UNL     1      -7.091  15.456  69.137  1.00  0.00     0.000 HD 
HETATM    5  O   UNL     1      -9.570  17.459  68.989  1.00  0.00    -0.247 OA 
ENDROOT
BRANCH   2   6
HETATM    6  O   UNL     1      -9.438  15.262  69.642  1.00  0.00    -0.237 OA 
BRANCH   6   7
HETATM    7  C   UNL     1     -10.046  14.406  68.654  1.00  0.00    -0.242 C  
HETATM    8  C   UNL     1     -11.565  14.658  68.549  1.00  0.00    -0.346 C  
HETATM    9  C   UNL     1     -12.210  13.777  67.464  1.00  0.00    -0.227 C  
HETATM   10  C   UNL     1     -12.263  14.463  69.891  1.00  0.00    -0.394 A  
HETATM   11  C   UNL     1     -12.972  15.523  70.473  1.00  0.00    -0.339 A  
HETATM   12  C   UNL     1     -12.195  13.241  70.581  1.00  0.00    -0.417 A  
HETATM   13  C   UNL     1     -12.803  13.093  71.829  1.00  0.00    -0.358 A  
HETATM   14  C   UNL     1     -13.582  15.371  71.722  1.00  0.00    -0.596 A  
HETATM   15  C   UNL     1     -13.492  14.159  72.400  1.00  0.00    -0.616 A  
BRANCH   9  16
HETATM   16  O   UNL     1     -11.609  14.035  66.182  1.00  0.00    -0.342 OA 
BRANCH  16  17
HETATM   17  C   UNL     1     -12.084  13.316  65.141  1.00  0.00    -0.413 C  
HETATM   18  H2  UNL     1     -10.202  13.605  64.237  1.00  0.00     0.000 HD 
HETATM   19  O   UNL     1     -13.191  12.811  65.048  1.00  0.00    -0.768 OA 
HETATM   20  H1  UNL     1     -11.498  12.662  63.397  1.00  0.00     0.000 HD 
HETATM   21  N   UNL     1     -11.139  13.205  64.183  1.00  0.00    -0.391 N  
ENDBRANCH  16  17
ENDBRANCH   9  16
ENDBRANCH   6   7
ENDBRANCH   2   6
TORSDOF 4
ENDMDL
MODEL       31
REMARK 921   NORMALIZED FREE ENERGY PREDICTED BY IDOCK:   -5.08 KCAL/MOL
REMARK 922        TOTAL FREE ENERGY PREDICTED BY IDOCK:   -6.67 KCAL/MOL
REMARK 923 INTER-LIGAND FREE ENERGY PREDICTED BY IDOCK:   -6.24 KCAL/MOL
REMARK 924 INTRA-LIGAND FREE ENERGY PREDICTED BY IDOCK:   -0.42 KCAL/MOL
REMARK 927      BINDING AFFINITY PREDICTED BY RF-SCORE:    0.00 PKD
ROOT
HETATM    1  N   UNL     1     -11.464   9.276  69.935  1.00  0.00    -0.437 N  
HETATM    2  C   UNL     1     -11.531  10.624  69.954  1.00  0.00    -0.317 C  
HETATM    3  H2  UNL     1     -11.872   8.762  70.717  1.00  0.00     0.000 HD 
HETATM    4  H1  UNL     1     -11.029   8.743  69.183  1.00  0.00     0.000 HD 
HETATM    5  O   UNL     1     -12.053  11.261  70.855  1.00  0.00    -0.348 OA 
ENDROOT
BRANCH   2   6
HETATM    6  O   UNL     1     -10.967  11.126  68.836  1.00  0.00    -0.194 OA 
BRANCH   6   7
HETATM    7  C   UNL     1     -11.884  11.597  67.828  1.00  0.00    -0.176 C  
HETATM    8  C   UNL     1     -11.439  12.959  67.255  1.00  0.00    -0.388 C  
HETATM    9  C   UNL     1     -12.390  13.443  66.147  1.00  0.00    -0.380 C  
HETATM   10  C   UNL     1     -11.300  14.012  68.349  1.00  0.00    -0.321 A  
HETATM   11  C   UNL     1     -10.065  14.642  68.564  1.00  0.00    -0.238 A  
HETATM   12  C   UNL     1     -12.382  14.359  69.174  1.00  0.00    -0.156 A  
HETATM   13  C   UNL     1     -12.227  15.294  70.199  1.00  0.00    -0.402 A  
HETATM   14  C   UNL     1      -9.913  15.579  69.589  1.00  0.00    -0.287 A  
HETATM   15  C   UNL     1     -10.992  15.900  70.409  1.00  0.00    -0.361 A  
BRANCH   9  16
HETATM   16  O   UNL     1     -12.444  12.486  65.073  1.00  0.00    -0.523 OA 
BRANCH  16  17
HETATM   17  C   UNL     1     -12.053  12.925  63.857  1.00  0.00    -0.480 C  
HETATM   18  H2  UNL     1     -10.510  11.493  63.969  1.00  0.00     0.000 HD 
HETATM   19  O   UNL     1     -12.583  13.799  63.192  1.00  0.00    -0.793 OA 
HETATM   20  H1  UNL     1     -10.672  12.567  62.523  1.00  0.00     0.000 HD 
HETATM   21  N   UNL     1     -10.968  12.236  63.442  1.00  0.00    -0.441 N  
ENDBRANCH  16  17
ENDBRANCH   9  16
ENDBRANCH   6   7
ENDBRANCH   2   6
TORSDOF 4
ENDMDL
MODEL       32
REMARK 921   NORMALIZED FREE ENERGY PREDICTED BY IDOCK:   -5.06 KCAL/MOL
REMARK 922        TOTAL FREE ENERGY PREDICTED BY IDOCK:   -6.64 KCAL/MOL
REMARK 923 INTER-LIGAND FREE ENERGY PREDICTED BY IDOCK:   -6.23 KCAL/MOL
REMARK 924 INTRA-LIGAND FREE ENERGY PREDICTED BY IDOCK:   -0.42 KCAL/MOL
REMARK 927      BINDING AFFINITY PREDICTED BY RF-SCORE:    0.00 PKD
ROOT
HETATM    1  N   UNL     1     -11.801  15.132  63.947  1.00  0.00    -0.854 N  
HETATM    2  C   UNL     1     -11.335  16.161  64.686  1.00  0.00    -0.282 C  
HETATM    3  H2  UNL     1     -12.216  15.339  63.038  1.00  0.00     0.000 HD 
HETATM    4  H1  UNL     1     -11.762  14.158  64.248  1.00  0.00     0.000 HD 
HETATM    5  O   UNL     1     -11.381  17.325  64.326  1.00  0.00    -1.027 OA 
ENDROOT
BRANCH   2   6
HETATM    6  O   UNL     1     -10.805  15.695  65.836  1.00  0.00    -0.326 OA 
BRANCH   6   7
HETATM    7  C   UNL     1      -9.370  15.554  65.854  1.00  0.00    -0.319 C  
HETATM    8  C   UNL     1      -8.757  16.197  67.115  1.00  0.00    -0.216 C  
HETATM    9  C   UNL     1      -7.230  16.009  67.160  1.00  0.00    -0.222 C  
HETATM   10  C   UNL     1      -9.125  17.673  67.231  1.00  0.00    -0.237 A  
HETATM   11  C   UNL     1      -9.826  18.135  68.354  1.00  0.00    -0.380 A  
HETATM   12  C   UNL     1      -8.796  18.591  66.220  1.00  0.00    -0.221 A  
HETATM   13  C   UNL     1      -9.178  19.930  66.322  1.00  0.00    -0.457 A  
HETATM   14  C   UNL     1     -10.205  19.476  68.454  1.00  0.00    -0.536 A  
HETATM   15  C   UNL     1      -9.886  20.371  67.436  1.00  0.00    -0.587 A  
BRANCH   9  16
HETATM   16  O   UNL     1      -6.893  14.609  67.145  1.00  0.00    -0.225 OA 
BRANCH  16  17
HETATM   17  C   UNL     1      -6.435  14.090  68.304  1.00  0.00    -0.116 C  
HETATM   18  H2  UNL     1      -5.086  12.972  67.132  1.00  0.00     0.000 HD 
HETATM   19  O   UNL     1      -6.823  14.360  69.428  1.00  0.00    -0.123 OA 
HETATM   20  H1  UNL     1      -5.094  12.818  68.934  1.00  0.00     0.000 HD 
HETATM   21  N   UNL     1      -5.441  13.210  68.058  1.00  0.00    -0.098 N  
ENDBRANCH  16  17
ENDBRANCH   9  16
ENDBRANCH   6   7
ENDBRANCH   2   6
TORSDOF 4
ENDMDL
MODEL       33
REMARK 921   NORMALIZED FREE ENERGY PREDICTED BY IDOCK:   -5.00 KCAL/MOL
REMARK 922        TOTAL FREE ENERGY PREDICTED BY IDOCK:   -6.56 KCAL/MOL
REMARK 923 INTER-LIGAND FREE ENERGY PREDICTED BY IDOCK:   -6.17 KCAL/MOL
REMARK 924 INTRA-LIGAND FREE ENERGY PREDICTED BY IDOCK:   -0.39 KCAL/MOL
REMARK 927      BINDING AFFINITY PREDICTED BY RF-SCORE:    0.00 PKD
ROOT
HETATM    1  N   UNL     1      -7.033  15.190  68.764  1.00  0.00    -0.106 N  
HETATM    2  C   UNL     1      -8.225  14.606  68.520  1.00  0.00    -0.152 C  
HETATM    3  H2  UNL     1      -6.203  14.596  68.802  1.00  0.00     0.000 HD 
HETATM    4  H1  UNL     1      -6.915  16.191  68.914  1.00  0.00     0.000 HD 
HETATM    5  O   UNL     1      -8.365  13.407  68.341  1.00  0.00    -0.159 OA 
ENDROOT
BRANCH   2   6
HETATM    6  O   UNL     1      -9.194  15.543  68.484  1.00  0.00    -0.185 OA 
BRANCH   6   7
HETATM    7  C   UNL     1     -10.178  15.388  67.440  1.00  0.00    -0.249 C  
HETATM    8  C   UNL     1      -9.826  16.240  66.203  1.00  0.00    -0.358 C  
HETATM    9  C   UNL     1     -10.849  16.043  65.071  1.00  0.00    -0.404 C  
HETATM   10  C   UNL     1      -9.687  17.718  66.558  1.00  0.00    -0.324 A  
HETATM   11  C   UNL     1      -8.476  18.385  66.325  1.00  0.00    -0.218 A  
HETATM   12  C   UNL     1     -10.746  18.434  67.139  1.00  0.00    -0.366 A  
HETATM   13  C   UNL     1     -10.589  19.774  67.498  1.00  0.00    -0.544 A  
HETATM   14  C   UNL     1      -8.322  19.727  66.682  1.00  0.00    -0.360 A  
HETATM   15  C   UNL     1      -9.376  20.418  67.272  1.00  0.00    -0.547 A  
BRANCH   9  16
HETATM   16  O   UNL     1     -10.906  14.660  64.678  1.00  0.00    -0.385 OA 
BRANCH  16  17
HETATM   17  C   UNL     1     -12.134  14.158  64.425  1.00  0.00    -0.463 C  
HETATM   18  H2  UNL     1     -12.506  14.347  66.491  1.00  0.00     0.000 HD 
HETATM   19  O   UNL     1     -12.580  13.833  63.337  1.00  0.00    -0.842 OA 
HETATM   20  H1  UNL     1     -13.774  13.694  65.378  1.00  0.00     0.000 HD 
HETATM   21  N   UNL     1     -12.846  14.073  65.569  1.00  0.00    -0.507 N  
ENDBRANCH  16  17
ENDBRANCH   9  16
ENDBRANCH   6   7
ENDBRANCH   2   6
TORSDOF 4
ENDMDL
MODEL       34
REMARK 921   NORMALIZED FREE ENERGY PREDICTED BY IDOCK:   -4.97 KCAL/MOL
REMARK 922        TOTAL FREE ENERGY PREDICTED BY IDOCK:   -6.53 KCAL/MOL
REMARK 923 INTER-LIGAND FREE ENERGY PREDICTED BY IDOCK:   -6.17 KCAL/MOL
REMARK 924 INTRA-LIGAND FREE ENERGY PREDICTED BY IDOCK:   -0.36 KCAL/MOL
REMARK 927      BINDING AFFINITY PREDICTED BY RF-SCORE:    0.00 PKD
ROOT
HETATM    1  N   UNL     1     -10.117  10.413  62.354  1.00  0.00    -0.717 N  
HETATM    2  C   UNL     1      -9.418  10.473  63.507  1.00  0.00    -0.312 C  
HETATM    3  H2  UNL     1      -9.598  10.379  61.476  1.00  0.00     0.000 HD 
HETATM    4  H1  UNL     1     -11.136  10.400  62.312  1.00  0.00     0.000 HD 
HETATM    5  O   UNL     1      -8.199  10.489  63.557  1.00  0.00    -0.155 OA 
ENDROOT
BRANCH   2   6
HETATM    6  O   UNL     1     -10.266  10.487  64.556  1.00  0.00    -0.348 OA 
BRANCH   6   7
HETATM    7  C   UNL     1     -10.994  11.715  64.758  1.00  0.00    -0.289 C  
HETATM    8  C   UNL     1     -10.338  12.586  65.849  1.00  0.00    -0.284 C  
HETATM    9  C   UNL     1     -11.086  13.918  66.035  1.00  0.00    -0.289 C  
HETATM   10  C   UNL     1     -10.223  11.839  67.173  1.00  0.00    -0.236 A  
HETATM   11  C   UNL     1      -8.965  11.633  67.757  1.00  0.00    -0.170 A  
HETATM   12  C   UNL     1     -11.357  11.324  67.824  1.00  0.00    -0.354 A  
HETATM   13  C   UNL     1     -11.231  10.605  69.014  1.00  0.00    -0.324 A  
HETATM   14  C   UNL     1      -8.842  10.915  68.949  1.00  0.00    -0.143 A  
HETATM   15  C   UNL     1      -9.973  10.397  69.573  1.00  0.00    -0.229 A  
BRANCH   9  16
HETATM   16  O   UNL     1     -11.109  14.661  64.802  1.00  0.00    -0.383 OA 
BRANCH  16  17
HETATM   17  C   UNL     1     -10.932  15.997  64.903  1.00  0.00    -0.384 C  
HETATM   18  H2  UNL     1      -9.701  15.587  66.565  1.00  0.00     0.000 HD 
HETATM   19  O   UNL     1     -11.403  16.852  64.174  1.00  0.00    -1.208 OA 
HETATM   20  H1  UNL     1      -9.986  17.289  66.021  1.00  0.00     0.000 HD 
HETATM   21  N   UNL     1     -10.120  16.280  65.945  1.00  0.00    -0.344 N  
ENDBRANCH  16  17
ENDBRANCH   9  16
ENDBRANCH   6   7
ENDBRANCH   2   6
TORSDOF 4
ENDMDL
MODEL       35
REMARK 921   NORMALIZED FREE ENERGY PREDICTED BY IDOCK:   -4.97 KCAL/MOL
REMARK 922        TOTAL FREE ENERGY PREDICTED BY IDOCK:   -6.52 KCAL/MOL
REMARK 923 INTER-LIGAND FREE ENERGY PREDICTED BY IDOCK:   -6.24 KCAL/MOL
REMARK 924 INTRA-LIGAND FREE ENERGY PREDICTED BY IDOCK:   -0.28 KCAL/MOL
REMARK 927      BINDING AFFINITY PREDICTED BY RF-SCORE:    0.00 PKD
ROOT
HETATM    1  N   UNL     1     -11.933  13.793  70.629  1.00  0.00    -0.472 N  
HETATM    2  C   UNL     1     -11.546  14.707  69.715  1.00  0.00    -0.296 C  
HETATM    3  H2  UNL     1     -12.340  14.127  71.504  1.00  0.00     0.000 HD 
HETATM    4  H1  UNL     1     -11.840  12.786  70.495  1.00  0.00     0.000 HD 
HETATM    5  O   UNL     1     -11.657  15.911  69.876  1.00  0.00    -0.321 OA 
ENDROOT
BRANCH   2   6
HETATM    6  O   UNL     1     -11.057  14.083  68.623  1.00  0.00    -0.243 OA 
BRANCH   6   7
HETATM    7  C   UNL     1     -11.861  14.186  67.430  1.00  0.00    -0.413 C  
HETATM    8  C   UNL     1     -10.983  14.361  66.174  1.00  0.00    -0.320 C  
HETATM    9  C   UNL     1     -11.835  14.426  64.894  1.00  0.00    -0.417 C  
HETATM   10  C   UNL     1     -10.078  15.584  66.284  1.00  0.00    -0.312 A  
HETATM   11  C   UNL     1      -8.685  15.434  66.215  1.00  0.00    -0.240 A  
HETATM   12  C   UNL     1     -10.606  16.871  66.479  1.00  0.00    -0.185 A  
HETATM   13  C   UNL     1      -9.763  17.974  66.622  1.00  0.00    -0.332 A  
HETATM   14  C   UNL     1      -7.843  16.541  66.356  1.00  0.00    -0.324 A  
HETATM   15  C   UNL     1      -8.382  17.807  66.565  1.00  0.00    -0.294 A  
BRANCH   9  16
HETATM   16  O   UNL     1     -12.618  13.226  64.747  1.00  0.00    -0.577 OA 
BRANCH  16  17
HETATM   17  C   UNL     1     -12.329  12.448  63.681  1.00  0.00    -0.548 C  
HETATM   18  H2  UNL     1     -10.311  12.968  63.999  1.00  0.00     0.000 HD 
HETATM   19  O   UNL     1     -13.121  11.807  63.010  1.00  0.00    -0.508 OA 
HETATM   20  H1  UNL     1     -10.781  11.865  62.645  1.00  0.00     0.000 HD 
HETATM   21  N   UNL     1     -10.999  12.453  63.450  1.00  0.00    -0.443 N  
ENDBRANCH  16  17
ENDBRANCH   9  16
ENDBRANCH   6   7
ENDBRANCH   2   6
TORSDOF 4
ENDMDL
MODEL       36
REMARK 921   NORMALIZED FREE ENERGY PREDICTED BY IDOCK:   -4.96 KCAL/MOL
REMARK 922        TOTAL FREE ENERGY PREDICTED BY IDOCK:   -6.52 KCAL/MOL
REMARK 923 INTER-LIGAND FREE ENERGY PREDICTED BY IDOCK:   -6.20 KCAL/MOL
REMARK 924 INTRA-LIGAND FREE ENERGY PREDICTED BY IDOCK:   -0.32 KCAL/MOL
REMARK 927      BINDING AFFINITY PREDICTED BY RF-SCORE:    0.00 PKD
ROOT
HETATM    1  N   UNL     1     -10.087  17.922  66.257  1.00  0.00    -0.355 N  
HETATM    2  C   UNL     1     -10.328  17.548  67.531  1.00  0.00    -0.356 C  
HETATM    3  H2  UNL     1     -10.024  18.920  66.051  1.00  0.00     0.000 HD 
HETATM    4  H1  UNL     1      -9.966  17.263  65.489  1.00  0.00     0.000 HD 
HETATM    5  O   UNL     1     -10.474  18.336  68.450  1.00  0.00    -0.352 OA 
ENDROOT
BRANCH   2   6
HETATM    6  O   UNL     1     -10.354  16.202  67.615  1.00  0.00    -0.273 OA 
BRANCH   6   7
HETATM    7  C   UNL     1     -11.342  15.648  68.508  1.00  0.00    -0.360 C  
HETATM    8  C   UNL     1     -11.224  14.112  68.596  1.00  0.00    -0.291 C  
HETATM    9  C   UNL     1     -12.247  13.522  69.582  1.00  0.00    -0.247 C  
HETATM   10  C   UNL     1     -11.353  13.458  67.224  1.00  0.00    -0.348 A  
HETATM   11  C   UNL     1     -10.305  12.674  66.719  1.00  0.00    -0.246 A  
HETATM   12  C   UNL     1     -12.498  13.638  66.431  1.00  0.00    -0.377 A  
HETATM   13  C   UNL     1     -12.582  13.068  65.160  1.00  0.00    -0.530 A  
HETATM   14  C   UNL     1     -10.393  12.102  65.447  1.00  0.00    -0.301 A  
HETATM   15  C   UNL     1     -11.528  12.304  64.667  1.00  0.00    -0.392 A  
BRANCH   9  16
HETATM   16  O   UNL     1     -12.059  14.076  70.897  1.00  0.00    -0.333 OA 
BRANCH  16  17
HETATM   17  C   UNL     1     -13.175  14.473  71.546  1.00  0.00    -0.358 C  
HETATM   18  H2  UNL     1     -13.121  12.610  72.531  1.00  0.00     0.000 HD 
HETATM   19  O   UNL     1     -13.748  15.542  71.424  1.00  0.00    -0.503 OA 
HETATM   20  H1  UNL     1     -14.428  13.809  72.888  1.00  0.00     0.000 HD 
HETATM   21  N   UNL     1     -13.585  13.508  72.397  1.00  0.00    -0.581 N  
ENDBRANCH  16  17
ENDBRANCH   9  16
ENDBRANCH   6   7
ENDBRANCH   2   6
TORSDOF 4
ENDMDL
MODEL       37
REMARK 921   NORMALIZED FREE ENERGY PREDICTED BY IDOCK:   -4.95 KCAL/MOL
REMARK 922        TOTAL FREE ENERGY PREDICTED BY IDOCK:   -6.51 KCAL/MOL
REMARK 923 INTER-LIGAND FREE ENERGY PREDICTED BY IDOCK:   -6.09 KCAL/MOL
REMARK 924 INTRA-LIGAND FREE ENERGY PREDICTED BY IDOCK:   -0.42 KCAL/MOL
REMARK 927      BINDING AFFINITY PREDICTED BY RF-SCORE:    0.00 PKD
ROOT
HETATM    1  N   UNL     1      -9.318  15.058  65.723  1.00  0.00    -0.483 N  
HETATM    2  C   UNL     1      -9.654  15.167  67.026  1.00  0.00    -0.226 C  
HETATM    3  H2  UNL     1      -9.480  15.861  65.115  1.00  0.00     0.000 HD 
HETATM    4  H1  UNL     1      -8.912  14.217  65.314  1.00  0.00     0.000 HD 
HETATM    5  O   UNL     1     -10.140  16.174  67.516  1.00  0.00    -0.246 OA 
ENDROOT
BRANCH   2   6
HETATM    6  O   UNL     1      -9.348  14.025  67.675  1.00  0.00    -0.192 OA 
BRANCH   6   7
HETATM    7  C   UNL     1     -10.427  13.414  68.411  1.00  0.00    -0.250 C  
HETATM    8  C   UNL     1     -10.710  11.982  67.913  1.00  0.00    -0.243 C  
HETATM    9  C   UNL     1     -11.830  11.311  68.727  1.00  0.00    -0.329 C  
HETATM   10  C   UNL     1     -11.033  11.957  66.423  1.00  0.00    -0.337 A  
HETATM   11  C   UNL     1     -10.235  11.210  65.544  1.00  0.00    -0.319 A  
HETATM   12  C   UNL     1     -12.109  12.689  65.894  1.00  0.00    -0.459 A  
HETATM   13  C   UNL     1     -12.365  12.691  64.522  1.00  0.00    -0.537 A  
HETATM   14  C   UNL     1     -10.496  11.211  64.171  1.00  0.00    -0.442 A  
HETATM   15  C   UNL     1     -11.556  11.955  63.661  1.00  0.00    -0.559 A  
BRANCH   9  16
HETATM   16  O   UNL     1     -11.476  11.253  70.121  1.00  0.00    -0.297 OA 
BRANCH  16  17
HETATM   17  C   UNL     1     -12.497  11.327  71.003  1.00  0.00    -0.400 C  
HETATM   18  H2  UNL     1     -12.636   9.230  70.834  1.00  0.00     0.000 HD 
HETATM   19  O   UNL     1     -12.933  12.335  71.532  1.00  0.00    -0.386 OA 
HETATM   20  H1  UNL     1     -13.757  10.147  71.917  1.00  0.00     0.000 HD 
HETATM   21  N   UNL     1     -12.986  10.092  71.251  1.00  0.00    -0.386 N  
ENDBRANCH  16  17
ENDBRANCH   9  16
ENDBRANCH   6   7
ENDBRANCH   2   6
TORSDOF 4
ENDMDL
MODEL       38
REMARK 921   NORMALIZED FREE ENERGY PREDICTED BY IDOCK:   -4.95 KCAL/MOL
REMARK 922        TOTAL FREE ENERGY PREDICTED BY IDOCK:   -6.50 KCAL/MOL
REMARK 923 INTER-LIGAND FREE ENERGY PREDICTED BY IDOCK:   -6.23 KCAL/MOL
REMARK 924 INTRA-LIGAND FREE ENERGY PREDICTED BY IDOCK:   -0.28 KCAL/MOL
REMARK 927      BINDING AFFINITY PREDICTED BY RF-SCORE:    0.00 PKD
ROOT
HETATM    1  N   UNL     1      -7.235  12.500  69.205  1.00  0.00    -0.319 N  
HETATM    2  C   UNL     1      -7.401  13.202  68.065  1.00  0.00    -0.125 C  
HETATM    3  H2  UNL     1      -6.331  12.058  69.373  1.00  0.00     0.000 HD 
HETATM    4  H1  UNL     1      -7.964  12.387  69.909  1.00  0.00     0.000 HD 
HETATM    5  O   UNL     1      -6.529  13.338  67.223  1.00  0.00    -0.256 OA 
ENDROOT
BRANCH   2   6
HETATM    6  O   UNL     1      -8.642  13.730  68.029  1.00  0.00    -0.157 OA 
BRANCH   6   7
HETATM    7  C   UNL     1      -9.590  13.046  67.184  1.00  0.00    -0.230 C  
HETATM    8  C   UNL     1     -10.928  13.809  67.106  1.00  0.00    -0.299 C  
HETATM    9  C   UNL     1     -11.927  13.106  66.170  1.00  0.00    -0.422 C  
HETATM   10  C   UNL     1     -11.538  14.020  68.488  1.00  0.00    -0.357 A  
HETATM   11  C   UNL     1     -11.783  15.320  68.957  1.00  0.00    -0.368 A  
HETATM   12  C   UNL     1     -11.845  12.936  69.327  1.00  0.00    -0.363 A  
HETATM   13  C   UNL     1     -12.362  13.148  70.606  1.00  0.00    -0.405 A  
HETATM   14  C   UNL     1     -12.303  15.529  70.237  1.00  0.00    -0.431 A  
HETATM   15  C   UNL     1     -12.587  14.444  71.062  1.00  0.00    -0.419 A  
BRANCH   9  16
HETATM   16  O   UNL     1     -11.381  12.994  64.843  1.00  0.00    -0.292 OA 
BRANCH  16  17
HETATM   17  C   UNL     1     -12.263  13.078  63.822  1.00  0.00    -0.460 C  
HETATM   18  H2  UNL     1     -12.526  10.997  64.039  1.00  0.00     0.000 HD 
HETATM   19  O   UNL     1     -12.591  14.087  63.222  1.00  0.00    -0.801 OA 
HETATM   20  H1  UNL     1     -13.438  11.920  62.777  1.00  0.00     0.000 HD 
HETATM   21  N   UNL     1     -12.772  11.857  63.548  1.00  0.00    -0.524 N  
ENDBRANCH  16  17
ENDBRANCH   9  16
ENDBRANCH   6   7
ENDBRANCH   2   6
TORSDOF 4
ENDMDL
MODEL       39
REMARK 921   NORMALIZED FREE ENERGY PREDICTED BY IDOCK:   -4.85 KCAL/MOL
REMARK 922        TOTAL FREE ENERGY PREDICTED BY IDOCK:   -6.38 KCAL/MOL
REMARK 923 INTER-LIGAND FREE ENERGY PREDICTED BY IDOCK:   -6.00 KCAL/MOL
REMARK 924 INTRA-LIGAND FREE ENERGY PREDICTED BY IDOCK:   -0.38 KCAL/MOL
REMARK 927      BINDING AFFINITY PREDICTED BY RF-SCORE:    0.00 PKD
ROOT
HETATM    1  N   UNL     1     -12.347  14.443  63.945  1.00  0.00    -1.023 N  
HETATM    2  C   UNL     1     -12.021  13.148  64.139  1.00  0.00    -0.436 C  
HETATM    3  H2  UNL     1     -12.096  14.876  63.055  1.00  0.00     0.000 HD 
HETATM    4  H1  UNL     1     -12.831  15.013  64.638  1.00  0.00     0.000 HD 
HETATM    5  O   UNL     1     -11.442  12.466  63.309  1.00  0.00    -0.441 OA 
ENDROOT
BRANCH   2   6
HETATM    6  O   UNL     1     -12.450  12.745  65.352  1.00  0.00    -0.539 OA 
BRANCH   6   7
HETATM    7  C   UNL     1     -11.534  11.920  66.100  1.00  0.00    -0.288 C  
HETATM    8  C   UNL     1     -11.406  12.401  67.560  1.00  0.00    -0.375 C  
HETATM    9  C   UNL     1     -10.463  11.496  68.373  1.00  0.00    -0.207 C  
HETATM   10  C   UNL     1     -10.959  13.857  67.637  1.00  0.00    -0.278 A  
HETATM   11  C   UNL     1     -11.771  14.808  68.273  1.00  0.00    -0.340 A  
HETATM   12  C   UNL     1      -9.751  14.284  67.060  1.00  0.00    -0.253 A  
HETATM   13  C   UNL     1      -9.378  15.628  67.101  1.00  0.00    -0.229 A  
HETATM   14  C   UNL     1     -11.393  16.153  68.315  1.00  0.00    -0.316 A  
HETATM   15  C   UNL     1     -10.200  16.562  67.725  1.00  0.00    -0.278 A  
BRANCH   9  16
HETATM   16  O   UNL     1     -10.943  10.139  68.374  1.00  0.00    -0.242 OA 
BRANCH  16  17
HETATM   17  C   UNL     1     -11.008   9.526  69.576  1.00  0.00    -0.195 C  
HETATM   18  H2  UNL     1     -11.416  11.428  70.389  1.00  0.00     0.000 HD 
HETATM   19  O   UNL     1     -10.865   8.336  69.797  1.00  0.00    -0.241 OA 
HETATM   20  H1  UNL     1     -11.329   9.967  71.451  1.00  0.00     0.000 HD 
HETATM   21  N   UNL     1     -11.280  10.429  70.543  1.00  0.00    -0.325 N  
ENDBRANCH  16  17
ENDBRANCH   9  16
ENDBRANCH   6   7
ENDBRANCH   2   6
TORSDOF 4
ENDMDL
MODEL       40
REMARK 921   NORMALIZED FREE ENERGY PREDICTED BY IDOCK:   -4.85 KCAL/MOL
REMARK 922        TOTAL FREE ENERGY PREDICTED BY IDOCK:   -6.38 KCAL/MOL
REMARK 923 INTER-LIGAND FREE ENERGY PREDICTED BY IDOCK:   -6.09 KCAL/MOL
REMARK 924 INTRA-LIGAND FREE ENERGY PREDICTED BY IDOCK:   -0.29 KCAL/MOL
REMARK 927      BINDING AFFINITY PREDICTED BY RF-SCORE:    0.00 PKD
ROOT
HETATM    1  N   UNL     1     -12.360  14.051  63.287  1.00  0.00    -1.145 N  
HETATM    2  C   UNL     1     -12.532  12.854  63.885  1.00  0.00    -0.333 C  
HETATM    3  H2  UNL     1     -12.667  14.155  62.319  1.00  0.00     0.000 HD 
HETATM    4  H1  UNL     1     -11.939  14.857  63.748  1.00  0.00     0.000 HD 
HETATM    5  O   UNL     1     -13.035  11.889  63.333  1.00  0.00    -0.730 OA 
ENDROOT
BRANCH   2   6
HETATM    6  O   UNL     1     -12.092  12.912  65.159  1.00  0.00    -0.389 OA 
BRANCH   6   7
HETATM    7  C   UNL     1     -11.113  11.920  65.530  1.00  0.00    -0.304 C  
HETATM    8  C   UNL     1     -11.237  11.535  67.019  1.00  0.00    -0.365 C  
HETATM    9  C   UNL     1     -10.224  10.445  67.407  1.00  0.00    -0.214 C  
HETATM   10  C   UNL     1     -11.100  12.751  67.929  1.00  0.00    -0.281 A  
HETATM   11  C   UNL     1     -12.147  13.102  68.794  1.00  0.00    -0.226 A  
HETATM   12  C   UNL     1      -9.948  13.555  67.909  1.00  0.00    -0.245 A  
HETATM   13  C   UNL     1      -9.856  14.690  68.716  1.00  0.00    -0.227 A  
HETATM   14  C   UNL     1     -12.051  14.237  69.603  1.00  0.00    -0.396 A  
HETATM   15  C   UNL     1     -10.909  15.033  69.560  1.00  0.00    -0.272 A  
BRANCH   9  16
HETATM   16  O   UNL     1     -10.420   9.264  66.607  1.00  0.00    -0.237 OA 
BRANCH  16  17
HETATM   17  C   UNL     1     -10.440   8.087  67.269  1.00  0.00    -0.314 C  
HETATM   18  H2  UNL     1      -8.668   8.726  68.214  1.00  0.00     0.000 HD 
HETATM   19  O   UNL     1     -11.280   7.208  67.171  1.00  0.00    -0.276 OA 
HETATM   20  H1  UNL     1      -9.394   7.116  68.602  1.00  0.00     0.000 HD 
HETATM   21  N   UNL     1      -9.380   8.005  68.101  1.00  0.00    -0.140 N  
ENDBRANCH  16  17
ENDBRANCH   9  16
ENDBRANCH   6   7
ENDBRANCH   2   6
TORSDOF 4
ENDMDL
MODEL       41
REMARK 921   NORMALIZED FREE ENERGY PREDICTED BY IDOCK:   -4.81 KCAL/MOL
REMARK 922        TOTAL FREE ENERGY PREDICTED BY IDOCK:   -6.34 KCAL/MOL
REMARK 923 INTER-LIGAND FREE ENERGY PREDICTED BY IDOCK:   -5.91 KCAL/MOL
REMARK 924 INTRA-LIGAND FREE ENERGY PREDICTED BY IDOCK:   -0.43 KCAL/MOL
REMARK 927      BINDING AFFINITY PREDICTED BY RF-SCORE:    0.00 PKD
ROOT
HETATM    1  N   UNL     1     -12.311  14.207  63.270  1.00  0.00    -1.133 N  
HETATM    2  C   UNL     1     -12.432  14.358  64.606  1.00  0.00    -0.345 C  
HETATM    3  H2  UNL     1     -13.042  13.696  62.774  1.00  0.00     0.000 HD 
HETATM    4  H1  UNL     1     -11.529  14.575  62.729  1.00  0.00     0.000 HD 
HETATM    5  O   UNL     1     -13.368  13.918  65.253  1.00  0.00    -0.732 OA 
ENDROOT
BRANCH   2   6
HETATM    6  O   UNL     1     -11.393  15.074  65.081  1.00  0.00    -0.360 OA 
BRANCH   6   7
HETATM    7  C   UNL     1     -10.182  14.332  65.333  1.00  0.00    -0.371 C  
HETATM    8  C   UNL     1     -10.312  13.454  66.594  1.00  0.00    -0.269 C  
HETATM    9  C   UNL     1      -9.038  12.626  66.840  1.00  0.00    -0.218 C  
HETATM   10  C   UNL     1     -10.666  14.283  67.824  1.00  0.00    -0.253 A  
HETATM   11  C   UNL     1     -11.845  14.017  68.535  1.00  0.00    -0.399 A  
HETATM   12  C   UNL     1      -9.843  15.336  68.260  1.00  0.00    -0.218 A  
HETATM   13  C   UNL     1     -10.203  16.113  69.362  1.00  0.00    -0.266 A  
HETATM   14  C   UNL     1     -12.202  14.795  69.640  1.00  0.00    -0.310 A  
HETATM   15  C   UNL     1     -11.384  15.845  70.048  1.00  0.00    -0.358 A  
BRANCH   9  16
HETATM   16  O   UNL     1      -8.763  11.776  65.712  1.00  0.00    -0.039 OA 
BRANCH  16  17
HETATM   17  C   UNL     1      -9.281  10.529  65.759  1.00  0.00    -0.182 C  
HETATM   18  H2  UNL     1      -8.662  10.477  67.773  1.00  0.00     0.000 HD 
HETATM   19  O   UNL     1      -9.841   9.937  64.851  1.00  0.00    -0.315 OA 
HETATM   20  H1  UNL     1      -9.506   9.062  67.027  1.00  0.00     0.000 HD 
HETATM   21  N   UNL     1      -9.114  10.003  66.991  1.00  0.00    -0.141 N  
ENDBRANCH  16  17
ENDBRANCH   9  16
ENDBRANCH   6   7
ENDBRANCH   2   6
TORSDOF 4
ENDMDL
MODEL       42
REMARK 921   NORMALIZED FREE ENERGY PREDICTED BY IDOCK:   -4.80 KCAL/MOL
REMARK 922        TOTAL FREE ENERGY PREDICTED BY IDOCK:   -6.32 KCAL/MOL
REMARK 923 INTER-LIGAND FREE ENERGY PREDICTED BY IDOCK:   -6.01 KCAL/MOL
REMARK 924 INTRA-LIGAND FREE ENERGY PREDICTED BY IDOCK:   -0.31 KCAL/MOL
REMARK 927      BINDING AFFINITY PREDICTED BY RF-SCORE:    0.00 PKD
ROOT
HETATM    1  N   UNL     1     -12.930  14.551  69.972  1.00  0.00    -0.502 N  
HETATM    2  C   UNL     1     -12.002  15.492  69.697  1.00  0.00    -0.359 C  
HETATM    3  H2  UNL     1     -13.275  14.478  70.930  1.00  0.00     0.000 HD 
HETATM    4  H1  UNL     1     -13.305  13.908  69.275  1.00  0.00     0.000 HD 
HETATM    5  O   UNL     1     -11.554  16.261  70.532  1.00  0.00    -0.343 OA 
ENDROOT
BRANCH   2   6
HETATM    6  O   UNL     1     -11.687  15.455  68.386  1.00  0.00    -0.352 OA 
BRANCH   6   7
HETATM    7  C   UNL     1     -10.321  15.784  68.061  1.00  0.00    -0.252 C  
HETATM    8  C   UNL     1     -10.158  16.082  66.556  1.00  0.00    -0.297 C  
HETATM    9  C   UNL     1      -8.711  16.477  66.212  1.00  0.00    -0.333 C  
HETATM   10  C   UNL     1     -10.618  14.910  65.696  1.00  0.00    -0.358 A  
HETATM   11  C   UNL     1     -11.653  15.086  64.765  1.00  0.00    -0.395 A  
HETATM   12  C   UNL     1     -10.043  13.635  65.826  1.00  0.00    -0.311 A  
HETATM   13  C   UNL     1     -10.505  12.562  65.062  1.00  0.00    -0.323 A  
HETATM   14  C   UNL     1     -12.112  14.011  64.000  1.00  0.00    -0.413 A  
HETATM   15  C   UNL     1     -11.542  12.750  64.153  1.00  0.00    -0.456 A  
BRANCH   9  16
HETATM   16  O   UNL     1      -8.314  17.642  66.959  1.00  0.00    -0.209 OA 
BRANCH  16  17
HETATM   17  C   UNL     1      -7.992  18.737  66.237  1.00  0.00    -0.264 C  
HETATM   18  H2  UNL     1      -9.615  19.692  67.184  1.00  0.00     0.000 HD 
HETATM   19  O   UNL     1      -7.069  18.845  65.448  1.00  0.00    -0.493 OA 
HETATM   20  H1  UNL     1      -8.599  20.575  65.976  1.00  0.00     0.000 HD 
HETATM   21  N   UNL     1      -8.842  19.748  66.521  1.00  0.00    -0.350 N  
ENDBRANCH  16  17
ENDBRANCH   9  16
ENDBRANCH   6   7
ENDBRANCH   2   6
TORSDOF 4
ENDMDL
MODEL       43
REMARK 921   NORMALIZED FREE ENERGY PREDICTED BY IDOCK:   -4.78 KCAL/MOL
REMARK 922        TOTAL FREE ENERGY PREDICTED BY IDOCK:   -6.30 KCAL/MOL
REMARK 923 INTER-LIGAND FREE ENERGY PREDICTED BY IDOCK:   -5.99 KCAL/MOL
REMARK 924 INTRA-LIGAND FREE ENERGY PREDICTED BY IDOCK:   -0.31 KCAL/MOL
REMARK 927      BINDING AFFINITY PREDICTED BY RF-SCORE:    0.00 PKD
ROOT
HETATM    1  N   UNL     1     -13.300  15.608  70.685  1.00  0.00    -0.792 N  
HETATM    2  C   UNL     1     -12.213  16.089  71.325  1.00  0.00    -0.350 C  
HETATM    3  H2  UNL     1     -14.128  15.387  71.239  1.00  0.00     0.000 HD 
HETATM    4  H1  UNL     1     -13.339  15.452  69.678  1.00  0.00     0.000 HD 
HETATM    5  O   UNL     1     -12.167  16.275  72.530  1.00  0.00    -0.493 OA 
ENDROOT
BRANCH   2   6
HETATM    6  O   UNL     1     -11.233  16.343  70.434  1.00  0.00    -0.378 OA 
BRANCH   6   7
HETATM    7  C   UNL     1     -11.309  15.614  69.192  1.00  0.00    -0.338 C  
HETATM    8  C   UNL     1     -10.070  15.871  68.311  1.00  0.00    -0.224 C  
HETATM    9  C   UNL     1     -10.126  15.060  67.005  1.00  0.00    -0.244 C  
HETATM   10  C   UNL     1      -9.884  17.357  68.019  1.00  0.00    -0.288 A  
HETATM   11  C   UNL     1      -8.706  18.007  68.411  1.00  0.00    -0.301 A  
HETATM   12  C   UNL     1     -10.884  18.108  67.378  1.00  0.00    -0.258 A  
HETATM   13  C   UNL     1     -10.717  19.475  67.157  1.00  0.00    -0.599 A  
HETATM   14  C   UNL     1      -8.539  19.377  68.186  1.00  0.00    -0.374 A  
HETATM   15  C   UNL     1      -9.547  20.110  67.564  1.00  0.00    -0.547 A  
BRANCH   9  16
HETATM   16  O   UNL     1     -10.207  13.651  67.289  1.00  0.00    -0.242 OA 
BRANCH  16  17
HETATM   17  C   UNL     1      -9.068  13.057  67.706  1.00  0.00    -0.200 C  
HETATM   18  H2  UNL     1     -10.298  11.590  68.589  1.00  0.00     0.000 HD 
HETATM   19  O   UNL     1      -7.928  13.433  67.493  1.00  0.00    -0.160 OA 
HETATM   20  H1  UNL     1      -8.497  11.488  68.719  1.00  0.00     0.000 HD 
HETATM   21  N   UNL     1      -9.357  11.937  68.404  1.00  0.00    -0.200 N  
ENDBRANCH  16  17
ENDBRANCH   9  16
ENDBRANCH   6   7
ENDBRANCH   2   6
TORSDOF 4
ENDMDL
MODEL       44
REMARK 921   NORMALIZED FREE ENERGY PREDICTED BY IDOCK:   -4.75 KCAL/MOL
REMARK 922        TOTAL FREE ENERGY PREDICTED BY IDOCK:   -6.25 KCAL/MOL
REMARK 923 INTER-LIGAND FREE ENERGY PREDICTED BY IDOCK:   -5.96 KCAL/MOL
REMARK 924 INTRA-LIGAND FREE ENERGY PREDICTED BY IDOCK:   -0.30 KCAL/MOL
REMARK 927      BINDING AFFINITY PREDICTED BY RF-SCORE:    0.00 PKD
ROOT
HETATM    1  N   UNL     1     -13.449   9.694  72.499  1.00  0.00    -0.646 N  
HETATM    2  C   UNL     1     -13.099  10.711  71.683  1.00  0.00    -0.450 C  
HETATM    3  H2  UNL     1     -13.837   9.922  73.415  1.00  0.00     0.000 HD 
HETATM    4  H1  UNL     1     -13.347   8.711  72.251  1.00  0.00     0.000 HD 
HETATM    5  O   UNL     1     -13.221  11.888  71.981  1.00  0.00    -0.495 OA 
ENDROOT
BRANCH   2   6
HETATM    6  O   UNL     1     -12.632  10.221  70.517  1.00  0.00    -0.301 OA 
BRANCH   6   7
HETATM    7  C   UNL     1     -12.145  11.199  69.576  1.00  0.00    -0.326 C  
HETATM    8  C   UNL     1     -11.484  10.526  68.355  1.00  0.00    -0.285 C  
HETATM    9  C   UNL     1     -11.003  11.566  67.328  1.00  0.00    -0.271 C  
HETATM   10  C   UNL     1     -10.341   9.605  68.770  1.00  0.00    -0.233 A  
HETATM   11  C   UNL     1     -10.387   8.241  68.446  1.00  0.00    -0.237 A  
HETATM   12  C   UNL     1      -9.239  10.086  69.496  1.00  0.00    -0.238 A  
HETATM   13  C   UNL     1      -8.223   9.221  69.906  1.00  0.00    -0.148 A  
HETATM   14  C   UNL     1      -9.367   7.378  68.854  1.00  0.00    -0.145 A  
HETATM   15  C   UNL     1      -8.289   7.867  69.588  1.00  0.00    -0.131 A  
BRANCH   9  16
HETATM   16  O   UNL     1     -12.105  12.372  66.871  1.00  0.00    -0.564 OA 
BRANCH  16  17
HETATM   17  C   UNL     1     -12.174  12.594  65.540  1.00  0.00    -0.440 C  
HETATM   18  H2  UNL     1     -10.409  11.454  65.379  1.00  0.00     0.000 HD 
HETATM   19  O   UNL     1     -13.037  13.222  64.950  1.00  0.00    -0.737 OA 
HETATM   20  H1  UNL     1     -11.190  12.163  63.910  1.00  0.00     0.000 HD 
HETATM   21  N   UNL     1     -11.138  11.995  64.915  1.00  0.00    -0.309 N  
ENDBRANCH  16  17
ENDBRANCH   9  16
ENDBRANCH   6   7
ENDBRANCH   2   6
TORSDOF 4
ENDMDL
MODEL       45
REMARK 921   NORMALIZED FREE ENERGY PREDICTED BY IDOCK:   -4.74 KCAL/MOL
REMARK 922        TOTAL FREE ENERGY PREDICTED BY IDOCK:   -6.25 KCAL/MOL
REMARK 923 INTER-LIGAND FREE ENERGY PREDICTED BY IDOCK:   -5.95 KCAL/MOL
REMARK 924 INTRA-LIGAND FREE ENERGY PREDICTED BY IDOCK:   -0.30 KCAL/MOL
REMARK 927      BINDING AFFINITY PREDICTED BY RF-SCORE:    0.00 PKD
ROOT
HETATM    1  N   UNL     1      -7.494  14.219  67.624  1.00  0.00    -0.165 N  
HETATM    2  C   UNL     1      -7.432  12.901  67.907  1.00  0.00    -0.131 C  
HETATM    3  H2  UNL     1      -6.640  14.689  67.323  1.00  0.00     0.000 HD 
HETATM    4  H1  UNL     1      -8.349  14.772  67.695  1.00  0.00     0.000 HD 
HETATM    5  O   UNL     1      -6.410  12.241  67.823  1.00  0.00    -0.075 OA 
ENDROOT
BRANCH   2   6
HETATM    6  O   UNL     1      -8.653  12.451  68.262  1.00  0.00    -0.177 OA 
BRANCH   6   7
HETATM    7  C   UNL     1      -9.542  12.125  67.174  1.00  0.00    -0.194 C  
HETATM    8  C   UNL     1     -10.927  12.776  67.365  1.00  0.00    -0.285 C  
HETATM    9  C   UNL     1     -11.864  12.467  66.184  1.00  0.00    -0.397 C  
HETATM   10  C   UNL     1     -11.567  12.362  68.686  1.00  0.00    -0.365 A  
HETATM   11  C   UNL     1     -11.905  13.335  69.638  1.00  0.00    -0.391 A  
HETATM   12  C   UNL     1     -11.811  11.012  68.991  1.00  0.00    -0.399 A  
HETATM   13  C   UNL     1     -12.357  10.647  70.223  1.00  0.00    -0.406 A  
HETATM   14  C   UNL     1     -12.454  12.967  70.869  1.00  0.00    -0.383 A  
HETATM   15  C   UNL     1     -12.674  11.624  71.162  1.00  0.00    -0.426 A  
BRANCH   9  16
HETATM   16  O   UNL     1     -11.295  12.945  64.950  1.00  0.00    -0.294 OA 
BRANCH  16  17
HETATM   17  C   UNL     1     -12.155  13.131  63.925  1.00  0.00    -0.470 C  
HETATM   18  H2  UNL     1     -12.049  11.048  63.617  1.00  0.00     0.000 HD 
HETATM   19  O   UNL     1     -12.645  14.188  63.566  1.00  0.00    -0.834 OA 
HETATM   20  H1  UNL     1     -13.082  12.089  62.558  1.00  0.00     0.000 HD 
HETATM   21  N   UNL     1     -12.432  11.949  63.332  1.00  0.00    -0.557 N  
ENDBRANCH  16  17
ENDBRANCH   9  16
ENDBRANCH   6   7
ENDBRANCH   2   6
TORSDOF 4
ENDMDL
MODEL       46
REMARK 921   NORMALIZED FREE ENERGY PREDICTED BY IDOCK:   -4.72 KCAL/MOL
REMARK 922        TOTAL FREE ENERGY PREDICTED BY IDOCK:   -6.22 KCAL/MOL
REMARK 923 INTER-LIGAND FREE ENERGY PREDICTED BY IDOCK:   -5.90 KCAL/MOL
REMARK 924 INTRA-LIGAND FREE ENERGY PREDICTED BY IDOCK:   -0.32 KCAL/MOL
REMARK 927      BINDING AFFINITY PREDICTED BY RF-SCORE:    0.00 PKD
ROOT
HETATM    1  N   UNL     1     -11.451  14.412  65.133  1.00  0.00    -0.347 N  
HETATM    2  C   UNL     1     -12.240  13.644  65.913  1.00  0.00    -0.461 C  
HETATM    3  H2  UNL     1     -11.190  14.057  64.212  1.00  0.00     0.000 HD 
HETATM    4  H1  UNL     1     -11.099  15.327  65.414  1.00  0.00     0.000 HD 
HETATM    5  O   UNL     1     -12.660  12.549  65.577  1.00  0.00    -0.642 OA 
ENDROOT
BRANCH   2   6
HETATM    6  O   UNL     1     -12.496  14.282  67.074  1.00  0.00    -0.304 OA 
BRANCH   6   7
HETATM    7  C   UNL     1     -11.440  15.129  67.570  1.00  0.00    -0.298 C  
HETATM    8  C   UNL     1     -10.833  14.567  68.872  1.00  0.00    -0.262 C  
HETATM    9  C   UNL     1      -9.676  15.444  69.381  1.00  0.00    -0.273 C  
HETATM   10  C   UNL     1     -11.892  14.385  69.955  1.00  0.00    -0.377 A  
HETATM   11  C   UNL     1     -12.126  13.115  70.502  1.00  0.00    -0.385 A  
HETATM   12  C   UNL     1     -12.666  15.465  70.412  1.00  0.00    -0.407 A  
HETATM   13  C   UNL     1     -13.660  15.275  71.372  1.00  0.00    -0.598 A  
HETATM   14  C   UNL     1     -13.121  12.927  71.466  1.00  0.00    -0.390 A  
HETATM   15  C   UNL     1     -13.890  14.005  71.895  1.00  0.00    -0.533 A  
BRANCH   9  16
HETATM   16  O   UNL     1      -8.637  15.534  68.388  1.00  0.00    -0.160 OA 
BRANCH  16  17
HETATM   17  C   UNL     1      -7.366  15.451  68.840  1.00  0.00    -0.147 C  
HETATM   18  H2  UNL     1      -6.780  16.261  66.985  1.00  0.00     0.000 HD 
HETATM   19  O   UNL     1      -7.005  15.047  69.933  1.00  0.00    -0.183 OA 
HETATM   20  H1  UNL     1      -5.549  15.843  68.242  1.00  0.00     0.000 HD 
HETATM   21  N   UNL     1      -6.509  15.906  67.901  1.00  0.00    -0.132 N  
ENDBRANCH  16  17
ENDBRANCH   9  16
ENDBRANCH   6   7
ENDBRANCH   2   6
TORSDOF 4
ENDMDL
MODEL       47
REMARK 921   NORMALIZED FREE ENERGY PREDICTED BY IDOCK:   -4.72 KCAL/MOL
REMARK 922        TOTAL FREE ENERGY PREDICTED BY IDOCK:   -6.22 KCAL/MOL
REMARK 923 INTER-LIGAND FREE ENERGY PREDICTED BY IDOCK:   -5.84 KCAL/MOL
REMARK 924 INTRA-LIGAND FREE ENERGY PREDICTED BY IDOCK:   -0.38 KCAL/MOL
REMARK 927      BINDING AFFINITY PREDICTED BY RF-SCORE:    0.00 PKD
ROOT
HETATM    1  N   UNL     1      -9.257  11.609  63.263  1.00  0.00    -0.546 N  
HETATM    2  C   UNL     1      -9.328  10.823  64.358  1.00  0.00    -0.242 C  
HETATM    3  H2  UNL     1      -8.378  11.638  62.746  1.00  0.00     0.000 HD 
HETATM    4  H1  UNL     1     -10.034  12.176  62.925  1.00  0.00     0.000 HD 
HETATM    5  O   UNL     1      -8.398  10.145  64.763  1.00  0.00    -0.152 OA 
ENDROOT
BRANCH   2   6
HETATM    6  O   UNL     1     -10.564  10.893  64.893  1.00  0.00    -0.302 OA 
BRANCH   6   7
HETATM    7  C   UNL     1     -10.619  11.080  66.322  1.00  0.00    -0.237 C  
HETATM    8  C   UNL     1     -11.707  12.101  66.715  1.00  0.00    -0.377 C  
HETATM    9  C   UNL     1     -11.799  12.269  68.242  1.00  0.00    -0.310 C  
HETATM   10  C   UNL     1     -11.487  13.448  66.034  1.00  0.00    -0.351 A  
HETATM   11  C   UNL     1     -12.474  13.978  65.190  1.00  0.00    -0.472 A  
HETATM   12  C   UNL     1     -10.297  14.174  66.212  1.00  0.00    -0.294 A  
HETATM   13  C   UNL     1     -10.094  15.384  65.547  1.00  0.00    -0.405 A  
HETATM   14  C   UNL     1     -12.269  15.191  64.528  1.00  0.00    -0.278 A  
HETATM   15  C   UNL     1     -11.078  15.890  64.702  1.00  0.00    -0.368 A  
BRANCH   9  16
HETATM   16  O   UNL     1     -12.100  11.010  68.871  1.00  0.00    -0.479 OA 
BRANCH  16  17
HETATM   17  C   UNL     1     -11.876  10.935  70.201  1.00  0.00    -0.353 C  
HETATM   18  H2  UNL     1     -13.101  12.641  70.382  1.00  0.00     0.000 HD 
HETATM   19  O   UNL     1     -11.207  10.097  70.782  1.00  0.00    -0.321 OA 
HETATM   20  H1  UNL     1     -12.357  11.877  71.843  1.00  0.00     0.000 HD 
HETATM   21  N   UNL     1     -12.526  11.933  70.838  1.00  0.00    -0.353 N  
ENDBRANCH  16  17
ENDBRANCH   9  16
ENDBRANCH   6   7
ENDBRANCH   2   6
TORSDOF 4
ENDMDL
MODEL       48
REMARK 921   NORMALIZED FREE ENERGY PREDICTED BY IDOCK:   -4.71 KCAL/MOL
REMARK 922        TOTAL FREE ENERGY PREDICTED BY IDOCK:   -6.21 KCAL/MOL
REMARK 923 INTER-LIGAND FREE ENERGY PREDICTED BY IDOCK:   -5.79 KCAL/MOL
REMARK 924 INTRA-LIGAND FREE ENERGY PREDICTED BY IDOCK:   -0.42 KCAL/MOL
REMARK 927      BINDING AFFINITY PREDICTED BY RF-SCORE:    0.00 PKD
ROOT
HETATM    1  N   UNL     1     -11.318   9.893  68.634  1.00  0.00    -0.498 N  
HETATM    2  C   UNL     1     -11.908  11.080  68.888  1.00  0.00    -0.308 C  
HETATM    3  H2  UNL     1     -11.042   9.312  69.426  1.00  0.00     0.000 HD 
HETATM    4  H1  UNL     1     -11.132   9.545  67.694  1.00  0.00     0.000 HD 
HETATM    5  O   UNL     1     -12.131  11.496  70.013  1.00  0.00    -0.314 OA 
ENDROOT
BRANCH   2   6
HETATM    6  O   UNL     1     -12.221  11.693  67.728  1.00  0.00    -0.560 OA 
BRANCH   6   7
HETATM    7  C   UNL     1     -11.582  12.965  67.499  1.00  0.00    -0.356 C  
HETATM    8  C   UNL     1     -10.957  13.036  66.090  1.00  0.00    -0.300 C  
HETATM    9  C   UNL     1     -10.314  14.408  65.825  1.00  0.00    -0.326 C  
HETATM   10  C   UNL     1      -9.951  11.913  65.863  1.00  0.00    -0.261 A  
HETATM   11  C   UNL     1     -10.146  10.996  64.820  1.00  0.00    -0.367 A  
HETATM   12  C   UNL     1      -8.830  11.754  66.695  1.00  0.00    -0.189 A  
HETATM   13  C   UNL     1      -7.942  10.695  66.500  1.00  0.00    -0.138 A  
HETATM   14  C   UNL     1      -9.253   9.938  64.625  1.00  0.00    -0.313 A  
HETATM   15  C   UNL     1      -8.156   9.785  65.469  1.00  0.00    -0.125 A  
BRANCH   9  16
HETATM   16  O   UNL     1     -11.292  15.457  65.950  1.00  0.00    -0.249 OA 
BRANCH  16  17
HETATM   17  C   UNL     1     -11.206  16.467  65.057  1.00  0.00    -0.134 C  
HETATM   18  H2  UNL     1     -10.333  17.601  66.604  1.00  0.00     0.000 HD 
HETATM   19  O   UNL     1     -11.555  16.439  63.888  1.00  0.00    -1.100 OA 
HETATM   20  H1  UNL     1     -10.581  18.314  64.960  1.00  0.00     0.000 HD 
HETATM   21  N   UNL     1     -10.646  17.551  65.635  1.00  0.00    -0.250 N  
ENDBRANCH  16  17
ENDBRANCH   9  16
ENDBRANCH   6   7
ENDBRANCH   2   6
TORSDOF 4
ENDMDL
MODEL       49
REMARK 921   NORMALIZED FREE ENERGY PREDICTED BY IDOCK:   -4.69 KCAL/MOL
REMARK 922        TOTAL FREE ENERGY PREDICTED BY IDOCK:   -6.19 KCAL/MOL
REMARK 923 INTER-LIGAND FREE ENERGY PREDICTED BY IDOCK:   -5.84 KCAL/MOL
REMARK 924 INTRA-LIGAND FREE ENERGY PREDICTED BY IDOCK:   -0.35 KCAL/MOL
REMARK 927      BINDING AFFINITY PREDICTED BY RF-SCORE:    0.00 PKD
ROOT
HETATM    1  N   UNL     1      -9.041  15.457  65.844  1.00  0.00    -0.430 N  
HETATM    2  C   UNL     1     -10.327  15.383  65.441  1.00  0.00    -0.394 C  
HETATM    3  H2  UNL     1      -8.513  16.302  65.620  1.00  0.00     0.000 HD 
HETATM    4  H1  UNL     1      -8.567  14.716  66.359  1.00  0.00     0.000 HD 
HETATM    5  O   UNL     1     -10.893  16.270  64.824  1.00  0.00    -0.671 OA 
ENDROOT
BRANCH   2   6
HETATM    6  O   UNL     1     -10.865  14.213  65.844  1.00  0.00    -0.287 OA 
BRANCH   6   7
HETATM    7  C   UNL     1     -11.747  14.289  66.982  1.00  0.00    -0.403 C  
HETATM    8  C   UNL     1     -11.066  13.757  68.259  1.00  0.00    -0.279 C  
HETATM    9  C   UNL     1     -11.988  13.878  69.485  1.00  0.00    -0.343 C  
HETATM   10  C   UNL     1     -10.582  12.321  68.084  1.00  0.00    -0.232 A  
HETATM   11  C   UNL     1      -9.222  12.015  68.234  1.00  0.00    -0.192 A  
HETATM   12  C   UNL     1     -11.470  11.285  67.749  1.00  0.00    -0.350 A  
HETATM   13  C   UNL     1     -11.005   9.984  67.549  1.00  0.00    -0.276 A  
HETATM   14  C   UNL     1      -8.760  10.711  68.037  1.00  0.00    -0.126 A  
HETATM   15  C   UNL     1      -9.650   9.699  67.689  1.00  0.00    -0.167 A  
BRANCH   9  16
HETATM   16  O   UNL     1     -12.365  15.250  69.700  1.00  0.00    -0.286 OA 
BRANCH  16  17
HETATM   17  C   UNL     1     -12.674  15.596  70.969  1.00  0.00    -0.460 C  
HETATM   18  H2  UNL     1     -10.604  15.540  71.361  1.00  0.00     0.000 HD 
HETATM   19  O   UNL     1     -13.789  15.808  71.416  1.00  0.00    -0.522 OA 
HETATM   20  H1  UNL     1     -11.783  15.961  72.667  1.00  0.00     0.000 HD 
HETATM   21  N   UNL     1     -11.550  15.699  71.709  1.00  0.00    -0.419 N  
ENDBRANCH  16  17
ENDBRANCH   9  16
ENDBRANCH   6   7
ENDBRANCH   2   6
TORSDOF 4
ENDMDL
MODEL       50
REMARK 921   NORMALIZED FREE ENERGY PREDICTED BY IDOCK:   -4.65 KCAL/MOL
REMARK 922        TOTAL FREE ENERGY PREDICTED BY IDOCK:   -6.13 KCAL/MOL
REMARK 923 INTER-LIGAND FREE ENERGY PREDICTED BY IDOCK:   -5.83 KCAL/MOL
REMARK 924 INTRA-LIGAND FREE ENERGY PREDICTED BY IDOCK:   -0.30 KCAL/MOL
REMARK 927      BINDING AFFINITY PREDICTED BY RF-SCORE:    0.00 PKD
ROOT
HETATM    1  N   UNL     1      -7.208  13.086  69.073  1.00  0.00    -0.262 N  
HETATM    2  C   UNL     1      -7.486  13.732  67.920  1.00  0.00    -0.152 C  
HETATM    3  H2  UNL     1      -6.282  13.212  69.485  1.00  0.00     0.000 HD 
HETATM    4  H1  UNL     1      -7.871  12.480  69.554  1.00  0.00     0.000 HD 
HETATM    5  O   UNL     1      -6.692  14.458  67.345  1.00  0.00    -0.256 OA 
ENDROOT
BRANCH   2   6
HETATM    6  O   UNL     1      -8.753  13.468  67.542  1.00  0.00    -0.184 OA 
BRANCH   6   7
HETATM    7  C   UNL     1      -9.785  14.142  68.290  1.00  0.00    -0.227 C  
HETATM    8  C   UNL     1     -11.168  13.504  68.044  1.00  0.00    -0.300 C  
HETATM    9  C   UNL     1     -12.264  14.193  68.875  1.00  0.00    -0.222 C  
HETATM   10  C   UNL     1     -11.531  13.503  66.562  1.00  0.00    -0.365 A  
HETATM   11  C   UNL     1     -11.782  12.291  65.902  1.00  0.00    -0.451 A  
HETATM   12  C   UNL     1     -11.601  14.696  65.824  1.00  0.00    -0.328 A  
HETATM   13  C   UNL     1     -11.892  14.674  64.459  1.00  0.00    -0.442 A  
HETATM   14  C   UNL     1     -12.077  12.272  64.536  1.00  0.00    -0.462 A  
HETATM   15  C   UNL     1     -12.126  13.462  63.815  1.00  0.00    -0.516 A  
BRANCH   9  16
HETATM   16  O   UNL     1     -11.961  14.108  70.280  1.00  0.00    -0.295 OA 
BRANCH  16  17
HETATM   17  C   UNL     1     -12.452  15.095  71.061  1.00  0.00    -0.357 C  
HETATM   18  H2  UNL     1     -10.750  14.819  72.273  1.00  0.00     0.000 HD 
HETATM   19  O   UNL     1     -13.480  15.725  70.879  1.00  0.00    -0.568 OA 
HETATM   20  H1  UNL     1     -11.993  16.066  72.691  1.00  0.00     0.000 HD 
HETATM   21  N   UNL     1     -11.622  15.320  72.101  1.00  0.00    -0.444 N  
ENDBRANCH  16  17
ENDBRANCH   9  16
ENDBRANCH   6   7
ENDBRANCH   2   6
TORSDOF 4
ENDMDL
MODEL       51
REMARK 921   NORMALIZED FREE ENERGY PREDICTED BY IDOCK:   -4.63 KCAL/MOL
REMARK 922        TOTAL FREE ENERGY PREDICTED BY IDOCK:   -6.11 KCAL/MOL
REMARK 923 INTER-LIGAND FREE ENERGY PREDICTED BY IDOCK:   -5.81 KCAL/MOL
REMARK 924 INTRA-LIGAND FREE ENERGY PREDICTED BY IDOCK:   -0.31 KCAL/MOL
REMARK 927      BINDING AFFINITY PREDICTED BY RF-SCORE:    0.00 PKD
ROOT
HETATM    1  N   UNL     1     -10.098  10.217  66.564  1.00  0.00    -0.222 N  
HETATM    2  C   UNL     1     -10.234  10.808  67.770  1.00  0.00    -0.182 C  
HETATM    3  H2  UNL     1      -9.435  10.620  65.901  1.00  0.00     0.000 HD 
HETATM    4  H1  UNL     1     -10.621   9.389  66.280  1.00  0.00     0.000 HD 
HETATM    5  O   UNL     1      -9.608  11.799  68.110  1.00  0.00    -0.181 OA 
ENDROOT
BRANCH   2   6
HETATM    6  O   UNL     1     -11.128  10.127  68.515  1.00  0.00    -0.245 OA 
BRANCH   6   7
HETATM    7  C   UNL     1     -12.075  10.931  69.248  1.00  0.00    -0.261 C  
HETATM    8  C   UNL     1     -11.806  10.874  70.766  1.00  0.00    -0.424 C  
HETATM    9  C   UNL     1     -12.787  11.766  71.548  1.00  0.00    -0.345 C  
HETATM   10  C   UNL     1     -11.839   9.442  71.291  1.00  0.00    -0.435 A  
HETATM   11  C   UNL     1     -10.708   8.897  71.915  1.00  0.00    -0.426 A  
HETATM   12  C   UNL     1     -12.979   8.635  71.145  1.00  0.00    -0.095 A  
HETATM   13  C   UNL     1     -12.979   7.313  71.592  1.00  0.00    -0.417 A  
HETATM   14  C   UNL     1     -10.711   7.574  72.365  1.00  0.00    -0.311 A  
HETATM   15  C   UNL     1     -11.843   6.782  72.198  1.00  0.00    -0.326 A  
BRANCH   9  16
HETATM   16  O   UNL     1     -12.683  13.134  71.111  1.00  0.00    -0.355 OA 
BRANCH  16  17
HETATM   17  C   UNL     1     -13.480  14.026  71.738  1.00  0.00    -0.392 C  
HETATM   18  H2  UNL     1     -12.812  15.437  70.322  1.00  0.00     0.000 HD 
HETATM   19  O   UNL     1     -14.200  13.812  72.699  1.00  0.00    -0.710 OA 
HETATM   20  H1  UNL     1     -13.997  15.904  71.606  1.00  0.00     0.000 HD 
HETATM   21  N   UNL     1     -13.394  15.231  71.133  1.00  0.00    -0.482 N  
ENDBRANCH  16  17
ENDBRANCH   9  16
ENDBRANCH   6   7
ENDBRANCH   2   6
TORSDOF 4
ENDMDL
MODEL       52
REMARK 921   NORMALIZED FREE ENERGY PREDICTED BY IDOCK:   -4.61 KCAL/MOL
REMARK 922        TOTAL FREE ENERGY PREDICTED BY IDOCK:   -6.08 KCAL/MOL
REMARK 923 INTER-LIGAND FREE ENERGY PREDICTED BY IDOCK:   -5.66 KCAL/MOL
REMARK 924 INTRA-LIGAND FREE ENERGY PREDICTED BY IDOCK:   -0.42 KCAL/MOL
REMARK 927      BINDING AFFINITY PREDICTED BY RF-SCORE:    0.00 PKD
ROOT
HETATM    1  N   UNL     1     -11.835  12.588  70.432  1.00  0.00    -0.550 N  
HETATM    2  C   UNL     1     -11.962  11.478  69.674  1.00  0.00    -0.339 C  
HETATM    3  H2  UNL     1     -12.000  12.509  71.436  1.00  0.00     0.000 HD 
HETATM    4  H1  UNL     1     -11.582  13.502  70.056  1.00  0.00     0.000 HD 
HETATM    5  O   UNL     1     -12.264  10.385  70.125  1.00  0.00    -0.273 OA 
ENDROOT
BRANCH   2   6
HETATM    6  O   UNL     1     -11.684  11.768  68.387  1.00  0.00    -0.302 OA 
BRANCH   6   7
HETATM    7  C   UNL     1     -10.560  12.645  68.170  1.00  0.00    -0.228 C  
HETATM    8  C   UNL     1     -10.864  13.690  67.076  1.00  0.00    -0.291 C  
HETATM    9  C   UNL     1      -9.683  14.656  66.874  1.00  0.00    -0.242 C  
HETATM   10  C   UNL     1     -11.255  13.028  65.759  1.00  0.00    -0.316 A  
HETATM   11  C   UNL     1     -12.507  13.292  65.186  1.00  0.00    -0.525 A  
HETATM   12  C   UNL     1     -10.393  12.132  65.105  1.00  0.00    -0.311 A  
HETATM   13  C   UNL     1     -10.783  11.502  63.922  1.00  0.00    -0.458 A  
HETATM   14  C   UNL     1     -12.894  12.662  64.000  1.00  0.00    -0.262 A  
HETATM   15  C   UNL     1     -12.035  11.764  63.373  1.00  0.00    -0.443 A  
BRANCH   9  16
HETATM   16  O   UNL     1      -9.380  15.346  68.100  1.00  0.00    -0.194 OA 
BRANCH  16  17
HETATM   17  C   UNL     1     -10.232  16.330  68.462  1.00  0.00    -0.247 C  
HETATM   18  H2  UNL     1     -10.407  15.335  70.312  1.00  0.00     0.000 HD 
HETATM   19  O   UNL     1     -10.565  17.291  67.788  1.00  0.00    -0.361 OA 
HETATM   20  H1  UNL     1     -11.319  16.864  69.993  1.00  0.00     0.000 HD 
HETATM   21  N   UNL     1     -10.676  16.121  69.720  1.00  0.00    -0.317 N  
ENDBRANCH  16  17
ENDBRANCH   9  16
ENDBRANCH   6   7
ENDBRANCH   2   6
TORSDOF 4
ENDMDL
MODEL       53
REMARK 921   NORMALIZED FREE ENERGY PREDICTED BY IDOCK:   -4.60 KCAL/MOL
REMARK 922        TOTAL FREE ENERGY PREDICTED BY IDOCK:   -6.07 KCAL/MOL
REMARK 923 INTER-LIGAND FREE ENERGY PREDICTED BY IDOCK:   -5.73 KCAL/MOL
REMARK 924 INTRA-LIGAND FREE ENERGY PREDICTED BY IDOCK:   -0.35 KCAL/MOL
REMARK 927      BINDING AFFINITY PREDICTED BY RF-SCORE:    0.00 PKD
ROOT
HETATM    1  N   UNL     1     -10.182  11.172  68.898  1.00  0.00    -0.219 N  
HETATM    2  C   UNL     1      -9.600  12.294  68.424  1.00  0.00    -0.183 C  
HETATM    3  H2  UNL     1      -9.595  10.351  69.050  1.00  0.00     0.000 HD 
HETATM    4  H1  UNL     1     -11.176  11.099  69.113  1.00  0.00     0.000 HD 
HETATM    5  O   UNL     1      -8.411  12.380  68.168  1.00  0.00    -0.164 OA 
ENDROOT
BRANCH   2   6
HETATM    6  O   UNL     1     -10.521  13.274  68.311  1.00  0.00    -0.237 OA 
BRANCH   6   7
HETATM    7  C   UNL     1     -10.061  14.499  67.705  1.00  0.00    -0.225 C  
HETATM    8  C   UNL     1     -11.044  14.997  66.626  1.00  0.00    -0.326 C  
HETATM    9  C   UNL     1     -10.580  16.327  66.008  1.00  0.00    -0.281 C  
HETATM   10  C   UNL     1     -11.271  13.947  65.543  1.00  0.00    -0.307 A  
HETATM   11  C   UNL     1     -12.562  13.454  65.303  1.00  0.00    -0.518 A  
HETATM   12  C   UNL     1     -10.206  13.435  64.783  1.00  0.00    -0.339 A  
HETATM   13  C   UNL     1     -10.425  12.443  63.826  1.00  0.00    -0.475 A  
HETATM   14  C   UNL     1     -12.779  12.462  64.342  1.00  0.00    -0.434 A  
HETATM   15  C   UNL     1     -11.710  11.955  63.609  1.00  0.00    -0.572 A  
BRANCH   9  16
HETATM   16  O   UNL     1     -10.458  17.340  67.024  1.00  0.00    -0.325 OA 
BRANCH  16  17
HETATM   17  C   UNL     1      -9.910  18.513  66.639  1.00  0.00    -0.354 C  
HETATM   18  H2  UNL     1      -8.532  18.249  68.212  1.00  0.00     0.000 HD 
HETATM   19  O   UNL     1     -10.268  19.214  65.708  1.00  0.00    -0.498 OA 
HETATM   20  H1  UNL     1      -8.449  19.706  67.143  1.00  0.00     0.000 HD 
HETATM   21  N   UNL     1      -8.862  18.820  67.434  1.00  0.00    -0.268 N  
ENDBRANCH  16  17
ENDBRANCH   9  16
ENDBRANCH   6   7
ENDBRANCH   2   6
TORSDOF 4
ENDMDL
MODEL       54
REMARK 921   NORMALIZED FREE ENERGY PREDICTED BY IDOCK:   -4.57 KCAL/MOL
REMARK 922        TOTAL FREE ENERGY PREDICTED BY IDOCK:   -6.03 KCAL/MOL
REMARK 923 INTER-LIGAND FREE ENERGY PREDICTED BY IDOCK:   -5.63 KCAL/MOL
REMARK 924 INTRA-LIGAND FREE ENERGY PREDICTED BY IDOCK:   -0.41 KCAL/MOL
REMARK 927      BINDING AFFINITY PREDICTED BY RF-SCORE:    0.00 PKD
ROOT
HETATM    1  N   UNL     1     -10.723  19.554  65.654  1.00  0.00    -0.435 N  
HETATM    2  C   UNL     1     -10.313  19.734  66.927  1.00  0.00    -0.476 C  
HETATM    3  H2  UNL     1     -10.506  20.279  64.970  1.00  0.00     0.000 HD 
HETATM    4  H1  UNL     1     -11.238  18.733  65.338  1.00  0.00     0.000 HD 
HETATM    5  O   UNL     1      -9.697  20.716  67.305  1.00  0.00    -0.465 OA 
ENDROOT
BRANCH   2   6
HETATM    6  O   UNL     1     -10.666  18.669  67.676  1.00  0.00    -0.427 OA 
BRANCH   6   7
HETATM    7  C   UNL     1     -10.887  17.440  66.955  1.00  0.00    -0.049 C  
HETATM    8  C   UNL     1     -10.086  16.274  67.570  1.00  0.00    -0.258 C  
HETATM    9  C   UNL     1     -10.354  14.952  66.831  1.00  0.00    -0.264 C  
HETATM   10  C   UNL     1      -8.592  16.578  67.613  1.00  0.00    -0.189 A  
HETATM   11  C   UNL     1      -7.913  16.591  68.841  1.00  0.00    -0.239 A  
HETATM   12  C   UNL     1      -7.870  16.871  66.444  1.00  0.00    -0.348 A  
HETATM   13  C   UNL     1      -6.512  17.189  66.506  1.00  0.00    -0.268 A  
HETATM   14  C   UNL     1      -6.553  16.908  68.899  1.00  0.00    -0.193 A  
HETATM   15  C   UNL     1      -5.856  17.212  67.733  1.00  0.00    -0.137 A  
BRANCH   9  16
HETATM   16  O   UNL     1     -11.755  14.623  66.875  1.00  0.00    -0.375 OA 
BRANCH  16  17
HETATM   17  C   UNL     1     -12.196  13.749  65.944  1.00  0.00    -0.466 C  
HETATM   18  H2  UNL     1     -12.249  15.380  64.610  1.00  0.00     0.000 HD 
HETATM   19  O   UNL     1     -12.378  12.553  66.095  1.00  0.00    -0.596 OA 
HETATM   20  H1  UNL     1     -12.736  13.725  64.068  1.00  0.00     0.000 HD 
HETATM   21  N   UNL     1     -12.403  14.385  64.771  1.00  0.00    -0.440 N  
ENDBRANCH  16  17
ENDBRANCH   9  16
ENDBRANCH   6   7
ENDBRANCH   2   6
TORSDOF 4
ENDMDL
MODEL       55
REMARK 921   NORMALIZED FREE ENERGY PREDICTED BY IDOCK:   -4.54 KCAL/MOL
REMARK 922        TOTAL FREE ENERGY PREDICTED BY IDOCK:   -6.00 KCAL/MOL
REMARK 923 INTER-LIGAND FREE ENERGY PREDICTED BY IDOCK:   -5.73 KCAL/MOL
REMARK 924 INTRA-LIGAND FREE ENERGY PREDICTED BY IDOCK:   -0.26 KCAL/MOL
REMARK 927      BINDING AFFINITY PREDICTED BY RF-SCORE:    0.00 PKD
ROOT
HETATM    1  N   UNL     1     -13.688  15.299  70.784  1.00  0.00    -0.766 N  
HETATM    2  C   UNL     1     -13.423  14.160  71.459  1.00  0.00    -0.344 C  
HETATM    3  H2  UNL     1     -14.418  15.914  71.144  1.00  0.00     0.000 HD 
HETATM    4  H1  UNL     1     -13.199  15.578  69.934  1.00  0.00     0.000 HD 
HETATM    5  O   UNL     1     -14.009  13.827  72.476  1.00  0.00    -0.655 OA 
ENDROOT
BRANCH   2   6
HETATM    6  O   UNL     1     -12.421  13.492  70.853  1.00  0.00    -0.356 OA 
BRANCH   6   7
HETATM    7  C   UNL     1     -12.510  12.053  70.895  1.00  0.00    -0.288 C  
HETATM    8  C   UNL     1     -11.255  11.393  70.288  1.00  0.00     0.035 C  
HETATM    9  C   UNL     1     -11.327   9.858  70.372  1.00  0.00    -0.307 C  
HETATM   10  C   UNL     1     -11.019  11.846  68.851  1.00  0.00    -0.285 A  
HETATM   11  C   UNL     1      -9.823  12.493  68.507  1.00  0.00    -0.153 A  
HETATM   12  C   UNL     1     -11.988  11.652  67.853  1.00  0.00    -0.159 A  
HETATM   13  C   UNL     1     -11.774  12.112  66.552  1.00  0.00    -0.392 A  
HETATM   14  C   UNL     1      -9.610  12.950  67.204  1.00  0.00    -0.225 A  
HETATM   15  C   UNL     1     -10.587  12.764  66.230  1.00  0.00    -0.275 A  
BRANCH   9  16
HETATM   16  O   UNL     1     -11.456   9.433  71.742  1.00  0.00    -0.380 OA 
BRANCH  16  17
HETATM   17  C   UNL     1     -12.565   8.725  72.048  1.00  0.00    -0.385 C  
HETATM   18  H2  UNL     1     -11.613   7.073  71.148  1.00  0.00     0.000 HD 
HETATM   19  O   UNL     1     -13.555   9.134  72.632  1.00  0.00    -0.465 OA 
HETATM   20  H1  UNL     1     -13.269   6.913  71.859  1.00  0.00     0.000 HD 
HETATM   21  N   UNL     1     -12.431   7.448  71.628  1.00  0.00    -0.334 N  
ENDBRANCH  16  17
ENDBRANCH   9  16
ENDBRANCH   6   7
ENDBRANCH   2   6
TORSDOF 4
ENDMDL
MODEL       56
REMARK 921   NORMALIZED FREE ENERGY PREDICTED BY IDOCK:   -4.51 KCAL/MOL
REMARK 922        TOTAL FREE ENERGY PREDICTED BY IDOCK:   -5.97 KCAL/MOL
REMARK 923 INTER-LIGAND FREE ENERGY PREDICTED BY IDOCK:   -5.68 KCAL/MOL
REMARK 924 INTRA-LIGAND FREE ENERGY PREDICTED BY IDOCK:   -0.28 KCAL/MOL
REMARK 927      BINDING AFFINITY PREDICTED BY RF-SCORE:    0.00 PKD
ROOT
HETATM    1  N   UNL     1      -9.299   9.480  64.323  1.00  0.00    -0.421 N  
HETATM    2  C   UNL     1      -9.518   9.329  65.646  1.00  0.00    -0.256 C  
HETATM    3  H2  UNL     1      -8.481   9.027  63.914  1.00  0.00     0.000 HD 
HETATM    4  H1  UNL     1      -9.905  10.024  63.709  1.00  0.00     0.000 HD 
HETATM    5  O   UNL     1      -8.792   8.679  66.380  1.00  0.00    -0.125 OA 
ENDROOT
BRANCH   2   6
HETATM    6  O   UNL     1     -10.649   9.974  65.999  1.00  0.00    -0.120 OA 
BRANCH   6   7
HETATM    7  C   UNL     1     -10.722  10.406  67.373  1.00  0.00    -0.283 C  
HETATM    8  C   UNL     1     -11.743  11.547  67.552  1.00  0.00    -0.262 C  
HETATM    9  C   UNL     1     -11.857  11.979  69.024  1.00  0.00    -0.315 C  
HETATM   10  C   UNL     1     -11.416  12.741  66.660  1.00  0.00    -0.404 A  
HETATM   11  C   UNL     1     -12.346  13.181  65.707  1.00  0.00    -0.496 A  
HETATM   12  C   UNL     1     -10.183  13.408  66.752  1.00  0.00    -0.259 A  
HETATM   13  C   UNL     1      -9.882  14.471  65.899  1.00  0.00    -0.347 A  
HETATM   14  C   UNL     1     -12.043  14.248  64.856  1.00  0.00    -0.442 A  
HETATM   15  C   UNL     1     -10.810  14.888  64.949  1.00  0.00    -0.431 A  
BRANCH   9  16
HETATM   16  O   UNL     1     -12.258  10.868  69.847  1.00  0.00    -0.325 OA 
BRANCH  16  17
HETATM   17  C   UNL     1     -12.674  11.166  71.097  1.00  0.00    -0.408 C  
HETATM   18  H2  UNL     1     -12.497   9.109  71.518  1.00  0.00     0.000 HD 
HETATM   19  O   UNL     1     -12.949  12.273  71.530  1.00  0.00    -0.386 OA 
HETATM   20  H1  UNL     1     -13.046  10.270  72.791  1.00  0.00     0.000 HD 
HETATM   21  N   UNL     1     -12.732  10.045  71.847  1.00  0.00    -0.405 N  
ENDBRANCH  16  17
ENDBRANCH   9  16
ENDBRANCH   6   7
ENDBRANCH   2   6
TORSDOF 4
ENDMDL
MODEL       57
REMARK 921   NORMALIZED FREE ENERGY PREDICTED BY IDOCK:   -4.50 KCAL/MOL
REMARK 922        TOTAL FREE ENERGY PREDICTED BY IDOCK:   -5.96 KCAL/MOL
REMARK 923 INTER-LIGAND FREE ENERGY PREDICTED BY IDOCK:   -5.61 KCAL/MOL
REMARK 924 INTRA-LIGAND FREE ENERGY PREDICTED BY IDOCK:   -0.35 KCAL/MOL
REMARK 927      BINDING AFFINITY PREDICTED BY RF-SCORE:    0.00 PKD
ROOT
HETATM    1  N   UNL     1     -12.243  13.125  62.970  1.00  0.00    -0.850 N  
HETATM    2  C   UNL     1     -12.266  13.435  64.284  1.00  0.00    -0.392 C  
HETATM    3  H2  UNL     1     -12.981  12.521  62.604  1.00  0.00     0.000 HD 
HETATM    4  H1  UNL     1     -11.530  13.459  62.324  1.00  0.00     0.000 HD 
HETATM    5  O   UNL     1     -13.120  13.034  65.057  1.00  0.00    -0.761 OA 
ENDROOT
BRANCH   2   6
HETATM    6  O   UNL     1     -11.236  14.254  64.578  1.00  0.00    -0.371 OA 
BRANCH   6   7
HETATM    7  C   UNL     1     -10.075  13.620  65.154  1.00  0.00    -0.275 C  
HETATM    8  C   UNL     1      -9.889  14.022  66.631  1.00  0.00    -0.288 C  
HETATM    9  C   UNL     1      -8.678  13.313  67.262  1.00  0.00    -0.214 C  
HETATM   10  C   UNL     1      -9.776  15.535  66.794  1.00  0.00    -0.252 A  
HETATM   11  C   UNL     1     -10.701  16.226  67.591  1.00  0.00    -0.311 A  
HETATM   12  C   UNL     1      -8.772  16.269  66.141  1.00  0.00    -0.353 A  
HETATM   13  C   UNL     1      -8.709  17.658  66.266  1.00  0.00    -0.212 A  
HETATM   14  C   UNL     1     -10.634  17.616  67.716  1.00  0.00    -0.380 A  
HETATM   15  C   UNL     1      -9.642  18.331  67.050  1.00  0.00    -0.291 A  
BRANCH   9  16
HETATM   16  O   UNL     1      -8.835  11.884  67.188  1.00  0.00    -0.167 OA 
BRANCH  16  17
HETATM   17  C   UNL     1      -8.950  11.231  68.365  1.00  0.00    -0.167 C  
HETATM   18  H2  UNL     1      -6.848  11.071  68.345  1.00  0.00     0.000 HD 
HETATM   19  O   UNL     1      -9.982  10.993  68.970  1.00  0.00    -0.205 OA 
HETATM   20  H1  UNL     1      -7.816  10.383  69.710  1.00  0.00     0.000 HD 
HETATM   21  N   UNL     1      -7.729  10.876  68.820  1.00  0.00    -0.120 N  
ENDBRANCH  16  17
ENDBRANCH   9  16
ENDBRANCH   6   7
ENDBRANCH   2   6
TORSDOF 4
ENDMDL
MODEL       58
REMARK 921   NORMALIZED FREE ENERGY PREDICTED BY IDOCK:   -4.50 KCAL/MOL
REMARK 922        TOTAL FREE ENERGY PREDICTED BY IDOCK:   -5.95 KCAL/MOL
REMARK 923 INTER-LIGAND FREE ENERGY PREDICTED BY IDOCK:   -5.54 KCAL/MOL
REMARK 924 INTRA-LIGAND FREE ENERGY PREDICTED BY IDOCK:   -0.41 KCAL/MOL
REMARK 927      BINDING AFFINITY PREDICTED BY RF-SCORE:    0.00 PKD
ROOT
HETATM    1  N   UNL     1     -12.845  15.932  69.794  1.00  0.00    -0.555 N  
HETATM    2  C   UNL     1     -11.512  15.930  69.582  1.00  0.00    -0.346 C  
HETATM    3  H2  UNL     1     -13.379  16.752  69.504  1.00  0.00     0.000 HD 
HETATM    4  H1  UNL     1     -13.348  15.158  70.228  1.00  0.00     0.000 HD 
HETATM    5  O   UNL     1     -10.911  16.856  69.062  1.00  0.00    -0.314 OA 
ENDROOT
BRANCH   2   6
HETATM    6  O   UNL     1     -10.983  14.763  70.004  1.00  0.00    -0.227 OA 
BRANCH   6   7
HETATM    7  C   UNL     1     -11.916  13.677  70.173  1.00  0.00    -0.337 C  
HETATM    8  C   UNL     1     -11.437  12.404  69.444  1.00  0.00    -0.336 C  
HETATM    9  C   UNL     1     -12.408  11.230  69.661  1.00  0.00    -0.194 C  
HETATM   10  C   UNL     1     -11.215  12.657  67.957  1.00  0.00    -0.308 A  
HETATM   11  C   UNL     1      -9.948  12.450  67.391  1.00  0.00    -0.203 A  
HETATM   12  C   UNL     1     -12.251  13.120  67.129  1.00  0.00    -0.250 A  
HETATM   13  C   UNL     1     -12.021  13.388  65.779  1.00  0.00    -0.447 A  
HETATM   14  C   UNL     1      -9.721  12.716  66.038  1.00  0.00    -0.232 A  
HETATM   15  C   UNL     1     -10.755  13.190  65.235  1.00  0.00    -0.318 A  
BRANCH   9  16
HETATM   16  O   UNL     1     -12.540  10.936  71.063  1.00  0.00    -0.354 OA 
BRANCH  16  17
HETATM   17  C   UNL     1     -11.984   9.781  71.490  1.00  0.00    -0.407 C  
HETATM   18  H2  UNL     1     -13.815   9.397  72.460  1.00  0.00     0.000 HD 
HETATM   19  O   UNL     1     -10.861   9.377  71.241  1.00  0.00    -0.314 OA 
HETATM   20  H1  UNL     1     -12.447   8.219  72.566  1.00  0.00     0.000 HD 
HETATM   21  N   UNL     1     -12.867   9.091  72.244  1.00  0.00    -0.403 N  
ENDBRANCH  16  17
ENDBRANCH   9  16
ENDBRANCH   6   7
ENDBRANCH   2   6
TORSDOF 4
ENDMDL
MODEL       59
REMARK 921   NORMALIZED FREE ENERGY PREDICTED BY IDOCK:   -4.49 KCAL/MOL
REMARK 922        TOTAL FREE ENERGY PREDICTED BY IDOCK:   -5.94 KCAL/MOL
REMARK 923 INTER-LIGAND FREE ENERGY PREDICTED BY IDOCK:   -5.65 KCAL/MOL
REMARK 924 INTRA-LIGAND FREE ENERGY PREDICTED BY IDOCK:   -0.29 KCAL/MOL
REMARK 927      BINDING AFFINITY PREDICTED BY RF-SCORE:    0.00 PKD
ROOT
HETATM    1  N   UNL     1     -12.035   7.904  72.775  1.00  0.00    -0.615 N  
HETATM    2  C   UNL     1     -12.618   7.896  71.558  1.00  0.00    -0.321 C  
HETATM    3  H2  UNL     1     -12.392   7.263  73.485  1.00  0.00     0.000 HD 
HETATM    4  H1  UNL     1     -11.257   8.514  73.024  1.00  0.00     0.000 HD 
HETATM    5  O   UNL     1     -13.549   7.165  71.260  1.00  0.00    -0.353 OA 
ENDROOT
BRANCH   2   6
HETATM    6  O   UNL     1     -12.003   8.784  70.750  1.00  0.00    -0.246 OA 
BRANCH   6   7
HETATM    7  C   UNL     1     -11.985  10.148  71.216  1.00  0.00    -0.382 C  
HETATM    8  C   UNL     1     -12.141  11.144  70.048  1.00  0.00    -0.437 C  
HETATM    9  C   UNL     1     -12.168  12.600  70.546  1.00  0.00    -0.299 C  
HETATM   10  C   UNL     1     -11.056  10.952  68.994  1.00  0.00    -0.302 A  
HETATM   11  C   UNL     1     -11.408  10.636  67.674  1.00  0.00    -0.284 A  
HETATM   12  C   UNL     1      -9.693  11.061  69.317  1.00  0.00    -0.033 A  
HETATM   13  C   UNL     1      -8.711  10.839  68.351  1.00  0.00    -0.142 A  
HETATM   14  C   UNL     1     -10.422  10.417  66.707  1.00  0.00    -0.287 A  
HETATM   15  C   UNL     1      -9.076  10.513  67.048  1.00  0.00    -0.156 A  
BRANCH   9  16
HETATM   16  O   UNL     1     -13.254  12.797  71.471  1.00  0.00    -0.346 OA 
BRANCH  16  17
HETATM   17  C   UNL     1     -13.345  14.021  72.036  1.00  0.00    -0.427 C  
HETATM   18  H2  UNL     1     -13.614  14.771  70.085  1.00  0.00     0.000 HD 
HETATM   19  O   UNL     1     -13.280  14.281  73.226  1.00  0.00    -0.614 OA 
HETATM   20  H1  UNL     1     -13.612  15.883  71.513  1.00  0.00     0.000 HD 
HETATM   21  N   UNL     1     -13.543  14.958  71.085  1.00  0.00    -0.409 N  
ENDBRANCH  16  17
ENDBRANCH   9  16
ENDBRANCH   6   7
ENDBRANCH   2   6
TORSDOF 4
ENDMDL
MODEL       60
REMARK 921   NORMALIZED FREE ENERGY PREDICTED BY IDOCK:   -4.47 KCAL/MOL
REMARK 922        TOTAL FREE ENERGY PREDICTED BY IDOCK:   -5.92 KCAL/MOL
REMARK 923 INTER-LIGAND FREE ENERGY PREDICTED BY IDOCK:   -5.61 KCAL/MOL
REMARK 924 INTRA-LIGAND FREE ENERGY PREDICTED BY IDOCK:   -0.31 KCAL/MOL
REMARK 927      BINDING AFFINITY PREDICTED BY RF-SCORE:    0.00 PKD
ROOT
HETATM    1  N   UNL     1      -7.391  12.417  68.920  1.00  0.00    -0.249 N  
HETATM    2  C   UNL     1      -7.291  12.878  67.655  1.00  0.00    -0.145 C  
HETATM    3  H2  UNL     1      -6.544  12.379  69.488  1.00  0.00     0.000 HD 
HETATM    4  H1  UNL     1      -8.266  12.103  69.338  1.00  0.00     0.000 HD 
HETATM    5  O   UNL     1      -6.243  13.253  67.155  1.00  0.00    -0.272 OA 
ENDROOT
BRANCH   2   6
HETATM    6  O   UNL     1      -8.506  12.877  67.071  1.00  0.00    -0.192 OA 
BRANCH   6   7
HETATM    7  C   UNL     1      -9.632  12.754  67.964  1.00  0.00    -0.217 C  
HETATM    8  C   UNL     1     -10.713  11.821  67.382  1.00  0.00    -0.277 C  
HETATM    9  C   UNL     1     -11.896  11.652  68.352  1.00  0.00    -0.278 C  
HETATM   10  C   UNL     1     -11.196  12.300  66.017  1.00  0.00    -0.375 A  
HETATM   11  C   UNL     1     -11.062  11.471  64.894  1.00  0.00    -0.282 A  
HETATM   12  C   UNL     1     -11.759  13.576  65.845  1.00  0.00    -0.380 A  
HETATM   13  C   UNL     1     -12.157  14.016  64.582  1.00  0.00    -0.462 A  
HETATM   14  C   UNL     1     -11.464  11.913  63.630  1.00  0.00    -0.551 A  
HETATM   15  C   UNL     1     -12.005  13.186  63.474  1.00  0.00    -0.580 A  
BRANCH   9  16
HETATM   16  O   UNL     1     -11.445  11.110  69.607  1.00  0.00    -0.257 OA 
BRANCH  16  17
HETATM   17  C   UNL     1     -12.292  11.233  70.652  1.00  0.00    -0.383 C  
HETATM   18  H2  UNL     1     -12.192   9.134  70.825  1.00  0.00     0.000 HD 
HETATM   19  O   UNL     1     -12.751  12.269  71.102  1.00  0.00    -0.353 OA 
HETATM   20  H1  UNL     1     -13.208  10.109  71.961  1.00  0.00     0.000 HD 
HETATM   21  N   UNL     1     -12.568  10.017  71.171  1.00  0.00    -0.352 N  
ENDBRANCH  16  17
ENDBRANCH   9  16
ENDBRANCH   6   7
ENDBRANCH   2   6
TORSDOF 4
ENDMDL
MODEL       61
REMARK 921   NORMALIZED FREE ENERGY PREDICTED BY IDOCK:   -4.47 KCAL/MOL
REMARK 922        TOTAL FREE ENERGY PREDICTED BY IDOCK:   -5.91 KCAL/MOL
REMARK 923 INTER-LIGAND FREE ENERGY PREDICTED BY IDOCK:   -5.76 KCAL/MOL
REMARK 924 INTRA-LIGAND FREE ENERGY PREDICTED BY IDOCK:   -0.15 KCAL/MOL
REMARK 927      BINDING AFFINITY PREDICTED BY RF-SCORE:    0.00 PKD
ROOT
HETATM    1  N   UNL     1      -7.248  11.716  69.462  1.00  0.00    -0.345 N  
HETATM    2  C   UNL     1      -7.554  12.543  68.440  1.00  0.00    -0.129 C  
HETATM    3  H2  UNL     1      -6.423  11.122  69.371  1.00  0.00     0.000 HD 
HETATM    4  H1  UNL     1      -7.795  11.652  70.319  1.00  0.00     0.000 HD 
HETATM    5  O   UNL     1      -6.898  12.618  67.414  1.00  0.00    -0.145 OA 
ENDROOT
BRANCH   2   6
HETATM    6  O   UNL     1      -8.653  13.262  68.746  1.00  0.00    -0.027 OA 
BRANCH   6   7
HETATM    7  C   UNL     1      -9.639  13.376  67.701  1.00  0.00    -0.219 C  
HETATM    8  C   UNL     1     -10.585  14.570  67.947  1.00  0.00    -0.243 C  
HETATM    9  C   UNL     1     -11.611  14.721  66.810  1.00  0.00    -0.324 C  
HETATM   10  C   UNL     1     -11.285  14.465  69.298  1.00  0.00    -0.308 A  
HETATM   11  C   UNL     1     -11.117  15.475  70.256  1.00  0.00    -0.345 A  
HETATM   12  C   UNL     1     -12.087  13.358  69.624  1.00  0.00    -0.349 A  
HETATM   13  C   UNL     1     -12.685  13.256  70.881  1.00  0.00    -0.332 A  
HETATM   14  C   UNL     1     -11.720  15.373  71.512  1.00  0.00    -0.467 A  
HETATM   15  C   UNL     1     -12.498  14.261  71.826  1.00  0.00    -0.396 A  
BRANCH   9  16
HETATM   16  O   UNL     1     -10.943  14.914  65.549  1.00  0.00    -0.319 OA 
BRANCH  16  17
HETATM   17  C   UNL     1     -11.000  16.157  65.024  1.00  0.00    -0.344 C  
HETATM   18  H2  UNL     1      -9.802  16.768  66.648  1.00  0.00     0.000 HD 
HETATM   19  O   UNL     1     -11.572  16.491  64.000  1.00  0.00    -1.154 OA 
HETATM   20  H1  UNL     1     -10.343  17.958  65.397  1.00  0.00     0.000 HD 
HETATM   21  N   UNL     1     -10.300  17.019  65.794  1.00  0.00    -0.314 N  
ENDBRANCH  16  17
ENDBRANCH   9  16
ENDBRANCH   6   7
ENDBRANCH   2   6
TORSDOF 4
ENDMDL
MODEL       62
REMARK 921   NORMALIZED FREE ENERGY PREDICTED BY IDOCK:   -4.44 KCAL/MOL
REMARK 922        TOTAL FREE ENERGY PREDICTED BY IDOCK:   -5.88 KCAL/MOL
REMARK 923 INTER-LIGAND FREE ENERGY PREDICTED BY IDOCK:   -5.50 KCAL/MOL
REMARK 924 INTRA-LIGAND FREE ENERGY PREDICTED BY IDOCK:   -0.37 KCAL/MOL
REMARK 927      BINDING AFFINITY PREDICTED BY RF-SCORE:    0.00 PKD
ROOT
HETATM    1  N   UNL     1     -13.300  15.838  70.521  1.00  0.00    -0.757 N  
HETATM    2  C   UNL     1     -12.111  15.422  70.035  1.00  0.00    -0.359 C  
HETATM    3  H2  UNL     1     -13.435  15.838  71.532  1.00  0.00     0.000 HD 
HETATM    4  H1  UNL     1     -14.071  16.151  69.932  1.00  0.00     0.000 HD 
HETATM    5  O   UNL     1     -11.189  15.047  70.740  1.00  0.00    -0.277 OA 
ENDROOT
BRANCH   2   6
HETATM    6  O   UNL     1     -12.109  15.513  68.689  1.00  0.00    -0.271 OA 
BRANCH   6   7
HETATM    7  C   UNL     1     -11.073  16.337  68.118  1.00  0.00    -0.329 C  
HETATM    8  C   UNL     1     -10.632  15.811  66.737  1.00  0.00    -0.309 C  
HETATM    9  C   UNL     1      -9.559  16.714  66.104  1.00  0.00    -0.294 C  
HETATM   10  C   UNL     1     -10.150  14.366  66.812  1.00  0.00    -0.266 A  
HETATM   11  C   UNL     1     -10.790  13.372  66.058  1.00  0.00    -0.281 A  
HETATM   12  C   UNL     1      -9.082  13.993  67.644  1.00  0.00    -0.192 A  
HETATM   13  C   UNL     1      -8.680  12.659  67.735  1.00  0.00    -0.179 A  
HETATM   14  C   UNL     1     -10.385  12.038  66.148  1.00  0.00    -0.257 A  
HETATM   15  C   UNL     1      -9.335  11.682  66.990  1.00  0.00    -0.186 A  
BRANCH   9  16
HETATM   16  O   UNL     1     -10.055  18.056  65.950  1.00  0.00    -0.536 OA 
BRANCH  16  17
HETATM   17  C   UNL     1      -9.180  19.053  66.207  1.00  0.00    -0.292 C  
HETATM   18  H2  UNL     1     -10.855  20.323  66.358  1.00  0.00     0.000 HD 
HETATM   19  O   UNL     1      -7.966  18.957  66.279  1.00  0.00    -0.279 OA 
HETATM   20  H1  UNL     1      -9.181  20.966  66.595  1.00  0.00     0.000 HD 
HETATM   21  N   UNL     1      -9.842  20.214  66.400  1.00  0.00    -0.443 N  
ENDBRANCH  16  17
ENDBRANCH   9  16
ENDBRANCH   6   7
ENDBRANCH   2   6
TORSDOF 4
ENDMDL
MODEL       63
REMARK 921   NORMALIZED FREE ENERGY PREDICTED BY IDOCK:   -4.43 KCAL/MOL
REMARK 922        TOTAL FREE ENERGY PREDICTED BY IDOCK:   -5.86 KCAL/MOL
REMARK 923 INTER-LIGAND FREE ENERGY PREDICTED BY IDOCK:   -5.48 KCAL/MOL
REMARK 924 INTRA-LIGAND FREE ENERGY PREDICTED BY IDOCK:   -0.38 KCAL/MOL
REMARK 927      BINDING AFFINITY PREDICTED BY RF-SCORE:    0.00 PKD
ROOT
HETATM    1  N   UNL     1     -13.994   9.216  72.762  1.00  0.00    -0.850 N  
HETATM    2  C   UNL     1     -13.164   9.975  72.016  1.00  0.00    -0.443 C  
HETATM    3  H2  UNL     1     -14.795   9.668  73.204  1.00  0.00     0.000 HD 
HETATM    4  H1  UNL     1     -13.864   8.215  72.909  1.00  0.00     0.000 HD 
HETATM    5  O   UNL     1     -13.320  11.173  71.841  1.00  0.00    -0.417 OA 
ENDROOT
BRANCH   2   6
HETATM    6  O   UNL     1     -12.184   9.207  71.497  1.00  0.00    -0.309 OA 
BRANCH   6   7
HETATM    7  C   UNL     1     -11.130   9.914  70.813  1.00  0.00    -0.347 C  
HETATM    8  C   UNL     1     -10.695   9.175  69.531  1.00  0.00    -0.226 C  
HETATM    9  C   UNL     1      -9.600   9.949  68.776  1.00  0.00    -0.160 C  
HETATM   10  C   UNL     1     -10.242   7.749  69.829  1.00  0.00    -0.211 A  
HETATM   11  C   UNL     1     -10.900   6.664  69.231  1.00  0.00    -0.335 A  
HETATM   12  C   UNL     1      -9.185   7.486  70.716  1.00  0.00    -0.158 A  
HETATM   13  C   UNL     1      -8.811   6.174  71.011  1.00  0.00    -0.139 A  
HETATM   14  C   UNL     1     -10.523   5.351  69.526  1.00  0.00    -0.343 A  
HETATM   15  C   UNL     1      -9.483   5.107  70.420  1.00  0.00    -0.229 A  
BRANCH   9  16
HETATM   16  O   UNL     1     -10.068  11.262  68.415  1.00  0.00    -0.181 OA 
BRANCH  16  17
HETATM   17  C   UNL     1     -10.866  11.337  67.328  1.00  0.00    -0.267 C  
HETATM   18  H2  UNL     1      -9.226  10.609  66.222  1.00  0.00     0.000 HD 
HETATM   19  O   UNL     1     -12.031  11.698  67.302  1.00  0.00    -0.627 OA 
HETATM   20  H1  UNL     1     -10.798  10.985  65.409  1.00  0.00     0.000 HD 
HETATM   21  N   UNL     1     -10.195  10.928  66.230  1.00  0.00    -0.240 N  
ENDBRANCH  16  17
ENDBRANCH   9  16
ENDBRANCH   6   7
ENDBRANCH   2   6
TORSDOF 4
ENDMDL
MODEL       64
REMARK 921   NORMALIZED FREE ENERGY PREDICTED BY IDOCK:   -4.42 KCAL/MOL
REMARK 922        TOTAL FREE ENERGY PREDICTED BY IDOCK:   -5.86 KCAL/MOL
REMARK 923 INTER-LIGAND FREE ENERGY PREDICTED BY IDOCK:   -5.56 KCAL/MOL
REMARK 924 INTRA-LIGAND FREE ENERGY PREDICTED BY IDOCK:   -0.29 KCAL/MOL
REMARK 927      BINDING AFFINITY PREDICTED BY RF-SCORE:    0.00 PKD
ROOT
HETATM    1  N   UNL     1     -12.354  12.701  63.875  1.00  0.00    -0.591 N  
HETATM    2  C   UNL     1     -12.433  13.359  65.051  1.00  0.00    -0.428 C  
HETATM    3  H2  UNL     1     -13.030  12.931  63.147  1.00  0.00     0.000 HD 
HETATM    4  H1  UNL     1     -11.655  11.985  63.675  1.00  0.00     0.000 HD 
HETATM    5  O   UNL     1     -13.269  14.215  65.290  1.00  0.00    -0.760 OA 
ENDROOT
BRANCH   2   6
HETATM    6  O   UNL     1     -11.451  12.942  65.876  1.00  0.00    -0.317 OA 
BRANCH   6   7
HETATM    7  C   UNL     1     -11.884  12.314  67.099  1.00  0.00    -0.258 C  
HETATM    8  C   UNL     1     -10.684  11.901  67.976  1.00  0.00    -0.242 C  
HETATM    9  C   UNL     1     -11.143  11.271  69.303  1.00  0.00    -0.255 C  
HETATM   10  C   UNL     1      -9.737  10.966  67.231  1.00  0.00    -0.189 A  
HETATM   11  C   UNL     1      -8.398  11.334  67.034  1.00  0.00    -0.153 A  
HETATM   12  C   UNL     1     -10.179   9.739  66.709  1.00  0.00    -0.300 A  
HETATM   13  C   UNL     1      -9.311   8.914  65.992  1.00  0.00    -0.306 A  
HETATM   14  C   UNL     1      -7.530  10.505  66.319  1.00  0.00    -0.133 A  
HETATM   15  C   UNL     1      -7.988   9.300  65.794  1.00  0.00    -0.109 A  
BRANCH   9  16
HETATM   16  O   UNL     1     -11.960  12.195  70.044  1.00  0.00    -0.329 OA 
BRANCH  16  17
HETATM   17  C   UNL     1     -12.573  11.706  71.144  1.00  0.00    -0.335 C  
HETATM   18  H2  UNL     1     -11.892   9.807  70.531  1.00  0.00     0.000 HD 
HETATM   19  O   UNL     1     -13.183  12.345  71.985  1.00  0.00    -0.481 OA 
HETATM   20  H1  UNL     1     -12.869   9.997  72.042  1.00  0.00     0.000 HD 
HETATM   21  N   UNL     1     -12.406  10.367  71.211  1.00  0.00    -0.377 N  
ENDBRANCH  16  17
ENDBRANCH   9  16
ENDBRANCH   6   7
ENDBRANCH   2   6
TORSDOF 4
ENDMDL
MODEL       65
REMARK 921   NORMALIZED FREE ENERGY PREDICTED BY IDOCK:   -4.36 KCAL/MOL
REMARK 922        TOTAL FREE ENERGY PREDICTED BY IDOCK:   -5.78 KCAL/MOL
REMARK 923 INTER-LIGAND FREE ENERGY PREDICTED BY IDOCK:   -5.58 KCAL/MOL
REMARK 924 INTRA-LIGAND FREE ENERGY PREDICTED BY IDOCK:   -0.21 KCAL/MOL
REMARK 927      BINDING AFFINITY PREDICTED BY RF-SCORE:    0.00 PKD
ROOT
HETATM    1  N   UNL     1      -7.035  11.728  66.440  1.00  0.00    -0.370 N  
HETATM    2  C   UNL     1      -8.240  11.798  67.046  1.00  0.00    -0.172 C  
HETATM    3  H2  UNL     1      -6.550  10.831  66.433  1.00  0.00     0.000 HD 
HETATM    4  H1  UNL     1      -6.583  12.524  65.990  1.00  0.00     0.000 HD 
HETATM    5  O   UNL     1      -8.780  10.846  67.585  1.00  0.00    -0.126 OA 
ENDROOT
BRANCH   2   6
HETATM    6  O   UNL     1      -8.736  13.048  66.935  1.00  0.00    -0.207 OA 
BRANCH   6   7
HETATM    7  C   UNL     1      -9.994  13.163  66.240  1.00  0.00    -0.285 C  
HETATM    8  C   UNL     1     -10.101  14.507  65.489  1.00  0.00    -0.394 C  
HETATM    9  C   UNL     1     -11.423  14.615  64.710  1.00  0.00    -0.410 C  
HETATM   10  C   UNL     1      -9.929  15.694  66.432  1.00  0.00    -0.298 A  
HETATM   11  C   UNL     1      -8.892  16.613  66.220  1.00  0.00    -0.348 A  
HETATM   12  C   UNL     1     -10.779  15.883  67.535  1.00  0.00    -0.318 A  
HETATM   13  C   UNL     1     -10.581  16.950  68.412  1.00  0.00    -0.365 A  
HETATM   14  C   UNL     1      -8.698  17.683  67.099  1.00  0.00    -0.252 A  
HETATM   15  C   UNL     1      -9.538  17.847  68.197  1.00  0.00    -0.306 A  
BRANCH   9  16
HETATM   16  O   UNL     1     -11.536  13.543  63.755  1.00  0.00    -0.313 OA 
BRANCH  16  17
HETATM   17  C   UNL     1     -12.492  12.620  63.999  1.00  0.00    -0.399 C  
HETATM   18  H2  UNL     1     -11.756  11.588  62.315  1.00  0.00     0.000 HD 
HETATM   19  O   UNL     1     -13.301  12.631  64.912  1.00  0.00    -0.741 OA 
HETATM   20  H1  UNL     1     -13.150  10.935  63.265  1.00  0.00     0.000 HD 
HETATM   21  N   UNL     1     -12.428  11.632  63.081  1.00  0.00    -0.272 N  
ENDBRANCH  16  17
ENDBRANCH   9  16
ENDBRANCH   6   7
ENDBRANCH   2   6
TORSDOF 4
ENDMDL
MODEL       66
REMARK 921   NORMALIZED FREE ENERGY PREDICTED BY IDOCK:   -4.36 KCAL/MOL
REMARK 922        TOTAL FREE ENERGY PREDICTED BY IDOCK:   -5.78 KCAL/MOL
REMARK 923 INTER-LIGAND FREE ENERGY PREDICTED BY IDOCK:   -5.58 KCAL/MOL
REMARK 924 INTRA-LIGAND FREE ENERGY PREDICTED BY IDOCK:   -0.20 KCAL/MOL
REMARK 927      BINDING AFFINITY PREDICTED BY RF-SCORE:    0.00 PKD
ROOT
HETATM    1  N   UNL     1      -7.024  17.030  66.362  1.00  0.00    -0.253 N  
HETATM    2  C   UNL     1      -7.334  16.439  67.535  1.00  0.00    -0.145 C  
HETATM    3  H2  UNL     1      -6.278  17.726  66.354  1.00  0.00     0.000 HD 
HETATM    4  H1  UNL     1      -7.496  16.820  65.482  1.00  0.00     0.000 HD 
HETATM    5  O   UNL     1      -6.769  16.691  68.587  1.00  0.00    -0.149 OA 
ENDROOT
BRANCH   2   6
HETATM    6  O   UNL     1      -8.320  15.538  67.348  1.00  0.00    -0.158 OA 
BRANCH   6   7
HETATM    7  C   UNL     1      -9.322  15.480  68.383  1.00  0.00    -0.192 C  
HETATM    8  C   UNL     1     -10.629  16.170  67.941  1.00  0.00    -0.309 C  
HETATM    9  C   UNL     1     -11.715  16.071  69.026  1.00  0.00    -0.318 C  
HETATM   10  C   UNL     1     -10.393  17.623  67.542  1.00  0.00    -0.365 A  
HETATM   11  C   UNL     1     -10.708  18.055  66.246  1.00  0.00    -0.134 A  
HETATM   12  C   UNL     1      -9.839  18.549  68.442  1.00  0.00    -0.404 A  
HETATM   13  C   UNL     1      -9.589  19.864  68.048  1.00  0.00    -0.482 A  
HETATM   14  C   UNL     1     -10.459  19.373  65.854  1.00  0.00    -0.561 A  
HETATM   15  C   UNL     1      -9.895  20.275  66.753  1.00  0.00    -0.586 A  
BRANCH   9  16
HETATM   16  O   UNL     1     -12.000  14.693  69.331  1.00  0.00    -0.302 OA 
BRANCH  16  17
HETATM   17  C   UNL     1     -12.538  14.446  70.546  1.00  0.00    -0.353 C  
HETATM   18  H2  UNL     1     -13.318  16.402  70.466  1.00  0.00     0.000 HD 
HETATM   19  O   UNL     1     -12.456  13.409  71.183  1.00  0.00    -0.362 OA 
HETATM   20  H1  UNL     1     -13.627  15.340  71.897  1.00  0.00     0.000 HD 
HETATM   21  N   UNL     1     -13.221  15.527  70.980  1.00  0.00    -0.511 N  
ENDBRANCH  16  17
ENDBRANCH   9  16
ENDBRANCH   6   7
ENDBRANCH   2   6
TORSDOF 4
ENDMDL
MODEL       67
REMARK 921   NORMALIZED FREE ENERGY PREDICTED BY IDOCK:   -4.36 KCAL/MOL
REMARK 922        TOTAL FREE ENERGY PREDICTED BY IDOCK:   -5.77 KCAL/MOL
REMARK 923 INTER-LIGAND FREE ENERGY PREDICTED BY IDOCK:   -5.47 KCAL/MOL
REMARK 924 INTRA-LIGAND FREE ENERGY PREDICTED BY IDOCK:   -0.30 KCAL/MOL
REMARK 927      BINDING AFFINITY PREDICTED BY RF-SCORE:    0.00 PKD
ROOT
HETATM    1  N   UNL     1     -12.186  14.339  63.859  1.00  0.00    -0.944 N  
HETATM    2  C   UNL     1     -11.713  15.357  64.609  1.00  0.00    -0.267 C  
HETATM    3  H2  UNL     1     -12.356  14.508  62.867  1.00  0.00     0.000 HD 
HETATM    4  H1  UNL     1     -12.382  13.409  64.229  1.00  0.00     0.000 HD 
HETATM    5  O   UNL     1     -11.479  16.469  64.165  1.00  0.00    -1.059 OA 
ENDROOT
BRANCH   2   6
HETATM    6  O   UNL     1     -11.528  14.942  65.879  1.00  0.00    -0.342 OA 
BRANCH   6   7
HETATM    7  C   UNL     1     -10.191  15.086  66.397  1.00  0.00    -0.277 C  
HETATM    8  C   UNL     1      -9.946  14.145  67.594  1.00  0.00    -0.233 C  
HETATM    9  C   UNL     1      -8.505  14.263  68.121  1.00  0.00    -0.167 C  
HETATM   10  C   UNL     1     -10.954  14.383  68.714  1.00  0.00    -0.264 A  
HETATM   11  C   UNL     1     -11.792  13.341  69.137  1.00  0.00    -0.378 A  
HETATM   12  C   UNL     1     -11.085  15.640  69.326  1.00  0.00    -0.293 A  
HETATM   13  C   UNL     1     -12.042  15.853  70.320  1.00  0.00    -0.294 A  
HETATM   14  C   UNL     1     -12.747  13.556  70.134  1.00  0.00    -0.066 A  
HETATM   15  C   UNL     1     -12.876  14.813  70.720  1.00  0.00    -0.418 A  
BRANCH   9  16
HETATM   16  O   UNL     1      -7.560  13.946  67.083  1.00  0.00    -0.116 OA 
BRANCH  16  17
HETATM   17  C   UNL     1      -6.708  12.929  67.338  1.00  0.00    -0.124 C  
HETATM   18  H2  UNL     1      -5.650  14.280  68.562  1.00  0.00     0.000 HD 
HETATM   19  O   UNL     1      -6.782  11.790  66.908  1.00  0.00    -0.140 OA 
HETATM   20  H1  UNL     1      -5.089  12.571  68.369  1.00  0.00     0.000 HD 
HETATM   21  N   UNL     1      -5.732  13.339  68.176  1.00  0.00    -0.090 N  
ENDBRANCH  16  17
ENDBRANCH   9  16
ENDBRANCH   6   7
ENDBRANCH   2   6
TORSDOF 4
ENDMDL
MODEL       68
REMARK 921   NORMALIZED FREE ENERGY PREDICTED BY IDOCK:   -4.34 KCAL/MOL
REMARK 922        TOTAL FREE ENERGY PREDICTED BY IDOCK:   -5.75 KCAL/MOL
REMARK 923 INTER-LIGAND FREE ENERGY PREDICTED BY IDOCK:   -5.36 KCAL/MOL
REMARK 924 INTRA-LIGAND FREE ENERGY PREDICTED BY IDOCK:   -0.39 KCAL/MOL
REMARK 927      BINDING AFFINITY PREDICTED BY RF-SCORE:    0.00 PKD
ROOT
HETATM    1  N   UNL     1      -7.640  12.850  67.011  1.00  0.00    -0.389 N  
HETATM    2  C   UNL     1      -6.935  13.907  67.466  1.00  0.00    -0.144 C  
HETATM    3  H2  UNL     1      -7.127  12.050  66.641  1.00  0.00     0.000 HD 
HETATM    4  H1  UNL     1      -8.659  12.807  67.017  1.00  0.00     0.000 HD 
HETATM    5  O   UNL     1      -5.716  13.957  67.459  1.00  0.00    -0.338 OA 
ENDROOT
BRANCH   2   6
HETATM    6  O   UNL     1      -7.776  14.851  67.936  1.00  0.00    -0.119 OA 
BRANCH   6   7
HETATM    7  C   UNL     1      -8.555  15.547  66.942  1.00  0.00    -0.256 C  
HETATM    8  C   UNL     1      -9.665  16.399  67.591  1.00  0.00    -0.238 C  
HETATM    9  C   UNL     1     -10.469  17.179  66.537  1.00  0.00    -0.255 C  
HETATM   10  C   UNL     1     -10.588  15.553  68.461  1.00  0.00    -0.246 A  
HETATM   11  C   UNL     1     -10.724  15.840  69.827  1.00  0.00    -0.317 A  
HETATM   12  C   UNL     1     -11.300  14.464  67.931  1.00  0.00    -0.322 A  
HETATM   13  C   UNL     1     -12.108  13.673  68.749  1.00  0.00    -0.332 A  
HETATM   14  C   UNL     1     -11.536  15.048  70.644  1.00  0.00    -0.338 A  
HETATM   15  C   UNL     1     -12.222  13.963  70.106  1.00  0.00    -0.425 A  
BRANCH   9  16
HETATM   16  O   UNL     1      -9.604  18.046  65.781  1.00  0.00    -0.505 OA 
BRANCH  16  17
HETATM   17  C   UNL     1      -9.455  19.304  66.252  1.00  0.00    -0.345 C  
HETATM   18  H2  UNL     1      -7.489  19.226  65.495  1.00  0.00     0.000 HD 
HETATM   19  O   UNL     1     -10.298  19.973  66.825  1.00  0.00    -0.440 OA 
HETATM   20  H1  UNL     1      -8.099  20.706  66.337  1.00  0.00     0.000 HD 
HETATM   21  N   UNL     1      -8.211  19.756  65.982  1.00  0.00    -0.352 N  
ENDBRANCH  16  17
ENDBRANCH   9  16
ENDBRANCH   6   7
ENDBRANCH   2   6
TORSDOF 4
ENDMDL
MODEL       69
REMARK 921   NORMALIZED FREE ENERGY PREDICTED BY IDOCK:   -4.33 KCAL/MOL
REMARK 922        TOTAL FREE ENERGY PREDICTED BY IDOCK:   -5.74 KCAL/MOL
REMARK 923 INTER-LIGAND FREE ENERGY PREDICTED BY IDOCK:   -5.27 KCAL/MOL
REMARK 924 INTRA-LIGAND FREE ENERGY PREDICTED BY IDOCK:   -0.46 KCAL/MOL
REMARK 927      BINDING AFFINITY PREDICTED BY RF-SCORE:    0.00 PKD
ROOT
HETATM    1  N   UNL     1     -10.833   7.843  67.426  1.00  0.00    -0.521 N  
HETATM    2  C   UNL     1     -11.013   6.506  67.439  1.00  0.00    -0.378 C  
HETATM    3  H2  UNL     1     -10.502   8.278  66.564  1.00  0.00     0.000 HD 
HETATM    4  H1  UNL     1     -11.010   8.444  68.231  1.00  0.00     0.000 HD 
HETATM    5  O   UNL     1     -10.802   5.787  66.476  1.00  0.00    -0.276 OA 
ENDROOT
BRANCH   2   6
HETATM    6  O   UNL     1     -11.473   6.117  68.646  1.00  0.00    -0.223 OA 
BRANCH   6   7
HETATM    7  C   UNL     1     -10.493   6.063  69.703  1.00  0.00    -0.261 C  
HETATM    8  C   UNL     1     -11.161   6.108  71.093  1.00  0.00    -0.360 C  
HETATM    9  C   UNL     1     -10.121   6.005  72.223  1.00  0.00    -0.180 C  
HETATM   10  C   UNL     1     -12.024   7.354  71.263  1.00  0.00    -0.343 A  
HETATM   11  C   UNL     1     -13.395   7.226  71.532  1.00  0.00    -0.435 A  
HETATM   12  C   UNL     1     -11.483   8.643  71.134  1.00  0.00    -0.332 A  
HETATM   13  C   UNL     1     -12.295   9.773  71.250  1.00  0.00    -0.465 A  
HETATM   14  C   UNL     1     -14.206   8.358  71.650  1.00  0.00    -0.516 A  
HETATM   15  C   UNL     1     -13.657   9.629  71.503  1.00  0.00    -0.376 A  
BRANCH   9  16
HETATM   16  O   UNL     1      -9.372   4.780  72.110  1.00  0.00    -0.132 OA 
BRANCH  16  17
HETATM   17  C   UNL     1      -9.989   3.658  72.539  1.00  0.00    -0.161 C  
HETATM   18  H2  UNL     1      -9.342   2.760  70.745  1.00  0.00     0.000 HD 
HETATM   19  O   UNL     1     -10.586   3.510  73.592  1.00  0.00    -0.159 OA 
HETATM   20  H1  UNL     1     -10.309   1.823  71.952  1.00  0.00     0.000 HD 
HETATM   21  N   UNL     1      -9.844   2.671  71.628  1.00  0.00    -0.159 N  
ENDBRANCH  16  17
ENDBRANCH   9  16
ENDBRANCH   6   7
ENDBRANCH   2   6
TORSDOF 4
ENDMDL
MODEL       70
REMARK 921   NORMALIZED FREE ENERGY PREDICTED BY IDOCK:   -4.31 KCAL/MOL
REMARK 922        TOTAL FREE ENERGY PREDICTED BY IDOCK:   -5.72 KCAL/MOL
REMARK 923 INTER-LIGAND FREE ENERGY PREDICTED BY IDOCK:   -5.30 KCAL/MOL
REMARK 924 INTRA-LIGAND FREE ENERGY PREDICTED BY IDOCK:   -0.42 KCAL/MOL
REMARK 927      BINDING AFFINITY PREDICTED BY RF-SCORE:    0.00 PKD
ROOT
HETATM    1  N   UNL     1     -11.384   6.707  68.518  1.00  0.00    -0.576 N  
HETATM    2  C   UNL     1     -10.756   5.767  69.256  1.00  0.00    -0.316 C  
HETATM    3  H2  UNL     1     -11.230   6.710  67.509  1.00  0.00     0.000 HD 
HETATM    4  H1  UNL     1     -12.003   7.414  68.913  1.00  0.00     0.000 HD 
HETATM    5  O   UNL     1     -10.015   4.921  68.784  1.00  0.00    -0.167 OA 
ENDROOT
BRANCH   2   6
HETATM    6  O   UNL     1     -11.097   5.903  70.555  1.00  0.00    -0.311 OA 
BRANCH   6   7
HETATM    7  C   UNL     1     -10.043   6.340  71.437  1.00  0.00    -0.191 C  
HETATM    8  C   UNL     1     -10.593   7.221  72.578  1.00  0.00    -0.285 C  
HETATM    9  C   UNL     1      -9.478   7.652  73.547  1.00  0.00    -0.289 C  
HETATM   10  C   UNL     1     -11.344   8.435  72.041  1.00  0.00    -0.411 A  
HETATM   11  C   UNL     1     -12.695   8.625  72.367  1.00  0.00    -0.423 A  
HETATM   12  C   UNL     1     -10.719   9.369  71.198  1.00  0.00    -0.417 A  
HETATM   13  C   UNL     1     -11.433  10.451  70.680  1.00  0.00    -0.438 A  
HETATM   14  C   UNL     1     -13.406   9.711  71.849  1.00  0.00    -0.526 A  
HETATM   15  C   UNL     1     -12.777  10.619  71.002  1.00  0.00    -0.512 A  
BRANCH   9  16
HETATM   16  O   UNL     1      -8.835   6.500  74.122  1.00  0.00    -0.139 OA 
BRANCH  16  17
HETATM   17  C   UNL     1      -7.488   6.545  74.207  1.00  0.00    -0.098 C  
HETATM   18  H2  UNL     1      -7.696   8.620  74.509  1.00  0.00     0.000 HD 
HETATM   19  O   UNL     1      -6.719   5.601  74.124  1.00  0.00    -0.077 OA 
HETATM   20  H1  UNL     1      -6.061   7.847  74.488  1.00  0.00     0.000 HD 
HETATM   21  N   UNL     1      -7.078   7.813  74.423  1.00  0.00    -0.123 N  
ENDBRANCH  16  17
ENDBRANCH   9  16
ENDBRANCH   6   7
ENDBRANCH   2   6
TORSDOF 4
ENDMDL
MODEL       71
REMARK 921   NORMALIZED FREE ENERGY PREDICTED BY IDOCK:   -4.29 KCAL/MOL
REMARK 922        TOTAL FREE ENERGY PREDICTED BY IDOCK:   -5.70 KCAL/MOL
REMARK 923 INTER-LIGAND FREE ENERGY PREDICTED BY IDOCK:   -5.35 KCAL/MOL
REMARK 924 INTRA-LIGAND FREE ENERGY PREDICTED BY IDOCK:   -0.35 KCAL/MOL
REMARK 927      BINDING AFFINITY PREDICTED BY RF-SCORE:    0.00 PKD
ROOT
HETATM    1  N   UNL     1     -11.292   6.438  67.193  1.00  0.00    -0.738 N  
HETATM    2  C   UNL     1     -10.276   7.275  66.893  1.00  0.00    -0.269 C  
HETATM    3  H2  UNL     1     -11.141   5.436  67.077  1.00  0.00     0.000 HD 
HETATM    4  H1  UNL     1     -12.202   6.753  67.528  1.00  0.00     0.000 HD 
HETATM    5  O   UNL     1      -9.188   6.899  66.492  1.00  0.00    -0.156 OA 
ENDROOT
BRANCH   2   6
HETATM    6  O   UNL     1     -10.649   8.550  67.129  1.00  0.00    -0.303 OA 
BRANCH   6   7
HETATM    7  C   UNL     1     -10.510   9.003  68.491  1.00  0.00    -0.196 C  
HETATM    8  C   UNL     1     -11.296  10.308  68.734  1.00  0.00    -0.226 C  
HETATM    9  C   UNL     1     -11.186  10.770  70.197  1.00  0.00    -0.267 C  
HETATM   10  C   UNL     1     -10.856  11.415  67.782  1.00  0.00    -0.281 A  
HETATM   11  C   UNL     1     -11.785  12.001  66.909  1.00  0.00    -0.342 A  
HETATM   12  C   UNL     1      -9.523  11.857  67.737  1.00  0.00    -0.184 A  
HETATM   13  C   UNL     1      -9.127  12.841  66.830  1.00  0.00    -0.209 A  
HETATM   14  C   UNL     1     -11.387  12.989  66.004  1.00  0.00    -0.343 A  
HETATM   15  C   UNL     1     -10.058  13.403  65.961  1.00  0.00    -0.308 A  
BRANCH   9  16
HETATM   16  O   UNL     1     -11.691   9.755  71.086  1.00  0.00    -0.323 OA 
BRANCH  16  17
HETATM   17  C   UNL     1     -12.982   9.876  71.463  1.00  0.00    -0.422 C  
HETATM   18  H2  UNL     1     -12.465  11.783  72.197  1.00  0.00     0.000 HD 
HETATM   19  O   UNL     1     -13.870   9.057  71.297  1.00  0.00    -0.321 OA 
HETATM   20  H1  UNL     1     -14.159  11.164  72.339  1.00  0.00     0.000 HD 
HETATM   21  N   UNL     1     -13.183  11.073  72.055  1.00  0.00    -0.459 N  
ENDBRANCH  16  17
ENDBRANCH   9  16
ENDBRANCH   6   7
ENDBRANCH   2   6
TORSDOF 4
ENDMDL
MODEL       72
REMARK 921   NORMALIZED FREE ENERGY PREDICTED BY IDOCK:   -4.29 KCAL/MOL
REMARK 922        TOTAL FREE ENERGY PREDICTED BY IDOCK:   -5.69 KCAL/MOL
REMARK 923 INTER-LIGAND FREE ENERGY PREDICTED BY IDOCK:   -5.26 KCAL/MOL
REMARK 924 INTRA-LIGAND FREE ENERGY PREDICTED BY IDOCK:   -0.43 KCAL/MOL
REMARK 927      BINDING AFFINITY PREDICTED BY RF-SCORE:    0.00 PKD
ROOT
HETATM    1  N   UNL     1     -12.078  15.764  71.354  1.00  0.00    -0.402 N  
HETATM    2  C   UNL     1     -12.487  14.507  71.081  1.00  0.00    -0.341 C  
HETATM    3  H2  UNL     1     -12.578  16.290  72.072  1.00  0.00     0.000 HD 
HETATM    4  H1  UNL     1     -11.296  16.218  70.882  1.00  0.00     0.000 HD 
HETATM    5  O   UNL     1     -13.422  13.965  71.646  1.00  0.00    -0.349 OA 
ENDROOT
BRANCH   2   6
HETATM    6  O   UNL     1     -11.698  13.966  70.131  1.00  0.00    -0.277 OA 
BRANCH   6   7
HETATM    7  C   UNL     1     -12.252  13.933  68.800  1.00  0.00    -0.197 C  
HETATM    8  C   UNL     1     -11.162  14.157  67.731  1.00  0.00    -0.307 C  
HETATM    9  C   UNL     1     -11.742  14.079  66.308  1.00  0.00    -0.387 C  
HETATM   10  C   UNL     1     -10.426  15.476  67.944  1.00  0.00    -0.266 A  
HETATM   11  C   UNL     1      -9.040  15.478  68.158  1.00  0.00    -0.184 A  
HETATM   12  C   UNL     1     -11.109  16.703  67.956  1.00  0.00    -0.255 A  
HETATM   13  C   UNL     1     -10.427  17.897  68.196  1.00  0.00    -0.380 A  
HETATM   14  C   UNL     1      -8.358  16.676  68.395  1.00  0.00    -0.208 A  
HETATM   15  C   UNL     1      -9.053  17.882  68.419  1.00  0.00    -0.292 A  
BRANCH   9  16
HETATM   16  O   UNL     1     -12.354  12.796  66.082  1.00  0.00    -0.542 OA 
BRANCH  16  17
HETATM   17  C   UNL     1     -11.813  12.036  65.104  1.00  0.00    -0.216 C  
HETATM   18  H2  UNL     1     -10.596  11.188  66.601  1.00  0.00     0.000 HD 
HETATM   19  O   UNL     1     -12.118  12.041  63.923  1.00  0.00    -0.440 OA 
HETATM   20  H1  UNL     1     -10.456  10.650  64.880  1.00  0.00     0.000 HD 
HETATM   21  N   UNL     1     -10.865  11.224  65.618  1.00  0.00    -0.220 N  
ENDBRANCH  16  17
ENDBRANCH   9  16
ENDBRANCH   6   7
ENDBRANCH   2   6
TORSDOF 4
ENDMDL
MODEL       73
REMARK 921   NORMALIZED FREE ENERGY PREDICTED BY IDOCK:   -4.27 KCAL/MOL
REMARK 922        TOTAL FREE ENERGY PREDICTED BY IDOCK:   -5.67 KCAL/MOL
REMARK 923 INTER-LIGAND FREE ENERGY PREDICTED BY IDOCK:   -5.30 KCAL/MOL
REMARK 924 INTRA-LIGAND FREE ENERGY PREDICTED BY IDOCK:   -0.37 KCAL/MOL
REMARK 927      BINDING AFFINITY PREDICTED BY RF-SCORE:    0.00 PKD
ROOT
HETATM    1  N   UNL     1      -5.231  16.098  68.725  1.00  0.00    -0.103 N  
HETATM    2  C   UNL     1      -6.322  15.528  69.279  1.00  0.00    -0.132 C  
HETATM    3  H2  UNL     1      -4.363  15.561  68.704  1.00  0.00     0.000 HD 
HETATM    4  H1  UNL     1      -5.226  17.036  68.326  1.00  0.00     0.000 HD 
HETATM    5  O   UNL     1      -6.327  14.405  69.757  1.00  0.00    -0.126 OA 
ENDROOT
BRANCH   2   6
HETATM    6  O   UNL     1      -7.371  16.371  69.195  1.00  0.00    -0.212 OA 
BRANCH   6   7
HETATM    7  C   UNL     1      -8.656  15.753  68.978  1.00  0.00    -0.236 C  
HETATM    8  C   UNL     1      -9.261  16.174  67.623  1.00  0.00    -0.205 C  
HETATM    9  C   UNL     1     -10.611  15.482  67.368  1.00  0.00    -0.292 C  
HETATM   10  C   UNL     1      -9.400  17.689  67.515  1.00  0.00    -0.248 A  
HETATM   11  C   UNL     1      -8.741  18.383  66.489  1.00  0.00    -0.291 A  
HETATM   12  C   UNL     1     -10.162  18.424  68.439  1.00  0.00    -0.407 A  
HETATM   13  C   UNL     1     -10.243  19.814  68.352  1.00  0.00    -0.568 A  
HETATM   14  C   UNL     1      -8.827  19.775  66.402  1.00  0.00    -0.428 A  
HETATM   15  C   UNL     1      -9.572  20.490  67.336  1.00  0.00    -0.578 A  
BRANCH   9  16
HETATM   16  O   UNL     1     -10.455  14.051  67.378  1.00  0.00    -0.260 OA 
BRANCH  16  17
HETATM   17  C   UNL     1     -11.516  13.335  67.810  1.00  0.00    -0.317 C  
HETATM   18  H2  UNL     1     -11.762  14.816  69.290  1.00  0.00     0.000 HD 
HETATM   19  O   UNL     1     -11.940  12.297  67.330  1.00  0.00    -0.546 OA 
HETATM   20  H1  UNL     1     -12.887  13.402  69.199  1.00  0.00     0.000 HD 
HETATM   21  N   UNL     1     -12.085  13.943  68.873  1.00  0.00    -0.353 N  
ENDBRANCH  16  17
ENDBRANCH   9  16
ENDBRANCH   6   7
ENDBRANCH   2   6
TORSDOF 4
ENDMDL
MODEL       74
REMARK 921   NORMALIZED FREE ENERGY PREDICTED BY IDOCK:   -4.26 KCAL/MOL
REMARK 922        TOTAL FREE ENERGY PREDICTED BY IDOCK:   -5.66 KCAL/MOL
REMARK 923 INTER-LIGAND FREE ENERGY PREDICTED BY IDOCK:   -5.21 KCAL/MOL
REMARK 924 INTRA-LIGAND FREE ENERGY PREDICTED BY IDOCK:   -0.45 KCAL/MOL
REMARK 927      BINDING AFFINITY PREDICTED BY RF-SCORE:    0.00 PKD
ROOT
HETATM    1  N   UNL     1     -10.851   5.788  69.156  1.00  0.00    -0.309 N  
HETATM    2  C   UNL     1     -10.665   6.471  68.007  1.00  0.00    -0.283 C  
HETATM    3  H2  UNL     1     -11.418   4.941  69.128  1.00  0.00     0.000 HD 
HETATM    4  H1  UNL     1     -10.455   6.073  70.052  1.00  0.00     0.000 HD 
HETATM    5  O   UNL     1     -11.139   6.130  66.936  1.00  0.00    -0.334 OA 
ENDROOT
BRANCH   2   6
HETATM    6  O   UNL     1      -9.875   7.541  68.233  1.00  0.00    -0.155 OA 
BRANCH   6   7
HETATM    7  C   UNL     1     -10.528   8.825  68.176  1.00  0.00    -0.191 C  
HETATM    8  C   UNL     1     -10.114   9.720  69.363  1.00  0.00    -0.221 C  
HETATM    9  C   UNL     1     -10.774  11.108  69.281  1.00  0.00    -0.199 C  
HETATM   10  C   UNL     1     -10.416   9.054  70.701  1.00  0.00    -0.285 A  
HETATM   11  C   UNL     1      -9.378   8.803  71.610  1.00  0.00    -0.345 A  
HETATM   12  C   UNL     1     -11.719   8.660  71.046  1.00  0.00    -0.319 A  
HETATM   13  C   UNL     1     -11.972   8.013  72.257  1.00  0.00    -0.412 A  
HETATM   14  C   UNL     1      -9.634   8.158  72.823  1.00  0.00    -0.353 A  
HETATM   15  C   UNL     1     -10.929   7.758  73.143  1.00  0.00    -0.372 A  
BRANCH   9  16
HETATM   16  O   UNL     1     -10.408  11.769  68.056  1.00  0.00    -0.187 OA 
BRANCH  16  17
HETATM   17  C   UNL     1     -11.377  12.491  67.451  1.00  0.00    -0.313 C  
HETATM   18  H2  UNL     1     -11.219  13.833  69.069  1.00  0.00     0.000 HD 
HETATM   19  O   UNL     1     -11.924  12.235  66.392  1.00  0.00    -0.589 OA 
HETATM   20  H1  UNL     1     -12.398  14.132  67.730  1.00  0.00     0.000 HD 
HETATM   21  N   UNL     1     -11.667  13.586  68.186  1.00  0.00    -0.341 N  
ENDBRANCH  16  17
ENDBRANCH   9  16
ENDBRANCH   6   7
ENDBRANCH   2   6
TORSDOF 4
ENDMDL
MODEL       75
REMARK 921   NORMALIZED FREE ENERGY PREDICTED BY IDOCK:   -4.25 KCAL/MOL
REMARK 922        TOTAL FREE ENERGY PREDICTED BY IDOCK:   -5.64 KCAL/MOL
REMARK 923 INTER-LIGAND FREE ENERGY PREDICTED BY IDOCK:   -5.29 KCAL/MOL
REMARK 924 INTRA-LIGAND FREE ENERGY PREDICTED BY IDOCK:   -0.35 KCAL/MOL
REMARK 927      BINDING AFFINITY PREDICTED BY RF-SCORE:    0.00 PKD
ROOT
HETATM    1  N   UNL     1      -9.348   7.317  68.789  1.00  0.00    -0.143 N  
HETATM    2  C   UNL     1     -10.092   8.289  68.220  1.00  0.00    -0.198 C  
HETATM    3  H2  UNL     1      -9.376   6.384  68.377  1.00  0.00     0.000 HD 
HETATM    4  H1  UNL     1      -8.760   7.464  69.609  1.00  0.00     0.000 HD 
HETATM    5  O   UNL     1     -10.795   8.112  67.239  1.00  0.00    -0.248 OA 
ENDROOT
BRANCH   2   6
HETATM    6  O   UNL     1      -9.911   9.450  68.881  1.00  0.00    -0.163 OA 
BRANCH   6   7
HETATM    7  C   UNL     1     -11.112  10.163  69.236  1.00  0.00    -0.225 C  
HETATM    8  C   UNL     1     -11.297  10.230  70.767  1.00  0.00    -0.421 C  
HETATM    9  C   UNL     1     -12.554  11.029  71.151  1.00  0.00    -0.418 C  
HETATM   10  C   UNL     1     -11.327   8.838  71.391  1.00  0.00    -0.364 A  
HETATM   11  C   UNL     1     -10.376   8.483  72.359  1.00  0.00    -0.372 A  
HETATM   12  C   UNL     1     -12.279   7.881  71.003  1.00  0.00    -0.214 A  
HETATM   13  C   UNL     1     -12.266   6.599  71.552  1.00  0.00    -0.391 A  
HETATM   14  C   UNL     1     -10.367   7.199  72.910  1.00  0.00    -0.284 A  
HETATM   15  C   UNL     1     -11.308   6.257  72.502  1.00  0.00    -0.313 A  
BRANCH   9  16
HETATM   16  O   UNL     1     -12.476  12.371  70.637  1.00  0.00    -0.315 OA 
BRANCH  16  17
HETATM   17  C   UNL     1     -12.680  13.367  71.526  1.00  0.00    -0.293 C  
HETATM   18  H2  UNL     1     -14.129  12.119  72.411  1.00  0.00     0.000 HD 
HETATM   19  O   UNL     1     -12.098  14.438  71.568  1.00  0.00    -0.349 OA 
HETATM   20  H1  UNL     1     -13.788  13.762  73.085  1.00  0.00     0.000 HD 
HETATM   21  N   UNL     1     -13.634  13.010  72.412  1.00  0.00    -0.584 N  
ENDBRANCH  16  17
ENDBRANCH   9  16
ENDBRANCH   6   7
ENDBRANCH   2   6
TORSDOF 4
ENDMDL
MODEL       76
REMARK 921   NORMALIZED FREE ENERGY PREDICTED BY IDOCK:   -4.24 KCAL/MOL
REMARK 922        TOTAL FREE ENERGY PREDICTED BY IDOCK:   -5.63 KCAL/MOL
REMARK 923 INTER-LIGAND FREE ENERGY PREDICTED BY IDOCK:   -5.34 KCAL/MOL
REMARK 924 INTRA-LIGAND FREE ENERGY PREDICTED BY IDOCK:   -0.29 KCAL/MOL
REMARK 927      BINDING AFFINITY PREDICTED BY RF-SCORE:    0.00 PKD
ROOT
HETATM    1  N   UNL     1      -7.682  12.833  68.962  1.00  0.00    -0.326 N  
HETATM    2  C   UNL     1      -7.619  13.746  67.970  1.00  0.00    -0.145 C  
HETATM    3  H2  UNL     1      -6.837  12.308  69.190  1.00  0.00     0.000 HD 
HETATM    4  H1  UNL     1      -8.528  12.638  69.497  1.00  0.00     0.000 HD 
HETATM    5  O   UNL     1      -6.606  13.978  67.331  1.00  0.00    -0.278 OA 
ENDROOT
BRANCH   2   6
HETATM    6  O   UNL     1      -8.815  14.352  67.830  1.00  0.00    -0.171 OA 
BRANCH   6   7
HETATM    7  C   UNL     1      -8.832  15.516  66.978  1.00  0.00    -0.230 C  
HETATM    8  C   UNL     1     -10.268  15.874  66.542  1.00  0.00    -0.297 C  
HETATM    9  C   UNL     1     -10.295  17.141  65.670  1.00  0.00    -0.183 C  
HETATM   10  C   UNL     1     -10.946  14.709  65.827  1.00  0.00    -0.330 A  
HETATM   11  C   UNL     1     -12.132  14.165  66.342  1.00  0.00    -0.475 A  
HETATM   12  C   UNL     1     -10.398  14.144  64.664  1.00  0.00    -0.296 A  
HETATM   13  C   UNL     1     -11.007  13.051  64.046  1.00  0.00    -0.422 A  
HETATM   14  C   UNL     1     -12.742  13.072  65.719  1.00  0.00    -0.095 A  
HETATM   15  C   UNL     1     -12.176  12.513  64.576  1.00  0.00    -0.528 A  
BRANCH   9  16
HETATM   16  O   UNL     1      -9.738  18.259  66.386  1.00  0.00    -0.327 OA 
BRANCH  16  17
HETATM   17  C   UNL     1     -10.413  19.425  66.297  1.00  0.00    -0.493 C  
HETATM   18  H2  UNL     1      -9.816  19.785  68.286  1.00  0.00     0.000 HD 
HETATM   19  O   UNL     1     -11.015  19.847  65.324  1.00  0.00    -0.371 OA 
HETATM   20  H1  UNL     1     -10.831  20.987  67.392  1.00  0.00     0.000 HD 
HETATM   21  N   UNL     1     -10.321  20.106  67.460  1.00  0.00    -0.366 N  
ENDBRANCH  16  17
ENDBRANCH   9  16
ENDBRANCH   6   7
ENDBRANCH   2   6
TORSDOF 4
ENDMDL
MODEL       77
REMARK 921   NORMALIZED FREE ENERGY PREDICTED BY IDOCK:   -4.22 KCAL/MOL
REMARK 922        TOTAL FREE ENERGY PREDICTED BY IDOCK:   -5.61 KCAL/MOL
REMARK 923 INTER-LIGAND FREE ENERGY PREDICTED BY IDOCK:   -5.24 KCAL/MOL
REMARK 924 INTRA-LIGAND FREE ENERGY PREDICTED BY IDOCK:   -0.36 KCAL/MOL
REMARK 927      BINDING AFFINITY PREDICTED BY RF-SCORE:    0.00 PKD
ROOT
HETATM    1  N   UNL     1     -11.177   7.176  68.067  1.00  0.00    -0.504 N  
HETATM    2  C   UNL     1     -10.566   6.009  68.362  1.00  0.00    -0.261 C  
HETATM    3  H2  UNL     1     -11.035   7.574  67.138  1.00  0.00     0.000 HD 
HETATM    4  H1  UNL     1     -11.772   7.682  68.722  1.00  0.00     0.000 HD 
HETATM    5  O   UNL     1      -9.854   5.404  67.578  1.00  0.00    -0.133 OA 
ENDROOT
BRANCH   2   6
HETATM    6  O   UNL     1     -10.886   5.629  69.616  1.00  0.00    -0.337 OA 
BRANCH   6   7
HETATM    7  C   UNL     1     -11.575   6.613  70.413  1.00  0.00    -0.398 C  
HETATM    8  C   UNL     1     -10.722   7.060  71.618  1.00  0.00    -0.244 C  
HETATM    9  C   UNL     1     -11.436   8.143  72.446  1.00  0.00    -0.397 C  
HETATM   10  C   UNL     1     -10.328   5.878  72.498  1.00  0.00    -0.227 A  
HETATM   11  C   UNL     1      -8.973   5.583  72.712  1.00  0.00    -0.121 A  
HETATM   12  C   UNL     1     -11.296   5.049  73.090  1.00  0.00    -0.397 A  
HETATM   13  C   UNL     1     -10.919   3.946  73.856  1.00  0.00    -0.285 A  
HETATM   14  C   UNL     1      -8.598   4.480  73.483  1.00  0.00    -0.100 A  
HETATM   15  C   UNL     1      -9.570   3.659  74.049  1.00  0.00    -0.124 A  
BRANCH   9  16
HETATM   16  O   UNL     1     -11.722   9.294  71.631  1.00  0.00    -0.345 OA 
BRANCH  16  17
HETATM   17  C   UNL     1     -12.920   9.887  71.828  1.00  0.00    -0.449 C  
HETATM   18  H2  UNL     1     -13.752   7.951  71.775  1.00  0.00     0.000 HD 
HETATM   19  O   UNL     1     -13.129  11.081  71.966  1.00  0.00    -0.496 OA 
HETATM   20  H1  UNL     1     -14.801   9.403  72.024  1.00  0.00     0.000 HD 
HETATM   21  N   UNL     1     -13.896   8.956  71.874  1.00  0.00    -0.425 N  
ENDBRANCH  16  17
ENDBRANCH   9  16
ENDBRANCH   6   7
ENDBRANCH   2   6
TORSDOF 4
ENDMDL
MODEL       78
REMARK 921   NORMALIZED FREE ENERGY PREDICTED BY IDOCK:   -4.17 KCAL/MOL
REMARK 922        TOTAL FREE ENERGY PREDICTED BY IDOCK:   -5.54 KCAL/MOL
REMARK 923 INTER-LIGAND FREE ENERGY PREDICTED BY IDOCK:   -5.11 KCAL/MOL
REMARK 924 INTRA-LIGAND FREE ENERGY PREDICTED BY IDOCK:   -0.43 KCAL/MOL
REMARK 927      BINDING AFFINITY PREDICTED BY RF-SCORE:    0.00 PKD
ROOT
HETATM    1  N   UNL     1      -9.505   8.947  65.219  1.00  0.00    -0.447 N  
HETATM    2  C   UNL     1      -9.295   8.371  66.422  1.00  0.00    -0.214 C  
HETATM    3  H2  UNL     1      -8.758   8.902  64.526  1.00  0.00     0.000 HD 
HETATM    4  H1  UNL     1     -10.369   9.426  64.966  1.00  0.00     0.000 HD 
HETATM    5  O   UNL     1      -8.262   7.798  66.724  1.00  0.00    -0.115 OA 
ENDROOT
BRANCH   2   6
HETATM    6  O   UNL     1     -10.393   8.510  67.193  1.00  0.00    -0.261 OA 
BRANCH   6   7
HETATM    7  C   UNL     1     -10.891   9.855  67.339  1.00  0.00    -0.227 C  
HETATM    8  C   UNL     1     -10.131  10.621  68.441  1.00  0.00    -0.181 C  
HETATM    9  C   UNL     1     -10.629  12.071  68.569  1.00  0.00    -0.231 C  
HETATM   10  C   UNL     1     -10.209   9.901  69.784  1.00  0.00    -0.278 A  
HETATM   11  C   UNL     1      -9.034   9.484  70.426  1.00  0.00    -0.291 A  
HETATM   12  C   UNL     1     -11.443   9.619  70.393  1.00  0.00    -0.325 A  
HETATM   13  C   UNL     1     -11.499   8.921  71.600  1.00  0.00    -0.409 A  
HETATM   14  C   UNL     1      -9.093   8.788  71.636  1.00  0.00    -0.314 A  
HETATM   15  C   UNL     1     -10.324   8.502  72.219  1.00  0.00    -0.402 A  
BRANCH   9  16
HETATM   16  O   UNL     1     -10.465  12.773  67.322  1.00  0.00    -0.231 OA 
BRANCH  16  17
HETATM   17  C   UNL     1     -11.525  13.494  66.896  1.00  0.00    -0.344 C  
HETATM   18  H2  UNL     1     -11.796  12.005  65.429  1.00  0.00     0.000 HD 
HETATM   19  O   UNL     1     -11.936  14.538  67.374  1.00  0.00    -0.394 OA 
HETATM   20  H1  UNL     1     -12.909  13.428  65.521  1.00  0.00     0.000 HD 
HETATM   21  N   UNL     1     -12.109  12.883  65.843  1.00  0.00    -0.445 N  
ENDBRANCH  16  17
ENDBRANCH   9  16
ENDBRANCH   6   7
ENDBRANCH   2   6
TORSDOF 4
ENDMDL
MODEL       79
REMARK 921   NORMALIZED FREE ENERGY PREDICTED BY IDOCK:   -4.17 KCAL/MOL
REMARK 922        TOTAL FREE ENERGY PREDICTED BY IDOCK:   -5.54 KCAL/MOL
REMARK 923 INTER-LIGAND FREE ENERGY PREDICTED BY IDOCK:   -5.07 KCAL/MOL
REMARK 924 INTRA-LIGAND FREE ENERGY PREDICTED BY IDOCK:   -0.47 KCAL/MOL
REMARK 927      BINDING AFFINITY PREDICTED BY RF-SCORE:    0.00 PKD
ROOT
HETATM    1  N   UNL     1      -6.868  10.799  67.807  1.00  0.00    -0.072 N  
HETATM    2  C   UNL     1      -7.622  11.238  66.777  1.00  0.00    -0.151 C  
HETATM    3  H2  UNL     1      -6.276   9.982  67.657  1.00  0.00     0.000 HD 
HETATM    4  H1  UNL     1      -6.858  11.240  68.726  1.00  0.00     0.000 HD 
HETATM    5  O   UNL     1      -7.634  10.710  65.677  1.00  0.00    -0.151 OA 
ENDROOT
BRANCH   2   6
HETATM    6  O   UNL     1      -8.314  12.333  67.151  1.00  0.00    -0.173 OA 
BRANCH   6   7
HETATM    7  C   UNL     1      -9.364  12.113  68.115  1.00  0.00    -0.204 C  
HETATM    8  C   UNL     1     -10.606  11.475  67.459  1.00  0.00    -0.243 C  
HETATM    9  C   UNL     1     -11.711  11.197  68.494  1.00  0.00    -0.298 C  
HETATM   10  C   UNL     1     -11.139  12.329  66.313  1.00  0.00    -0.342 A  
HETATM   11  C   UNL     1     -11.215  11.797  65.018  1.00  0.00    -0.318 A  
HETATM   12  C   UNL     1     -11.541  13.660  66.516  1.00  0.00    -0.392 A  
HETATM   13  C   UNL     1     -11.985  14.441  65.449  1.00  0.00    -0.369 A  
HETATM   14  C   UNL     1     -11.663  12.580  63.951  1.00  0.00    -0.530 A  
HETATM   15  C   UNL     1     -12.042  13.903  64.166  1.00  0.00    -0.464 A  
BRANCH   9  16
HETATM   16  O   UNL     1     -11.228  10.315  69.523  1.00  0.00    -0.241 OA 
BRANCH  16  17
HETATM   17  C   UNL     1     -11.781  10.462  70.747  1.00  0.00    -0.368 C  
HETATM   18  H2  UNL     1     -12.300  12.414  70.147  1.00  0.00     0.000 HD 
HETATM   19  O   UNL     1     -11.828   9.624  71.632  1.00  0.00    -0.379 OA 
HETATM   20  H1  UNL     1     -12.731  11.808  71.796  1.00  0.00     0.000 HD 
HETATM   21  N   UNL     1     -12.313  11.697  70.871  1.00  0.00    -0.371 N  
ENDBRANCH  16  17
ENDBRANCH   9  16
ENDBRANCH   6   7
ENDBRANCH   2   6
TORSDOF 4
ENDMDL
MODEL       80
REMARK 921   NORMALIZED FREE ENERGY PREDICTED BY IDOCK:   -4.14 KCAL/MOL
REMARK 922        TOTAL FREE ENERGY PREDICTED BY IDOCK:   -5.51 KCAL/MOL
REMARK 923 INTER-LIGAND FREE ENERGY PREDICTED BY IDOCK:   -5.12 KCAL/MOL
REMARK 924 INTRA-LIGAND FREE ENERGY PREDICTED BY IDOCK:   -0.38 KCAL/MOL
REMARK 927      BINDING AFFINITY PREDICTED BY RF-SCORE:    0.00 PKD
ROOT
HETATM    1  N   UNL     1     -10.470  10.770  66.911  1.00  0.00    -0.241 N  
HETATM    2  C   UNL     1     -11.282  10.480  67.949  1.00  0.00    -0.289 C  
HETATM    3  H2  UNL     1     -10.680  11.596  66.349  1.00  0.00     0.000 HD 
HETATM    4  H1  UNL     1      -9.657  10.209  66.656  1.00  0.00     0.000 HD 
HETATM    5  O   UNL     1     -12.254  11.152  68.253  1.00  0.00    -0.613 OA 
ENDROOT
BRANCH   2   6
HETATM    6  O   UNL     1     -10.836   9.376  68.584  1.00  0.00    -0.195 OA 
BRANCH   6   7
HETATM    7  C   UNL     1      -9.986   9.610  69.725  1.00  0.00    -0.227 C  
HETATM    8  C   UNL     1     -10.199   8.538  70.814  1.00  0.00    -0.237 C  
HETATM    9  C   UNL     1      -9.261   8.758  72.014  1.00  0.00    -0.224 C  
HETATM   10  C   UNL     1     -11.654   8.476  71.268  1.00  0.00    -0.332 A  
HETATM   11  C   UNL     1     -12.381   7.285  71.131  1.00  0.00    -0.381 A  
HETATM   12  C   UNL     1     -12.302   9.601  71.805  1.00  0.00    -0.474 A  
HETATM   13  C   UNL     1     -13.646   9.540  72.175  1.00  0.00    -0.500 A  
HETATM   14  C   UNL     1     -13.727   7.226  71.505  1.00  0.00    -0.451 A  
HETATM   15  C   UNL     1     -14.359   8.354  72.021  1.00  0.00    -0.555 A  
BRANCH   9  16
HETATM   16  O   UNL     1      -7.885   8.721  71.593  1.00  0.00    -0.200 OA 
BRANCH  16  17
HETATM   17  C   UNL     1      -7.181   7.621  71.937  1.00  0.00    -0.065 C  
HETATM   18  H2  UNL     1      -5.942   8.910  73.054  1.00  0.00     0.000 HD 
HETATM   19  O   UNL     1      -7.413   6.472  71.603  1.00  0.00    -0.086 OA 
HETATM   20  H1  UNL     1      -5.623   7.130  73.007  1.00  0.00     0.000 HD 
HETATM   21  N   UNL     1      -6.155   7.961  72.747  1.00  0.00    -0.053 N  
ENDBRANCH  16  17
ENDBRANCH   9  16
ENDBRANCH   6   7
ENDBRANCH   2   6
TORSDOF 4
ENDMDL
MODEL       81
REMARK 921   NORMALIZED FREE ENERGY PREDICTED BY IDOCK:   -4.13 KCAL/MOL
REMARK 922        TOTAL FREE ENERGY PREDICTED BY IDOCK:   -5.49 KCAL/MOL
REMARK 923 INTER-LIGAND FREE ENERGY PREDICTED BY IDOCK:   -5.08 KCAL/MOL
REMARK 924 INTRA-LIGAND FREE ENERGY PREDICTED BY IDOCK:   -0.41 KCAL/MOL
REMARK 927      BINDING AFFINITY PREDICTED BY RF-SCORE:    0.00 PKD
ROOT
HETATM    1  N   UNL     1     -10.671  14.248  69.591  1.00  0.00    -0.447 N  
HETATM    2  C   UNL     1     -11.880  13.651  69.662  1.00  0.00    -0.335 C  
HETATM    3  H2  UNL     1     -10.483  15.033  70.215  1.00  0.00     0.000 HD 
HETATM    4  H1  UNL     1      -9.936  13.958  68.947  1.00  0.00     0.000 HD 
HETATM    5  O   UNL     1     -12.759  13.999  70.432  1.00  0.00    -0.326 OA 
ENDROOT
BRANCH   2   6
HETATM    6  O   UNL     1     -11.937  12.627  68.786  1.00  0.00    -0.307 OA 
BRANCH   6   7
HETATM    7  C   UNL     1     -12.105  11.317  69.363  1.00  0.00    -0.315 C  
HETATM    8  C   UNL     1     -10.749  10.608  69.556  1.00  0.00    -0.290 C  
HETATM    9  C   UNL     1     -10.921   9.227  70.213  1.00  0.00    -0.247 C  
HETATM   10  C   UNL     1      -9.982  10.491  68.242  1.00  0.00    -0.176 A  
HETATM   11  C   UNL     1      -8.713  11.075  68.116  1.00  0.00    -0.141 A  
HETATM   12  C   UNL     1     -10.528   9.825  67.132  1.00  0.00    -0.316 A  
HETATM   13  C   UNL     1      -9.831   9.765  65.924  1.00  0.00    -0.352 A  
HETATM   14  C   UNL     1      -8.017  11.010  66.906  1.00  0.00    -0.143 A  
HETATM   15  C   UNL     1      -8.579  10.361  65.810  1.00  0.00    -0.172 A  
BRANCH   9  16
HETATM   16  O   UNL     1     -11.562   9.355  71.496  1.00  0.00    -0.346 OA 
BRANCH  16  17
HETATM   17  C   UNL     1     -12.565   8.487  71.754  1.00  0.00    -0.346 C  
HETATM   18  H2  UNL     1     -13.501  10.066  72.790  1.00  0.00     0.000 HD 
HETATM   19  O   UNL     1     -12.637   7.326  71.390  1.00  0.00    -0.355 OA 
HETATM   20  H1  UNL     1     -14.285   8.440  72.677  1.00  0.00     0.000 HD 
HETATM   21  N   UNL     1     -13.527   9.095  72.481  1.00  0.00    -0.471 N  
ENDBRANCH  16  17
ENDBRANCH   9  16
ENDBRANCH   6   7
ENDBRANCH   2   6
TORSDOF 4
ENDMDL
MODEL       82
REMARK 921   NORMALIZED FREE ENERGY PREDICTED BY IDOCK:   -4.10 KCAL/MOL
REMARK 922        TOTAL FREE ENERGY PREDICTED BY IDOCK:   -5.46 KCAL/MOL
REMARK 923 INTER-LIGAND FREE ENERGY PREDICTED BY IDOCK:   -4.95 KCAL/MOL
REMARK 924 INTRA-LIGAND FREE ENERGY PREDICTED BY IDOCK:   -0.51 KCAL/MOL
REMARK 927      BINDING AFFINITY PREDICTED BY RF-SCORE:    0.00 PKD
ROOT
HETATM    1  N   UNL     1     -11.005  18.882  67.417  1.00  0.00    -0.368 N  
HETATM    2  C   UNL     1      -9.844  19.432  67.834  1.00  0.00    -0.361 C  
HETATM    3  H2  UNL     1     -11.676  19.479  66.935  1.00  0.00     0.000 HD 
HETATM    4  H1  UNL     1     -11.247  17.901  67.558  1.00  0.00     0.000 HD 
HETATM    5  O   UNL     1      -9.555  20.605  67.665  1.00  0.00    -0.381 OA 
ENDROOT
BRANCH   2   6
HETATM    6  O   UNL     1      -9.078  18.492  68.424  1.00  0.00    -0.306 OA 
BRANCH   6   7
HETATM    7  C   UNL     1      -7.715  18.412  67.961  1.00  0.00    -0.261 C  
HETATM    8  C   UNL     1      -7.623  17.684  66.604  1.00  0.00    -0.273 C  
HETATM    9  C   UNL     1      -6.176  17.636  66.084  1.00  0.00    -0.233 C  
HETATM   10  C   UNL     1      -8.220  16.282  66.675  1.00  0.00    -0.316 A  
HETATM   11  C   UNL     1      -9.295  15.933  65.844  1.00  0.00    -0.353 A  
HETATM   12  C   UNL     1      -7.731  15.323  67.578  1.00  0.00    -0.200 A  
HETATM   13  C   UNL     1      -8.317  14.059  67.661  1.00  0.00    -0.191 A  
HETATM   14  C   UNL     1      -9.877  14.666  65.927  1.00  0.00    -0.358 A  
HETATM   15  C   UNL     1      -9.392  13.732  66.839  1.00  0.00    -0.267 A  
BRANCH   9  16
HETATM   16  O   UNL     1      -5.651  18.968  65.930  1.00  0.00    -0.147 OA 
BRANCH  16  17
HETATM   17  C   UNL     1      -5.876  19.568  64.741  1.00  0.00    -0.245 C  
HETATM   18  H2  UNL     1      -6.255  21.328  65.837  1.00  0.00     0.000 HD 
HETATM   19  O   UNL     1      -5.799  19.054  63.638  1.00  0.00    -0.422 OA 
HETATM   20  H1  UNL     1      -6.363  21.321  64.031  1.00  0.00     0.000 HD 
HETATM   21  N   UNL     1      -6.194  20.867  64.929  1.00  0.00    -0.271 N  
ENDBRANCH  16  17
ENDBRANCH   9  16
ENDBRANCH   6   7
ENDBRANCH   2   6
TORSDOF 4
ENDMDL
MODEL       83
REMARK 921   NORMALIZED FREE ENERGY PREDICTED BY IDOCK:   -4.09 KCAL/MOL
REMARK 922        TOTAL FREE ENERGY PREDICTED BY IDOCK:   -5.45 KCAL/MOL
REMARK 923 INTER-LIGAND FREE ENERGY PREDICTED BY IDOCK:   -5.13 KCAL/MOL
REMARK 924 INTRA-LIGAND FREE ENERGY PREDICTED BY IDOCK:   -0.32 KCAL/MOL
REMARK 927      BINDING AFFINITY PREDICTED BY RF-SCORE:    0.00 PKD
ROOT
HETATM    1  N   UNL     1     -11.401   6.678  66.742  1.00  0.00    -0.795 N  
HETATM    2  C   UNL     1     -10.447   7.485  67.253  1.00  0.00    -0.321 C  
HETATM    3  H2  UNL     1     -11.489   5.736  67.123  1.00  0.00     0.000 HD 
HETATM    4  H1  UNL     1     -12.038   6.959  65.997  1.00  0.00     0.000 HD 
HETATM    5  O   UNL     1      -9.685   7.149  68.144  1.00  0.00    -0.137 OA 
ENDROOT
BRANCH   2   6
HETATM    6  O   UNL     1     -10.496   8.690  66.648  1.00  0.00    -0.277 OA 
BRANCH   6   7
HETATM    7  C   UNL     1      -9.237   9.384  66.531  1.00  0.00    -0.159 C  
HETATM    8  C   UNL     1      -9.416  10.908  66.693  1.00  0.00    -0.204 C  
HETATM    9  C   UNL     1      -8.070  11.647  66.613  1.00  0.00    -0.121 C  
HETATM   10  C   UNL     1     -10.405  11.470  65.676  1.00  0.00    -0.308 A  
HETATM   11  C   UNL     1     -11.563  12.129  66.113  1.00  0.00    -0.418 A  
HETATM   12  C   UNL     1     -10.197  11.325  64.294  1.00  0.00    -0.383 A  
HETATM   13  C   UNL     1     -11.132  11.807  63.377  1.00  0.00    -0.448 A  
HETATM   14  C   UNL     1     -12.497  12.613  65.193  1.00  0.00    -0.531 A  
HETATM   15  C   UNL     1     -12.284  12.447  63.827  1.00  0.00    -0.626 A  
BRANCH   9  16
HETATM   16  O   UNL     1      -7.174  11.177  67.636  1.00  0.00    -0.088 OA 
BRANCH  16  17
HETATM   17  C   UNL     1      -6.916  12.033  68.649  1.00  0.00    -0.096 C  
HETATM   18  H2  UNL     1      -6.601  10.330  69.850  1.00  0.00     0.000 HD 
HETATM   19  O   UNL     1      -6.920  13.251  68.593  1.00  0.00    -0.091 OA 
HETATM   20  H1  UNL     1      -6.430  11.993  70.539  1.00  0.00     0.000 HD 
HETATM   21  N   UNL     1      -6.624  11.346  69.775  1.00  0.00    -0.131 N  
ENDBRANCH  16  17
ENDBRANCH   9  16
ENDBRANCH   6   7
ENDBRANCH   2   6
TORSDOF 4
ENDMDL
MODEL       84
REMARK 921   NORMALIZED FREE ENERGY PREDICTED BY IDOCK:   -4.08 KCAL/MOL
REMARK 922        TOTAL FREE ENERGY PREDICTED BY IDOCK:   -5.44 KCAL/MOL
REMARK 923 INTER-LIGAND FREE ENERGY PREDICTED BY IDOCK:   -5.12 KCAL/MOL
REMARK 924 INTRA-LIGAND FREE ENERGY PREDICTED BY IDOCK:   -0.31 KCAL/MOL
REMARK 927      BINDING AFFINITY PREDICTED BY RF-SCORE:    0.00 PKD
ROOT
HETATM    1  N   UNL     1     -12.873  15.276  69.707  1.00  0.00    -0.608 N  
HETATM    2  C   UNL     1     -12.264  14.128  70.069  1.00  0.00    -0.357 C  
HETATM    3  H2  UNL     1     -13.755  15.519  70.160  1.00  0.00     0.000 HD 
HETATM    4  H1  UNL     1     -12.502  15.915  69.004  1.00  0.00     0.000 HD 
HETATM    5  O   UNL     1     -12.709  13.364  70.909  1.00  0.00    -0.325 OA 
ENDROOT
BRANCH   2   6
HETATM    6  O   UNL     1     -11.109  13.988  69.386  1.00  0.00    -0.250 OA 
BRANCH   6   7
HETATM    7  C   UNL     1     -10.749  12.637  69.034  1.00  0.00    -0.094 C  
HETATM    8  C   UNL     1      -9.948  12.593  67.715  1.00  0.00    -0.218 C  
HETATM    9  C   UNL     1      -9.523  11.157  67.360  1.00  0.00    -0.164 C  
HETATM   10  C   UNL     1     -10.722  13.229  66.565  1.00  0.00    -0.290 A  
HETATM   11  C   UNL     1     -10.184  14.330  65.882  1.00  0.00    -0.338 A  
HETATM   12  C   UNL     1     -11.986  12.753  66.180  1.00  0.00    -0.476 A  
HETATM   13  C   UNL     1     -12.700  13.374  65.154  1.00  0.00    -0.459 A  
HETATM   14  C   UNL     1     -10.900  14.948  64.853  1.00  0.00    -0.431 A  
HETATM   15  C   UNL     1     -12.158  14.474  64.494  1.00  0.00    -0.501 A  
BRANCH   9  16
HETATM   16  O   UNL     1      -8.715  10.595  68.410  1.00  0.00    -0.128 OA 
BRANCH  16  17
HETATM   17  C   UNL     1      -9.174   9.459  68.978  1.00  0.00    -0.145 C  
HETATM   18  H2  UNL     1      -8.581   8.477  67.210  1.00  0.00     0.000 HD 
HETATM   19  O   UNL     1      -9.665   9.346  70.089  1.00  0.00    -0.202 OA 
HETATM   20  H1  UNL     1      -9.345   7.558  68.568  1.00  0.00     0.000 HD 
HETATM   21  N   UNL     1      -8.999   8.416  68.138  1.00  0.00    -0.139 N  
ENDBRANCH  16  17
ENDBRANCH   9  16
ENDBRANCH   6   7
ENDBRANCH   2   6
TORSDOF 4
ENDMDL
MODEL       85
REMARK 921   NORMALIZED FREE ENERGY PREDICTED BY IDOCK:   -4.08 KCAL/MOL
REMARK 922        TOTAL FREE ENERGY PREDICTED BY IDOCK:   -5.43 KCAL/MOL
REMARK 923 INTER-LIGAND FREE ENERGY PREDICTED BY IDOCK:   -5.14 KCAL/MOL
REMARK 924 INTRA-LIGAND FREE ENERGY PREDICTED BY IDOCK:   -0.29 KCAL/MOL
REMARK 927      BINDING AFFINITY PREDICTED BY RF-SCORE:    0.00 PKD
ROOT
HETATM    1  N   UNL     1     -11.400   4.665  65.293  1.00  0.00    -0.982 N  
HETATM    2  C   UNL     1     -10.254   4.906  65.963  1.00  0.00    -0.257 C  
HETATM    3  H2  UNL     1     -11.336   4.298  64.343  1.00  0.00     0.000 HD 
HETATM    4  H1  UNL     1     -12.328   4.830  65.684  1.00  0.00     0.000 HD 
HETATM    5  O   UNL     1      -9.145   4.709  65.495  1.00  0.00    -0.135 OA 
ENDROOT
BRANCH   2   6
HETATM    6  O   UNL     1     -10.534   5.362  67.201  1.00  0.00    -0.232 OA 
BRANCH   6   7
HETATM    7  C   UNL     1     -11.034   6.713  67.274  1.00  0.00    -0.385 C  
HETATM    8  C   UNL     1     -10.272   7.540  68.330  1.00  0.00    -0.218 C  
HETATM    9  C   UNL     1     -10.773   8.994  68.379  1.00  0.00    -0.096 C  
HETATM   10  C   UNL     1     -10.345   6.895  69.710  1.00  0.00    -0.224 A  
HETATM   11  C   UNL     1      -9.168   6.516  70.371  1.00  0.00    -0.156 A  
HETATM   12  C   UNL     1     -11.577   6.645  70.338  1.00  0.00    -0.457 A  
HETATM   13  C   UNL     1     -11.628   6.014  71.582  1.00  0.00    -0.263 A  
HETATM   14  C   UNL     1      -9.222   5.888  71.618  1.00  0.00    -0.156 A  
HETATM   15  C   UNL     1     -10.451   5.632  72.220  1.00  0.00    -0.260 A  
BRANCH   9  16
HETATM   16  O   UNL     1     -10.614   9.626  67.095  1.00  0.00    -0.256 OA 
BRANCH  16  17
HETATM   17  C   UNL     1     -10.861  10.953  67.045  1.00  0.00    -0.266 C  
HETATM   18  H2  UNL     1      -8.816  11.195  66.593  1.00  0.00     0.000 HD 
HETATM   19  O   UNL     1     -11.936  11.502  67.215  1.00  0.00    -0.605 OA 
HETATM   20  H1  UNL     1      -9.913  12.628  66.714  1.00  0.00     0.000 HD 
HETATM   21  N   UNL     1      -9.727  11.625  66.752  1.00  0.00    -0.198 N  
ENDBRANCH  16  17
ENDBRANCH   9  16
ENDBRANCH   6   7
ENDBRANCH   2   6
TORSDOF 4
ENDMDL
MODEL       86
REMARK 921   NORMALIZED FREE ENERGY PREDICTED BY IDOCK:   -4.06 KCAL/MOL
REMARK 922        TOTAL FREE ENERGY PREDICTED BY IDOCK:   -5.41 KCAL/MOL
REMARK 923 INTER-LIGAND FREE ENERGY PREDICTED BY IDOCK:   -4.94 KCAL/MOL
REMARK 924 INTRA-LIGAND FREE ENERGY PREDICTED BY IDOCK:   -0.47 KCAL/MOL
REMARK 927      BINDING AFFINITY PREDICTED BY RF-SCORE:    0.00 PKD
ROOT
HETATM    1  N   UNL     1      -7.081   7.327  72.219  1.00  0.00    -0.066 N  
HETATM    2  C   UNL     1      -8.005   8.285  71.993  1.00  0.00    -0.134 C  
HETATM    3  H2  UNL     1      -6.143   7.463  71.840  1.00  0.00     0.000 HD 
HETATM    4  H1  UNL     1      -7.268   6.475  72.746  1.00  0.00     0.000 HD 
HETATM    5  O   UNL     1      -7.780   9.304  71.363  1.00  0.00    -0.334 OA 
ENDROOT
BRANCH   2   6
HETATM    6  O   UNL     1      -9.169   7.946  72.585  1.00  0.00    -0.166 OA 
BRANCH   6   7
HETATM    7  C   UNL     1      -9.950   6.945  71.902  1.00  0.00    -0.171 C  
HETATM    8  C   UNL     1     -10.673   7.536  70.674  1.00  0.00    -0.239 C  
HETATM    9  C   UNL     1     -11.473   6.461  69.917  1.00  0.00    -0.415 C  
HETATM   10  C   UNL     1     -11.570   8.708  71.058  1.00  0.00    -0.325 A  
HETATM   11  C   UNL     1     -11.352   9.974  70.494  1.00  0.00    -0.409 A  
HETATM   12  C   UNL     1     -12.610   8.560  71.991  1.00  0.00    -0.414 A  
HETATM   13  C   UNL     1     -13.394   9.653  72.365  1.00  0.00    -0.426 A  
HETATM   14  C   UNL     1     -12.140  11.065  70.868  1.00  0.00    -0.444 A  
HETATM   15  C   UNL     1     -13.156  10.905  71.806  1.00  0.00    -0.564 A  
BRANCH   9  16
HETATM   16  O   UNL     1     -10.603   5.402  69.475  1.00  0.00    -0.292 OA 
BRANCH  16  17
HETATM   17  C   UNL     1     -10.123   5.506  68.217  1.00  0.00    -0.173 C  
HETATM   18  H2  UNL     1      -8.199   5.359  69.067  1.00  0.00     0.000 HD 
HETATM   19  O   UNL     1     -10.776   5.611  67.193  1.00  0.00    -0.264 OA 
HETATM   20  H1  UNL     1      -8.410   5.536  67.279  1.00  0.00     0.000 HD 
HETATM   21  N   UNL     1      -8.773   5.458  68.230  1.00  0.00    -0.102 N  
ENDBRANCH  16  17
ENDBRANCH   9  16
ENDBRANCH   6   7
ENDBRANCH   2   6
TORSDOF 4
ENDMDL
MODEL       87
REMARK 921   NORMALIZED FREE ENERGY PREDICTED BY IDOCK:   -4.04 KCAL/MOL
REMARK 922        TOTAL FREE ENERGY PREDICTED BY IDOCK:   -5.39 KCAL/MOL
REMARK 923 INTER-LIGAND FREE ENERGY PREDICTED BY IDOCK:   -5.08 KCAL/MOL
REMARK 924 INTRA-LIGAND FREE ENERGY PREDICTED BY IDOCK:   -0.31 KCAL/MOL
REMARK 927      BINDING AFFINITY PREDICTED BY RF-SCORE:    0.00 PKD
ROOT
HETATM    1  N   UNL     1     -10.140  12.967  65.483  1.00  0.00    -0.349 N  
HETATM    2  C   UNL     1     -11.122  12.143  65.903  1.00  0.00    -0.318 C  
HETATM    3  H2  UNL     1     -10.404  13.817  64.982  1.00  0.00     0.000 HD 
HETATM    4  H1  UNL     1      -9.148  12.789  65.638  1.00  0.00     0.000 HD 
HETATM    5  O   UNL     1     -12.309  12.357  65.717  1.00  0.00    -0.644 OA 
ENDROOT
BRANCH   2   6
HETATM    6  O   UNL     1     -10.588  11.093  66.561  1.00  0.00    -0.247 OA 
BRANCH   6   7
HETATM    7  C   UNL     1     -11.265  10.703  67.773  1.00  0.00    -0.313 C  
HETATM    8  C   UNL     1     -10.349   9.856  68.682  1.00  0.00    -0.217 C  
HETATM    9  C   UNL     1     -11.053   9.476  69.996  1.00  0.00    -0.237 C  
HETATM   10  C   UNL     1      -9.836   8.613  67.962  1.00  0.00    -0.201 A  
HETATM   11  C   UNL     1      -8.457   8.416  67.801  1.00  0.00    -0.131 A  
HETATM   12  C   UNL     1     -10.717   7.658  67.430  1.00  0.00    -0.318 A  
HETATM   13  C   UNL     1     -10.232   6.548  66.737  1.00  0.00    -0.257 A  
HETATM   14  C   UNL     1      -7.973   7.302  67.109  1.00  0.00    -0.110 A  
HETATM   15  C   UNL     1      -8.861   6.373  66.573  1.00  0.00    -0.140 A  
BRANCH   9  16
HETATM   16  O   UNL     1     -11.452  10.657  70.715  1.00  0.00    -0.327 OA 
BRANCH  16  17
HETATM   17  C   UNL     1     -12.595  10.567  71.430  1.00  0.00    -0.434 C  
HETATM   18  H2  UNL     1     -12.347   8.476  71.337  1.00  0.00     0.000 HD 
HETATM   19  O   UNL     1     -13.273  11.494  71.841  1.00  0.00    -0.485 OA 
HETATM   20  H1  UNL     1     -13.763   9.203  72.197  1.00  0.00     0.000 HD 
HETATM   21  N   UNL     1     -12.900   9.271  71.657  1.00  0.00    -0.348 N  
ENDBRANCH  16  17
ENDBRANCH   9  16
ENDBRANCH   6   7
ENDBRANCH   2   6
TORSDOF 4
ENDMDL
MODEL       88
REMARK 921   NORMALIZED FREE ENERGY PREDICTED BY IDOCK:   -4.04 KCAL/MOL
REMARK 922        TOTAL FREE ENERGY PREDICTED BY IDOCK:   -5.39 KCAL/MOL
REMARK 923 INTER-LIGAND FREE ENERGY PREDICTED BY IDOCK:   -5.09 KCAL/MOL
REMARK 924 INTRA-LIGAND FREE ENERGY PREDICTED BY IDOCK:   -0.29 KCAL/MOL
REMARK 927      BINDING AFFINITY PREDICTED BY RF-SCORE:    0.00 PKD
ROOT
HETATM    1  N   UNL     1     -11.420  15.221  64.215  1.00  0.00    -0.698 N  
HETATM    2  C   UNL     1     -11.018  16.005  65.236  1.00  0.00    -0.299 C  
HETATM    3  H2  UNL     1     -11.187  15.509  63.264  1.00  0.00     0.000 HD 
HETATM    4  H1  UNL     1     -11.946  14.356  64.340  1.00  0.00     0.000 HD 
HETATM    5  O   UNL     1     -10.390  17.040  65.085  1.00  0.00    -0.632 OA 
ENDROOT
BRANCH   2   6
HETATM    6  O   UNL     1     -11.393  15.456  66.410  1.00  0.00    -0.236 OA 
BRANCH   6   7
HETATM    7  C   UNL     1     -10.552  15.759  67.541  1.00  0.00    -0.309 C  
HETATM    8  C   UNL     1      -9.515  14.643  67.787  1.00  0.00    -0.205 C  
HETATM    9  C   UNL     1      -8.586  14.984  68.966  1.00  0.00    -0.205 C  
HETATM   10  C   UNL     1     -10.184  13.289  67.999  1.00  0.00    -0.240 A  
HETATM   11  C   UNL     1      -9.893  12.221  67.138  1.00  0.00    -0.207 A  
HETATM   12  C   UNL     1     -11.115  13.085  69.031  1.00  0.00    -0.281 A  
HETATM   13  C   UNL     1     -11.751  11.852  69.185  1.00  0.00    -0.380 A  
HETATM   14  C   UNL     1     -10.529  10.986  67.296  1.00  0.00    -0.270 A  
HETATM   15  C   UNL     1     -11.461  10.805  68.314  1.00  0.00    -0.353 A  
BRANCH   9  16
HETATM   16  O   UNL     1      -7.887  16.218  68.717  1.00  0.00    -0.189 OA 
BRANCH  16  17
HETATM   17  C   UNL     1      -6.933  16.184  67.762  1.00  0.00    -0.141 C  
HETATM   18  H2  UNL     1      -7.178  18.272  67.613  1.00  0.00     0.000 HD 
HETATM   19  O   UNL     1      -6.332  15.200  67.364  1.00  0.00    -0.297 OA 
HETATM   20  H1  UNL     1      -5.980  17.404  66.571  1.00  0.00     0.000 HD 
HETATM   21  N   UNL     1      -6.701  17.429  67.293  1.00  0.00    -0.154 N  
ENDBRANCH  16  17
ENDBRANCH   9  16
ENDBRANCH   6   7
ENDBRANCH   2   6
TORSDOF 4
ENDMDL
MODEL       89
REMARK 921   NORMALIZED FREE ENERGY PREDICTED BY IDOCK:   -4.03 KCAL/MOL
REMARK 922        TOTAL FREE ENERGY PREDICTED BY IDOCK:   -5.37 KCAL/MOL
REMARK 923 INTER-LIGAND FREE ENERGY PREDICTED BY IDOCK:   -5.05 KCAL/MOL
REMARK 924 INTRA-LIGAND FREE ENERGY PREDICTED BY IDOCK:   -0.32 KCAL/MOL
REMARK 927      BINDING AFFINITY PREDICTED BY RF-SCORE:    0.00 PKD
ROOT
HETATM    1  N   UNL     1     -11.673  12.042  63.896  1.00  0.00    -0.426 N  
HETATM    2  C   UNL     1     -10.868  11.255  64.641  1.00  0.00    -0.265 C  
HETATM    3  H2  UNL     1     -11.485  12.114  62.896  1.00  0.00     0.000 HD 
HETATM    4  H1  UNL     1     -12.457  12.569  64.278  1.00  0.00     0.000 HD 
HETATM    5  O   UNL     1      -9.929  10.625  64.183  1.00  0.00    -0.308 OA 
ENDROOT
BRANCH   2   6
HETATM    6  O   UNL     1     -11.280  11.265  65.925  1.00  0.00    -0.177 OA 
BRANCH   6   7
HETATM    7  C   UNL     1     -11.364  12.563  66.547  1.00  0.00    -0.334 C  
HETATM    8  C   UNL     1     -10.359  12.697  67.710  1.00  0.00    -0.221 C  
HETATM    9  C   UNL     1     -10.414  14.096  68.347  1.00  0.00    -0.254 C  
HETATM   10  C   UNL     1     -10.568  11.613  68.763  1.00  0.00    -0.241 A  
HETATM   11  C   UNL     1      -9.528  10.723  69.070  1.00  0.00    -0.179 A  
HETATM   12  C   UNL     1     -11.796  11.465  69.428  1.00  0.00    -0.419 A  
HETATM   13  C   UNL     1     -11.985  10.441  70.357  1.00  0.00    -0.409 A  
HETATM   14  C   UNL     1      -9.719   9.701  70.004  1.00  0.00    -0.280 A  
HETATM   15  C   UNL     1     -10.948   9.557  70.642  1.00  0.00    -0.370 A  
BRANCH   9  16
HETATM   16  O   UNL     1     -10.123  15.109  67.366  1.00  0.00    -0.227 OA 
BRANCH  16  17
HETATM   17  C   UNL     1     -10.699  16.315  67.560  1.00  0.00    -0.300 C  
HETATM   18  H2  UNL     1      -9.836  16.889  65.725  1.00  0.00     0.000 HD 
HETATM   19  O   UNL     1     -11.399  16.646  68.502  1.00  0.00    -0.317 OA 
HETATM   20  H1  UNL     1     -10.843  18.051  66.677  1.00  0.00     0.000 HD 
HETATM   21  N   UNL     1     -10.408  17.140  66.531  1.00  0.00    -0.321 N  
ENDBRANCH  16  17
ENDBRANCH   9  16
ENDBRANCH   6   7
ENDBRANCH   2   6
TORSDOF 4
ENDMDL
MODEL       90
REMARK 921   NORMALIZED FREE ENERGY PREDICTED BY IDOCK:   -4.02 KCAL/MOL
REMARK 922        TOTAL FREE ENERGY PREDICTED BY IDOCK:   -5.36 KCAL/MOL
REMARK 923 INTER-LIGAND FREE ENERGY PREDICTED BY IDOCK:   -4.95 KCAL/MOL
REMARK 924 INTRA-LIGAND FREE ENERGY PREDICTED BY IDOCK:   -0.41 KCAL/MOL
REMARK 927      BINDING AFFINITY PREDICTED BY RF-SCORE:    0.00 PKD
ROOT
HETATM    1  N   UNL     1      -9.492   9.886  70.221  1.00  0.00    -0.380 N  
HETATM    2  C   UNL     1     -10.390  10.155  69.250  1.00  0.00    -0.223 C  
HETATM    3  H2  UNL     1      -9.041   8.970  70.221  1.00  0.00     0.000 HD 
HETATM    4  H1  UNL     1      -9.239  10.547  70.955  1.00  0.00     0.000 HD 
HETATM    5  O   UNL     1     -10.692   9.364  68.373  1.00  0.00    -0.219 OA 
ENDROOT
BRANCH   2   6
HETATM    6  O   UNL     1     -10.859  11.411  69.397  1.00  0.00    -0.226 OA 
BRANCH   6   7
HETATM    7  C   UNL     1     -11.333  12.048  68.193  1.00  0.00    -0.291 C  
HETATM    8  C   UNL     1     -10.162  12.514  67.303  1.00  0.00    -0.222 C  
HETATM    9  C   UNL     1     -10.664  13.153  65.997  1.00  0.00    -0.276 C  
HETATM   10  C   UNL     1      -9.231  13.464  68.050  1.00  0.00    -0.209 A  
HETATM   11  C   UNL     1      -7.878  13.134  68.216  1.00  0.00    -0.143 A  
HETATM   12  C   UNL     1      -9.701  14.667  68.602  1.00  0.00    -0.220 A  
HETATM   13  C   UNL     1      -8.845  15.505  69.319  1.00  0.00    -0.256 A  
HETATM   14  C   UNL     1      -7.023  13.976  68.932  1.00  0.00    -0.110 A  
HETATM   15  C   UNL     1      -7.508  15.157  69.488  1.00  0.00    -0.213 A  
BRANCH   9  16
HETATM   16  O   UNL     1     -11.466  12.218  65.252  1.00  0.00    -0.331 OA 
BRANCH  16  17
HETATM   17  C   UNL     1     -12.616  12.696  64.730  1.00  0.00    -0.454 C  
HETATM   18  H2  UNL     1     -12.462  14.262  66.133  1.00  0.00     0.000 HD 
HETATM   19  O   UNL     1     -13.254  12.216  63.808  1.00  0.00    -0.763 OA 
HETATM   20  H1  UNL     1     -13.848  14.191  64.974  1.00  0.00     0.000 HD 
HETATM   21  N   UNL     1     -12.979  13.830  65.368  1.00  0.00    -0.416 N  
ENDBRANCH  16  17
ENDBRANCH   9  16
ENDBRANCH   6   7
ENDBRANCH   2   6
TORSDOF 4
ENDMDL
MODEL       91
REMARK 921   NORMALIZED FREE ENERGY PREDICTED BY IDOCK:   -4.02 KCAL/MOL
REMARK 922        TOTAL FREE ENERGY PREDICTED BY IDOCK:   -5.35 KCAL/MOL
REMARK 923 INTER-LIGAND FREE ENERGY PREDICTED BY IDOCK:   -5.00 KCAL/MOL
REMARK 924 INTRA-LIGAND FREE ENERGY PREDICTED BY IDOCK:   -0.35 KCAL/MOL
REMARK 927      BINDING AFFINITY PREDICTED BY RF-SCORE:    0.00 PKD
ROOT
HETATM    1  N   UNL     1     -13.252  14.862  70.515  1.00  0.00    -0.633 N  
HETATM    2  C   UNL     1     -12.257  15.016  69.616  1.00  0.00    -0.258 C  
HETATM    3  H2  UNL     1     -13.935  15.613  70.612  1.00  0.00     0.000 HD 
HETATM    4  H1  UNL     1     -13.358  14.036  71.104  1.00  0.00     0.000 HD 
HETATM    5  O   UNL     1     -12.131  16.004  68.912  1.00  0.00    -0.283 OA 
ENDROOT
BRANCH   2   6
HETATM    6  O   UNL     1     -11.471  13.920  69.612  1.00  0.00    -0.263 OA 
BRANCH   6   7
HETATM    7  C   UNL     1     -11.724  12.970  68.556  1.00  0.00    -0.342 C  
HETATM    8  C   UNL     1     -10.439  12.651  67.765  1.00  0.00    -0.228 C  
HETATM    9  C   UNL     1     -10.696  11.604  66.667  1.00  0.00    -0.270 C  
HETATM   10  C   UNL     1      -9.811  13.910  67.177  1.00  0.00    -0.241 A  
HETATM   11  C   UNL     1      -8.504  14.275  67.533  1.00  0.00    -0.195 A  
HETATM   12  C   UNL     1     -10.523  14.740  66.295  1.00  0.00    -0.300 A  
HETATM   13  C   UNL     1      -9.950  15.912  65.800  1.00  0.00    -0.391 A  
HETATM   14  C   UNL     1      -7.931  15.448  67.033  1.00  0.00    -0.259 A  
HETATM   15  C   UNL     1      -8.656  16.268  66.172  1.00  0.00    -0.342 A  
BRANCH   9  16
HETATM   16  O   UNL     1     -11.201  10.384  67.241  1.00  0.00    -0.284 OA 
BRANCH  16  17
HETATM   17  C   UNL     1     -10.468   9.270  67.023  1.00  0.00    -0.233 C  
HETATM   18  H2  UNL     1     -10.858   8.765  69.031  1.00  0.00     0.000 HD 
HETATM   19  O   UNL     1      -9.933   8.942  65.977  1.00  0.00    -0.270 OA 
HETATM   20  H1  UNL     1      -9.859   7.682  67.982  1.00  0.00     0.000 HD 
HETATM   21  N   UNL     1     -10.412   8.523  68.147  1.00  0.00    -0.207 N  
ENDBRANCH  16  17
ENDBRANCH   9  16
ENDBRANCH   6   7
ENDBRANCH   2   6
TORSDOF 4
ENDMDL
MODEL       92
REMARK 921   NORMALIZED FREE ENERGY PREDICTED BY IDOCK:   -3.97 KCAL/MOL
REMARK 922        TOTAL FREE ENERGY PREDICTED BY IDOCK:   -5.29 KCAL/MOL
REMARK 923 INTER-LIGAND FREE ENERGY PREDICTED BY IDOCK:   -4.88 KCAL/MOL
REMARK 924 INTRA-LIGAND FREE ENERGY PREDICTED BY IDOCK:   -0.41 KCAL/MOL
REMARK 927      BINDING AFFINITY PREDICTED BY RF-SCORE:    0.00 PKD
ROOT
HETATM    1  N   UNL     1      -9.168  11.642  67.564  1.00  0.00    -0.169 N  
HETATM    2  C   UNL     1     -10.479  11.334  67.460  1.00  0.00    -0.201 C  
HETATM    3  H2  UNL     1      -8.485  10.902  67.398  1.00  0.00     0.000 HD 
HETATM    4  H1  UNL     1      -8.824  12.572  67.799  1.00  0.00     0.000 HD 
HETATM    5  O   UNL     1     -10.890  10.221  67.179  1.00  0.00    -0.262 OA 
ENDROOT
BRANCH   2   6
HETATM    6  O   UNL     1     -11.226  12.434  67.687  1.00  0.00    -0.253 OA 
BRANCH   6   7
HETATM    7  C   UNL     1     -11.089  13.026  68.995  1.00  0.00    -0.231 C  
HETATM    8  C   UNL     1     -11.374  14.542  68.960  1.00  0.00    -0.296 C  
HETATM    9  C   UNL     1     -11.273  15.169  70.361  1.00  0.00    -0.279 C  
HETATM   10  C   UNL     1     -10.460  15.264  67.975  1.00  0.00    -0.248 A  
HETATM   11  C   UNL     1     -11.011  15.982  66.904  1.00  0.00    -0.124 A  
HETATM   12  C   UNL     1      -9.062  15.212  68.100  1.00  0.00    -0.176 A  
HETATM   13  C   UNL     1      -8.239  15.843  67.166  1.00  0.00    -0.233 A  
HETATM   14  C   UNL     1     -10.184  16.615  65.971  1.00  0.00    -0.366 A  
HETATM   15  C   UNL     1      -8.800  16.540  66.100  1.00  0.00    -0.342 A  
BRANCH   9  16
HETATM   16  O   UNL     1     -12.206  14.544  71.262  1.00  0.00    -0.323 OA 
BRANCH  16  17
HETATM   17  C   UNL     1     -13.070  15.367  71.897  1.00  0.00    -0.429 C  
HETATM   18  H2  UNL     1     -14.570  14.546  70.665  1.00  0.00     0.000 HD 
HETATM   19  O   UNL     1     -12.806  16.147  72.796  1.00  0.00    -0.442 OA 
HETATM   20  H1  UNL     1     -14.969  15.820  71.886  1.00  0.00     0.000 HD 
HETATM   21  N   UNL     1     -14.317  15.199  71.407  1.00  0.00    -0.508 N  
ENDBRANCH  16  17
ENDBRANCH   9  16
ENDBRANCH   6   7
ENDBRANCH   2   6
TORSDOF 4
ENDMDL
MODEL       93
REMARK 921   NORMALIZED FREE ENERGY PREDICTED BY IDOCK:   -3.97 KCAL/MOL
REMARK 922        TOTAL FREE ENERGY PREDICTED BY IDOCK:   -5.29 KCAL/MOL
REMARK 923 INTER-LIGAND FREE ENERGY PREDICTED BY IDOCK:   -4.95 KCAL/MOL
REMARK 924 INTRA-LIGAND FREE ENERGY PREDICTED BY IDOCK:   -0.34 KCAL/MOL
REMARK 927      BINDING AFFINITY PREDICTED BY RF-SCORE:    0.00 PKD
ROOT
HETATM    1  N   UNL     1     -12.898   9.913  70.696  1.00  0.00    -0.551 N  
HETATM    2  C   UNL     1     -12.589  11.226  70.726  1.00  0.00    -0.332 C  
HETATM    3  H2  UNL     1     -13.474   9.535  71.449  1.00  0.00     0.000 HD 
HETATM    4  H1  UNL     1     -12.587   9.277  69.962  1.00  0.00     0.000 HD 
HETATM    5  O   UNL     1     -12.962  11.987  71.604  1.00  0.00    -0.408 OA 
ENDROOT
BRANCH   2   6
HETATM    6  O   UNL     1     -11.848  11.547  69.645  1.00  0.00    -0.299 OA 
BRANCH   6   7
HETATM    7  C   UNL     1     -11.619  10.480  68.703  1.00  0.00    -0.171 C  
HETATM    8  C   UNL     1     -10.508  10.846  67.697  1.00  0.00    -0.244 C  
HETATM    9  C   UNL     1     -10.230   9.692  66.718  1.00  0.00    -0.239 C  
HETATM   10  C   UNL     1     -10.832  12.131  66.942  1.00  0.00    -0.291 A  
HETATM   11  C   UNL     1      -9.965  13.231  67.025  1.00  0.00    -0.238 A  
HETATM   12  C   UNL     1     -12.001  12.255  66.175  1.00  0.00    -0.323 A  
HETATM   13  C   UNL     1     -12.305  13.453  65.525  1.00  0.00    -0.528 A  
HETATM   14  C   UNL     1     -10.269  14.428  66.371  1.00  0.00    -0.294 A  
HETATM   15  C   UNL     1     -11.441  14.540  65.628  1.00  0.00    -0.341 A  
BRANCH   9  16
HETATM   16  O   UNL     1      -9.834   8.507  67.433  1.00  0.00    -0.161 OA 
BRANCH  16  17
HETATM   17  C   UNL     1     -10.120   7.326  66.842  1.00  0.00    -0.247 C  
HETATM   18  H2  UNL     1     -11.723   7.172  68.202  1.00  0.00     0.000 HD 
HETATM   19  O   UNL     1      -9.527   6.816  65.907  1.00  0.00    -0.003 OA 
HETATM   20  H1  UNL     1     -11.416   5.873  66.981  1.00  0.00     0.000 HD 
HETATM   21  N   UNL     1     -11.200   6.764  67.427  1.00  0.00    -0.282 N  
ENDBRANCH  16  17
ENDBRANCH   9  16
ENDBRANCH   6   7
ENDBRANCH   2   6
TORSDOF 4
ENDMDL
MODEL       94
REMARK 921   NORMALIZED FREE ENERGY PREDICTED BY IDOCK:   -3.96 KCAL/MOL
REMARK 922        TOTAL FREE ENERGY PREDICTED BY IDOCK:   -5.29 KCAL/MOL
REMARK 923 INTER-LIGAND FREE ENERGY PREDICTED BY IDOCK:   -4.89 KCAL/MOL
REMARK 924 INTRA-LIGAND FREE ENERGY PREDICTED BY IDOCK:   -0.39 KCAL/MOL
REMARK 927      BINDING AFFINITY PREDICTED BY RF-SCORE:    0.00 PKD
ROOT
HETATM    1  N   UNL     1     -12.811   7.323  72.296  1.00  0.00    -0.509 N  
HETATM    2  C   UNL     1     -13.060   8.632  72.082  1.00  0.00    -0.383 C  
HETATM    3  H2  UNL     1     -13.586   6.726  72.585  1.00  0.00     0.000 HD 
HETATM    4  H1  UNL     1     -11.891   6.898  72.185  1.00  0.00     0.000 HD 
HETATM    5  O   UNL     1     -14.161   9.140  72.215  1.00  0.00    -0.437 OA 
ENDROOT
BRANCH   2   6
HETATM    6  O   UNL     1     -11.930   9.254  71.686  1.00  0.00    -0.330 OA 
BRANCH   6   7
HETATM    7  C   UNL     1     -10.698   8.689  72.178  1.00  0.00    -0.347 C  
HETATM    8  C   UNL     1      -9.580   8.767  71.118  1.00  0.00    -0.309 C  
HETATM    9  C   UNL     1      -8.252   8.207  71.656  1.00  0.00    -0.126 C  
HETATM   10  C   UNL     1      -9.980   8.066  69.824  1.00  0.00    -0.191 A  
HETATM   11  C   UNL     1     -10.024   8.786  68.621  1.00  0.00    -0.197 A  
HETATM   12  C   UNL     1     -10.333   6.707  69.806  1.00  0.00    -0.226 A  
HETATM   13  C   UNL     1     -10.739   6.091  68.621  1.00  0.00    -0.363 A  
HETATM   14  C   UNL     1     -10.428   8.166  67.435  1.00  0.00    -0.356 A  
HETATM   15  C   UNL     1     -10.790   6.822  67.438  1.00  0.00    -0.417 A  
BRANCH   9  16
HETATM   16  O   UNL     1      -7.832   8.935  72.824  1.00  0.00    -0.371 OA 
BRANCH  16  17
HETATM   17  C   UNL     1      -6.525   8.838  73.155  1.00  0.00     0.030 C  
HETATM   18  H2  UNL     1      -6.326   7.547  71.500  1.00  0.00     0.000 HD 
HETATM   19  O   UNL     1      -5.963   9.400  74.079  1.00  0.00    -0.319 OA 
HETATM   20  H1  UNL     1      -4.900   7.948  72.538  1.00  0.00     0.000 HD 
HETATM   21  N   UNL     1      -5.887   8.021  72.289  1.00  0.00    -0.040 N  
ENDBRANCH  16  17
ENDBRANCH   9  16
ENDBRANCH   6   7
ENDBRANCH   2   6
TORSDOF 4
ENDMDL
MODEL       95
REMARK 921   NORMALIZED FREE ENERGY PREDICTED BY IDOCK:   -3.95 KCAL/MOL
REMARK 922        TOTAL FREE ENERGY PREDICTED BY IDOCK:   -5.27 KCAL/MOL
REMARK 923 INTER-LIGAND FREE ENERGY PREDICTED BY IDOCK:   -4.87 KCAL/MOL
REMARK 924 INTRA-LIGAND FREE ENERGY PREDICTED BY IDOCK:   -0.40 KCAL/MOL
REMARK 927      BINDING AFFINITY PREDICTED BY RF-SCORE:    0.00 PKD
ROOT
HETATM    1  N   UNL     1     -10.799  10.599  70.201  1.00  0.00    -0.451 N  
HETATM    2  C   UNL     1     -10.709   9.442  69.513  1.00  0.00    -0.222 C  
HETATM    3  H2  UNL     1     -10.941  10.551  71.210  1.00  0.00     0.000 HD 
HETATM    4  H1  UNL     1     -10.732  11.520  69.768  1.00  0.00     0.000 HD 
HETATM    5  O   UNL     1     -10.788   8.341  70.031  1.00  0.00    -0.247 OA 
ENDROOT
BRANCH   2   6
HETATM    6  O   UNL     1     -10.499   9.702  68.206  1.00  0.00    -0.199 OA 
BRANCH   6   7
HETATM    7  C   UNL     1     -11.097  10.915  67.704  1.00  0.00    -0.313 C  
HETATM    8  C   UNL     1     -10.202  11.586  66.642  1.00  0.00    -0.254 C  
HETATM    9  C   UNL     1     -10.856  12.856  66.072  1.00  0.00    -0.279 C  
HETATM   10  C   UNL     1      -8.811  11.892  67.189  1.00  0.00    -0.180 A  
HETATM   11  C   UNL     1      -7.679  11.330  66.581  1.00  0.00    -0.148 A  
HETATM   12  C   UNL     1      -8.630  12.713  68.314  1.00  0.00    -0.167 A  
HETATM   13  C   UNL     1      -7.354  12.948  68.828  1.00  0.00    -0.066 A  
HETATM   14  C   UNL     1      -6.402  11.569  67.096  1.00  0.00    -0.124 A  
HETATM   15  C   UNL     1      -6.241  12.373  68.222  1.00  0.00    -0.056 A  
BRANCH   9  16
HETATM   16  O   UNL     1     -12.128  12.544  65.473  1.00  0.00    -0.442 OA 
BRANCH  16  17
HETATM   17  C   UNL     1     -12.353  13.052  64.242  1.00  0.00    -0.366 C  
HETATM   18  H2  UNL     1     -12.341  11.062  63.549  1.00  0.00     0.000 HD 
HETATM   19  O   UNL     1     -12.485  14.229  63.952  1.00  0.00    -0.773 OA 
HETATM   20  H1  UNL     1     -12.605  12.438  62.406  1.00  0.00     0.000 HD 
HETATM   21  N   UNL     1     -12.435  12.054  63.336  1.00  0.00    -0.579 N  
ENDBRANCH  16  17
ENDBRANCH   9  16
ENDBRANCH   6   7
ENDBRANCH   2   6
TORSDOF 4
ENDMDL
MODEL       96
REMARK 921   NORMALIZED FREE ENERGY PREDICTED BY IDOCK:   -3.95 KCAL/MOL
REMARK 922        TOTAL FREE ENERGY PREDICTED BY IDOCK:   -5.27 KCAL/MOL
REMARK 923 INTER-LIGAND FREE ENERGY PREDICTED BY IDOCK:   -4.88 KCAL/MOL
REMARK 924 INTRA-LIGAND FREE ENERGY PREDICTED BY IDOCK:   -0.39 KCAL/MOL
REMARK 927      BINDING AFFINITY PREDICTED BY RF-SCORE:    0.00 PKD
ROOT
HETATM    1  N   UNL     1      -6.845  12.393  69.646  1.00  0.00    -0.346 N  
HETATM    2  C   UNL     1      -6.819  13.715  69.379  1.00  0.00    -0.022 C  
HETATM    3  H2  UNL     1      -5.978  11.943  69.942  1.00  0.00     0.000 HD 
HETATM    4  H1  UNL     1      -7.684  11.818  69.569  1.00  0.00     0.000 HD 
HETATM    5  O   UNL     1      -5.815  14.402  69.471  1.00  0.00    -0.092 OA 
ENDROOT
BRANCH   2   6
HETATM    6  O   UNL     1      -8.052  14.136  69.029  1.00  0.00    -0.078 OA 
BRANCH   6   7
HETATM    7  C   UNL     1      -8.222  14.494  67.643  1.00  0.00    -0.177 C  
HETATM    8  C   UNL     1      -9.694  14.356  67.202  1.00  0.00    -0.248 C  
HETATM    9  C   UNL     1      -9.888  14.780  65.736  1.00  0.00    -0.342 C  
HETATM   10  C   UNL     1     -10.220  12.942  67.432  1.00  0.00    -0.230 A  
HETATM   11  C   UNL     1     -11.323  12.732  68.272  1.00  0.00    -0.335 A  
HETATM   12  C   UNL     1      -9.609  11.827  66.835  1.00  0.00    -0.204 A  
HETATM   13  C   UNL     1     -10.076  10.537  67.090  1.00  0.00    -0.253 A  
HETATM   14  C   UNL     1     -11.791  11.439  68.524  1.00  0.00    -0.364 A  
HETATM   15  C   UNL     1     -11.164  10.343  67.937  1.00  0.00    -0.332 A  
BRANCH   9  16
HETATM   16  O   UNL     1      -9.477  16.146  65.547  1.00  0.00    -0.428 OA 
BRANCH  16  17
HETATM   17  C   UNL     1     -10.454  17.034  65.263  1.00  0.00    -0.037 C  
HETATM   18  H2  UNL     1     -10.001  17.942  67.110  1.00  0.00     0.000 HD 
HETATM   19  O   UNL     1     -11.143  17.063  64.257  1.00  0.00    -1.092 OA 
HETATM   20  H1  UNL     1     -11.308  18.604  66.048  1.00  0.00     0.000 HD 
HETATM   21  N   UNL     1     -10.570  17.933  66.263  1.00  0.00    -0.298 N  
ENDBRANCH  16  17
ENDBRANCH   9  16
ENDBRANCH   6   7
ENDBRANCH   2   6
TORSDOF 4
ENDMDL
MODEL       97
REMARK 921   NORMALIZED FREE ENERGY PREDICTED BY IDOCK:   -3.93 KCAL/MOL
REMARK 922        TOTAL FREE ENERGY PREDICTED BY IDOCK:   -5.25 KCAL/MOL
REMARK 923 INTER-LIGAND FREE ENERGY PREDICTED BY IDOCK:   -4.85 KCAL/MOL
REMARK 924 INTRA-LIGAND FREE ENERGY PREDICTED BY IDOCK:   -0.41 KCAL/MOL
REMARK 927      BINDING AFFINITY PREDICTED BY RF-SCORE:    0.00 PKD
ROOT
HETATM    1  N   UNL     1      -8.293   7.834  63.529  1.00  0.00    -0.369 N  
HETATM    2  C   UNL     1      -8.404   8.189  64.826  1.00  0.00    -0.104 C  
HETATM    3  H2  UNL     1      -8.350   6.842  63.294  1.00  0.00     0.000 HD 
HETATM    4  H1  UNL     1      -8.156   8.501  62.770  1.00  0.00     0.000 HD 
HETATM    5  O   UNL     1      -8.568   7.391  65.733  1.00  0.00    -0.147 OA 
ENDROOT
BRANCH   2   6
HETATM    6  O   UNL     1      -8.330   9.532  64.940  1.00  0.00    -0.129 OA 
BRANCH   6   7
HETATM    7  C   UNL     1      -9.575  10.243  64.792  1.00  0.00    -0.307 C  
HETATM    8  C   UNL     1      -9.806  11.224  65.961  1.00  0.00    -0.267 C  
HETATM    9  C   UNL     1     -11.112  12.017  65.783  1.00  0.00    -0.324 C  
HETATM   10  C   UNL     1      -9.784  10.510  67.308  1.00  0.00    -0.197 A  
HETATM   11  C   UNL     1      -8.845  10.878  68.283  1.00  0.00    -0.140 A  
HETATM   12  C   UNL     1     -10.676   9.464  67.598  1.00  0.00    -0.295 A  
HETATM   13  C   UNL     1     -10.615   8.791  68.819  1.00  0.00    -0.174 A  
HETATM   14  C   UNL     1      -8.787  10.205  69.506  1.00  0.00    -0.198 A  
HETATM   15  C   UNL     1      -9.668   9.160  69.771  1.00  0.00    -0.191 A  
BRANCH   9  16
HETATM   16  O   UNL     1     -11.086  12.763  64.552  1.00  0.00    -0.300 OA 
BRANCH  16  17
HETATM   17  C   UNL     1     -12.207  13.453  64.245  1.00  0.00    -0.392 C  
HETATM   18  H2  UNL     1     -12.424  13.788  66.315  1.00  0.00     0.000 HD 
HETATM   19  O   UNL     1     -12.657  13.653  63.130  1.00  0.00    -0.792 OA 
HETATM   20  H1  UNL     1     -13.629  14.450  65.138  1.00  0.00     0.000 HD 
HETATM   21  N   UNL     1     -12.782  13.929  65.370  1.00  0.00    -0.518 N  
ENDBRANCH  16  17
ENDBRANCH   9  16
ENDBRANCH   6   7
ENDBRANCH   2   6
TORSDOF 4
ENDMDL
MODEL       98
REMARK 921   NORMALIZED FREE ENERGY PREDICTED BY IDOCK:   -3.93 KCAL/MOL
REMARK 922        TOTAL FREE ENERGY PREDICTED BY IDOCK:   -5.25 KCAL/MOL
REMARK 923 INTER-LIGAND FREE ENERGY PREDICTED BY IDOCK:   -4.82 KCAL/MOL
REMARK 924 INTRA-LIGAND FREE ENERGY PREDICTED BY IDOCK:   -0.42 KCAL/MOL
REMARK 927      BINDING AFFINITY PREDICTED BY RF-SCORE:    0.00 PKD
ROOT
HETATM    1  N   UNL     1      -9.094   7.893  74.219  1.00  0.00    -0.370 N  
HETATM    2  C   UNL     1      -8.712   7.854  72.925  1.00  0.00    -0.186 C  
HETATM    3  H2  UNL     1      -8.888   7.085  74.807  1.00  0.00     0.000 HD 
HETATM    4  H1  UNL     1      -9.578   8.685  74.641  1.00  0.00     0.000 HD 
HETATM    5  O   UNL     1      -8.134   6.906  72.420  1.00  0.00    -0.103 OA 
ENDROOT
BRANCH   2   6
HETATM    6  O   UNL     1      -9.045   9.010  72.314  1.00  0.00    -0.351 OA 
BRANCH   6   7
HETATM    7  C   UNL     1      -9.095   8.967  70.874  1.00  0.00    -0.250 C  
HETATM    8  C   UNL     1     -10.371   9.646  70.334  1.00  0.00    -0.350 C  
HETATM    9  C   UNL     1     -10.406   9.642  68.796  1.00  0.00    -0.213 C  
HETATM   10  C   UNL     1     -11.633   9.009  70.906  1.00  0.00    -0.344 A  
HETATM   11  C   UNL     1     -12.538   9.785  71.645  1.00  0.00    -0.509 A  
HETATM   12  C   UNL     1     -11.908   7.642  70.732  1.00  0.00    -0.227 A  
HETATM   13  C   UNL     1     -13.045   7.065  71.299  1.00  0.00    -0.329 A  
HETATM   14  C   UNL     1     -13.678   9.206  72.209  1.00  0.00    -0.548 A  
HETATM   15  C   UNL     1     -13.927   7.846  72.041  1.00  0.00    -0.361 A  
BRANCH   9  16
HETATM   16  O   UNL     1      -9.257  10.327  68.263  1.00  0.00    -0.134 OA 
BRANCH  16  17
HETATM   17  C   UNL     1      -9.366  11.667  68.132  1.00  0.00    -0.188 C  
HETATM   18  H2  UNL     1      -7.333  11.765  68.681  1.00  0.00     0.000 HD 
HETATM   19  O   UNL     1     -10.360  12.290  67.798  1.00  0.00    -0.201 OA 
HETATM   20  H1  UNL     1      -8.265  13.270  68.313  1.00  0.00     0.000 HD 
HETATM   21  N   UNL     1      -8.184  12.258  68.411  1.00  0.00    -0.162 N  
ENDBRANCH  16  17
ENDBRANCH   9  16
ENDBRANCH   6   7
ENDBRANCH   2   6
TORSDOF 4
ENDMDL
MODEL       99
REMARK 921   NORMALIZED FREE ENERGY PREDICTED BY IDOCK:   -3.89 KCAL/MOL
REMARK 922        TOTAL FREE ENERGY PREDICTED BY IDOCK:   -5.19 KCAL/MOL
REMARK 923 INTER-LIGAND FREE ENERGY PREDICTED BY IDOCK:   -4.81 KCAL/MOL
REMARK 924 INTRA-LIGAND FREE ENERGY PREDICTED BY IDOCK:   -0.38 KCAL/MOL
REMARK 927      BINDING AFFINITY PREDICTED BY RF-SCORE:    0.00 PKD
ROOT
HETATM    1  N   UNL     1     -12.547   6.377  72.211  1.00  0.00    -0.552 N  
HETATM    2  C   UNL     1     -11.269   6.799  72.324  1.00  0.00    -0.259 C  
HETATM    3  H2  UNL     1     -13.117   6.335  73.057  1.00  0.00     0.000 HD 
HETATM    4  H1  UNL     1     -12.973   6.098  71.328  1.00  0.00     0.000 HD 
HETATM    5  O   UNL     1     -10.760   7.133  73.380  1.00  0.00    -0.347 OA 
ENDROOT
BRANCH   2   6
HETATM    6  O   UNL     1     -10.683   6.810  71.109  1.00  0.00    -0.222 OA 
BRANCH   6   7
HETATM    7  C   UNL     1     -10.124   8.073  70.695  1.00  0.00    -0.194 C  
HETATM    8  C   UNL     1     -10.514   8.412  69.241  1.00  0.00    -0.223 C  
HETATM    9  C   UNL     1      -9.957   9.780  68.810  1.00  0.00    -0.169 C  
HETATM   10  C   UNL     1     -10.077   7.319  68.271  1.00  0.00    -0.193 A  
HETATM   11  C   UNL     1     -11.031   6.652  67.489  1.00  0.00    -0.416 A  
HETATM   12  C   UNL     1      -8.729   6.941  68.153  1.00  0.00    -0.126 A  
HETATM   13  C   UNL     1      -8.351   5.909  67.293  1.00  0.00    -0.105 A  
HETATM   14  C   UNL     1     -10.649   5.621  66.626  1.00  0.00    -0.361 A  
HETATM   15  C   UNL     1      -9.311   5.247  66.533  1.00  0.00    -0.146 A  
BRANCH   9  16
HETATM   16  O   UNL     1     -10.450  10.821  69.675  1.00  0.00    -0.219 OA 
BRANCH  16  17
HETATM   17  C   UNL     1     -11.726  11.215  69.473  1.00  0.00    -0.335 C  
HETATM   18  H2  UNL     1     -11.930  11.220  71.570  1.00  0.00     0.000 HD 
HETATM   19  O   UNL     1     -12.264  11.423  68.398  1.00  0.00    -0.571 OA 
HETATM   20  H1  UNL     1     -13.319  11.673  70.504  1.00  0.00     0.000 HD 
HETATM   21  N   UNL     1     -12.356  11.375  70.657  1.00  0.00    -0.372 N  
ENDBRANCH  16  17
ENDBRANCH   9  16
ENDBRANCH   6   7
ENDBRANCH   2   6
TORSDOF 4
ENDMDL
MODEL      100
REMARK 921   NORMALIZED FREE ENERGY PREDICTED BY IDOCK:   -3.86 KCAL/MOL
REMARK 922        TOTAL FREE ENERGY PREDICTED BY IDOCK:   -5.17 KCAL/MOL
REMARK 923 INTER-LIGAND FREE ENERGY PREDICTED BY IDOCK:   -4.87 KCAL/MOL
REMARK 924 INTRA-LIGAND FREE ENERGY PREDICTED BY IDOCK:   -0.30 KCAL/MOL
REMARK 927      BINDING AFFINITY PREDICTED BY RF-SCORE:    0.00 PKD
ROOT
HETATM    1  N   UNL     1     -13.576   9.937  72.461  1.00  0.00    -0.632 N  
HETATM    2  C   UNL     1     -12.976  10.981  71.851  1.00  0.00    -0.380 C  
HETATM    3  H2  UNL     1     -14.309  10.133  73.143  1.00  0.00     0.000 HD 
HETATM    4  H1  UNL     1     -13.338   8.963  72.277  1.00  0.00     0.000 HD 
HETATM    5  O   UNL     1     -13.261  12.146  72.072  1.00  0.00    -0.499 OA 
ENDROOT
BRANCH   2   6
HETATM    6  O   UNL     1     -12.058  10.530  70.972  1.00  0.00    -0.339 OA 
BRANCH   6   7
HETATM    7  C   UNL     1     -11.161   9.515  71.466  1.00  0.00    -0.367 C  
HETATM    8  C   UNL     1      -9.787   9.589  70.769  1.00  0.00    -0.309 C  
HETATM    9  C   UNL     1      -8.813   8.536  71.325  1.00  0.00    -0.190 C  
HETATM   10  C   UNL     1      -9.916   9.461  69.254  1.00  0.00    -0.182 A  
HETATM   11  C   UNL     1      -9.461  10.494  68.421  1.00  0.00    -0.158 A  
HETATM   12  C   UNL     1     -10.507   8.333  68.662  1.00  0.00    -0.199 A  
HETATM   13  C   UNL     1     -10.656   8.251  67.276  1.00  0.00    -0.335 A  
HETATM   14  C   UNL     1      -9.609  10.408  67.035  1.00  0.00    -0.197 A  
HETATM   15  C   UNL     1     -10.212   9.290  66.464  1.00  0.00    -0.316 A  
BRANCH   9  16
HETATM   16  O   UNL     1      -8.624   8.721  72.740  1.00  0.00    -0.412 OA 
BRANCH  16  17
HETATM   17  C   UNL     1      -7.630   8.006  73.311  1.00  0.00    -0.147 C  
HETATM   18  H2  UNL     1      -7.008   7.532  71.353  1.00  0.00     0.000 HD 
HETATM   19  O   UNL     1      -7.414   7.881  74.505  1.00  0.00    -0.147 OA 
HETATM   20  H1  UNL     1      -6.109   6.897  72.789  1.00  0.00     0.000 HD 
HETATM   21  N   UNL     1      -6.861   7.437  72.358  1.00  0.00    -0.059 N  
ENDBRANCH  16  17
ENDBRANCH   9  16
ENDBRANCH   6   7
ENDBRANCH   2   6
TORSDOF 4
ENDMDL
MODEL      101
REMARK 921   NORMALIZED FREE ENERGY PREDICTED BY IDOCK:   -3.86 KCAL/MOL
REMARK 922        TOTAL FREE ENERGY PREDICTED BY IDOCK:   -5.16 KCAL/MOL
REMARK 923 INTER-LIGAND FREE ENERGY PREDICTED BY IDOCK:   -4.73 KCAL/MOL
REMARK 924 INTRA-LIGAND FREE ENERGY PREDICTED BY IDOCK:   -0.43 KCAL/MOL
REMARK 927      BINDING AFFINITY PREDICTED BY RF-SCORE:    0.00 PKD
ROOT
HETATM    1  N   UNL     1     -11.010   9.784  70.591  1.00  0.00    -0.307 N  
HETATM    2  C   UNL     1     -10.043   9.702  69.653  1.00  0.00    -0.224 C  
HETATM    3  H2  UNL     1     -10.731   9.946  71.559  1.00  0.00     0.000 HD 
HETATM    4  H1  UNL     1     -12.005   9.693  70.385  1.00  0.00     0.000 HD 
HETATM    5  O   UNL     1      -8.853   9.811  69.899  1.00  0.00    -0.201 OA 
ENDROOT
BRANCH   2   6
HETATM    6  O   UNL     1     -10.598   9.510  68.439  1.00  0.00    -0.220 OA 
BRANCH   6   7
HETATM    7  C   UNL     1     -10.851  10.703  67.670  1.00  0.00    -0.292 C  
HETATM    8  C   UNL     1     -10.505  10.498  66.181  1.00  0.00    -0.237 C  
HETATM    9  C   UNL     1     -10.816  11.755  65.349  1.00  0.00    -0.295 C  
HETATM   10  C   UNL     1      -9.052  10.070  65.994  1.00  0.00    -0.189 A  
HETATM   11  C   UNL     1      -8.755   8.850  65.370  1.00  0.00    -0.224 A  
HETATM   12  C   UNL     1      -7.990  10.865  66.456  1.00  0.00    -0.152 A  
HETATM   13  C   UNL     1      -6.668  10.439  66.316  1.00  0.00    -0.112 A  
HETATM   14  C   UNL     1      -7.430   8.427  65.229  1.00  0.00    -0.086 A  
HETATM   15  C   UNL     1      -6.389   9.218  65.707  1.00  0.00    -0.067 A  
BRANCH   9  16
HETATM   16  O   UNL     1     -12.210  12.098  65.455  1.00  0.00    -0.549 OA 
BRANCH  16  17
HETATM   17  C   UNL     1     -12.525  13.397  65.254  1.00  0.00    -0.483 C  
HETATM   18  H2  UNL     1     -12.291  13.651  67.334  1.00  0.00     0.000 HD 
HETATM   19  O   UNL     1     -12.776  13.929  64.187  1.00  0.00    -0.665 OA 
HETATM   20  H1  UNL     1     -12.746  15.046  66.276  1.00  0.00     0.000 HD 
HETATM   21  N   UNL     1     -12.509  14.065  66.428  1.00  0.00    -0.429 N  
ENDBRANCH  16  17
ENDBRANCH   9  16
ENDBRANCH   6   7
ENDBRANCH   2   6
TORSDOF 4
ENDMDL
MODEL      102
REMARK 921   NORMALIZED FREE ENERGY PREDICTED BY IDOCK:   -3.85 KCAL/MOL
REMARK 922        TOTAL FREE ENERGY PREDICTED BY IDOCK:   -5.15 KCAL/MOL
REMARK 923 INTER-LIGAND FREE ENERGY PREDICTED BY IDOCK:   -4.74 KCAL/MOL
REMARK 924 INTRA-LIGAND FREE ENERGY PREDICTED BY IDOCK:   -0.41 KCAL/MOL
REMARK 927      BINDING AFFINITY PREDICTED BY RF-SCORE:    0.00 PKD
ROOT
HETATM    1  N   UNL     1      -8.544   6.718  72.326  1.00  0.00    -0.121 N  
HETATM    2  C   UNL     1      -8.691   7.835  73.071  1.00  0.00    -0.185 C  
HETATM    3  H2  UNL     1      -8.376   5.835  72.809  1.00  0.00     0.000 HD 
HETATM    4  H1  UNL     1      -8.591   6.709  71.308  1.00  0.00     0.000 HD 
HETATM    5  O   UNL     1      -8.634   7.845  74.289  1.00  0.00    -0.248 OA 
ENDROOT
BRANCH   2   6
HETATM    6  O   UNL     1      -8.927   8.892  72.267  1.00  0.00    -0.388 OA 
BRANCH   6   7
HETATM    7  C   UNL     1      -9.043   8.597  70.861  1.00  0.00    -0.187 C  
HETATM    8  C   UNL     1     -10.223   9.358  70.221  1.00  0.00    -0.295 C  
HETATM    9  C   UNL     1     -10.323   9.081  68.711  1.00  0.00    -0.215 C  
HETATM   10  C   UNL     1     -11.542   9.041  70.918  1.00  0.00    -0.344 A  
HETATM   11  C   UNL     1     -12.287  10.070  71.512  1.00  0.00    -0.513 A  
HETATM   12  C   UNL     1     -12.028   7.726  71.004  1.00  0.00    -0.281 A  
HETATM   13  C   UNL     1     -13.215   7.447  71.683  1.00  0.00    -0.416 A  
HETATM   14  C   UNL     1     -13.477   9.789  72.189  1.00  0.00    -0.491 A  
HETATM   15  C   UNL     1     -13.937   8.477  72.279  1.00  0.00    -0.423 A  
BRANCH   9  16
HETATM   16  O   UNL     1      -9.107   9.470  68.045  1.00  0.00    -0.124 OA 
BRANCH  16  17
HETATM   17  C   UNL     1      -8.805   8.803  66.910  1.00  0.00    -0.127 C  
HETATM   18  H2  UNL     1     -10.428   9.815  66.025  1.00  0.00     0.000 HD 
HETATM   19  O   UNL     1      -7.891   8.011  66.750  1.00  0.00    -0.099 OA 
HETATM   20  H1  UNL     1      -9.435   8.645  65.068  1.00  0.00     0.000 HD 
HETATM   21  N   UNL     1      -9.663   9.148  65.926  1.00  0.00    -0.280 N  
ENDBRANCH  16  17
ENDBRANCH   9  16
ENDBRANCH   6   7
ENDBRANCH   2   6
TORSDOF 4
ENDMDL
MODEL      103
REMARK 921   NORMALIZED FREE ENERGY PREDICTED BY IDOCK:   -3.84 KCAL/MOL
REMARK 922        TOTAL FREE ENERGY PREDICTED BY IDOCK:   -5.13 KCAL/MOL
REMARK 923 INTER-LIGAND FREE ENERGY PREDICTED BY IDOCK:   -4.82 KCAL/MOL
REMARK 924 INTRA-LIGAND FREE ENERGY PREDICTED BY IDOCK:   -0.32 KCAL/MOL
REMARK 927      BINDING AFFINITY PREDICTED BY RF-SCORE:    0.00 PKD
ROOT
HETATM    1  N   UNL     1     -14.324   7.777  71.127  1.00  0.00    -0.676 N  
HETATM    2  C   UNL     1     -13.545   8.481  71.975  1.00  0.00    -0.392 C  
HETATM    3  H2  UNL     1     -15.216   8.181  70.843  1.00  0.00     0.000 HD 
HETATM    4  H1  UNL     1     -14.070   6.862  70.756  1.00  0.00     0.000 HD 
HETATM    5  O   UNL     1     -13.849   9.576  72.419  1.00  0.00    -0.424 OA 
ENDROOT
BRANCH   2   6
HETATM    6  O   UNL     1     -12.403   7.804  72.217  1.00  0.00    -0.287 OA 
BRANCH   6   7
HETATM    7  C   UNL     1     -11.563   7.561  71.071  1.00  0.00    -0.283 C  
HETATM    8  C   UNL     1     -11.214   6.064  70.936  1.00  0.00    -0.335 C  
HETATM    9  C   UNL     1     -10.355   5.794  69.689  1.00  0.00    -0.260 C  
HETATM   10  C   UNL     1     -10.531   5.530  72.191  1.00  0.00    -0.272 A  
HETATM   11  C   UNL     1     -11.109   4.473  72.909  1.00  0.00    -0.239 A  
HETATM   12  C   UNL     1      -9.333   6.089  72.668  1.00  0.00    -0.147 A  
HETATM   13  C   UNL     1      -8.743   5.617  73.841  1.00  0.00    -0.117 A  
HETATM   14  C   UNL     1     -10.515   4.001  74.083  1.00  0.00    -0.277 A  
HETATM   15  C   UNL     1      -9.337   4.577  74.551  1.00  0.00    -0.133 A  
BRANCH   9  16
HETATM   16  O   UNL     1     -11.046   6.215  68.499  1.00  0.00    -0.328 OA 
BRANCH  16  17
HETATM   17  C   UNL     1     -10.295   6.812  67.548  1.00  0.00    -0.210 C  
HETATM   18  H2  UNL     1      -8.751   5.491  68.108  1.00  0.00     0.000 HD 
HETATM   19  O   UNL     1     -10.641   7.713  66.803  1.00  0.00    -0.325 OA 
HETATM   20  H1  UNL     1      -8.498   6.703  66.789  1.00  0.00     0.000 HD 
HETATM   21  N   UNL     1      -9.066   6.253  67.508  1.00  0.00    -0.111 N  
ENDBRANCH  16  17
ENDBRANCH   9  16
ENDBRANCH   6   7
ENDBRANCH   2   6
TORSDOF 4
ENDMDL
MODEL      104
REMARK 921   NORMALIZED FREE ENERGY PREDICTED BY IDOCK:   -3.83 KCAL/MOL
REMARK 922        TOTAL FREE ENERGY PREDICTED BY IDOCK:   -5.13 KCAL/MOL
REMARK 923 INTER-LIGAND FREE ENERGY PREDICTED BY IDOCK:   -4.82 KCAL/MOL
REMARK 924 INTRA-LIGAND FREE ENERGY PREDICTED BY IDOCK:   -0.31 KCAL/MOL
REMARK 927      BINDING AFFINITY PREDICTED BY RF-SCORE:    0.00 PKD
ROOT
HETATM    1  N   UNL     1      -8.474   8.765  70.815  1.00  0.00    -0.155 N  
HETATM    2  C   UNL     1      -8.537   9.821  69.977  1.00  0.00    -0.204 C  
HETATM    3  H2  UNL     1      -7.557   8.471  71.152  1.00  0.00     0.000 HD 
HETATM    4  H1  UNL     1      -9.292   8.244  71.129  1.00  0.00     0.000 HD 
HETATM    5  O   UNL     1      -7.558  10.444  69.601  1.00  0.00    -0.145 OA 
ENDROOT
BRANCH   2   6
HETATM    6  O   UNL     1      -9.823  10.075  69.658  1.00  0.00    -0.214 OA 
BRANCH   6   7
HETATM    7  C   UNL     1     -10.029  10.929  68.515  1.00  0.00    -0.182 C  
HETATM    8  C   UNL     1     -10.828  10.209  67.410  1.00  0.00    -0.323 C  
HETATM    9  C   UNL     1     -11.088  11.132  66.207  1.00  0.00    -0.111 C  
HETATM   10  C   UNL     1     -10.141   8.921  66.966  1.00  0.00    -0.331 A  
HETATM   11  C   UNL     1     -10.806   7.692  67.088  1.00  0.00    -0.258 A  
HETATM   12  C   UNL     1      -8.833   8.928  66.453  1.00  0.00    -0.178 A  
HETATM   13  C   UNL     1      -8.203   7.736  66.092  1.00  0.00    -0.123 A  
HETATM   14  C   UNL     1     -10.174   6.501  66.724  1.00  0.00    -0.257 A  
HETATM   15  C   UNL     1      -8.871   6.523  66.232  1.00  0.00    -0.154 A  
BRANCH   9  16
HETATM   16  O   UNL     1     -11.820  12.302  66.617  1.00  0.00    -0.536 OA 
BRANCH  16  17
HETATM   17  C   UNL     1     -12.419  13.010  65.635  1.00  0.00    -0.390 C  
HETATM   18  H2  UNL     1     -11.479  14.710  66.451  1.00  0.00     0.000 HD 
HETATM   19  O   UNL     1     -13.144  12.571  64.757  1.00  0.00    -0.853 OA 
HETATM   20  H1  UNL     1     -12.543  14.850  64.995  1.00  0.00     0.000 HD 
HETATM   21  N   UNL     1     -12.091  14.315  65.737  1.00  0.00    -0.407 N  
ENDBRANCH  16  17
ENDBRANCH   9  16
ENDBRANCH   6   7
ENDBRANCH   2   6
TORSDOF 4
ENDMDL
MODEL      105
REMARK 921   NORMALIZED FREE ENERGY PREDICTED BY IDOCK:   -3.83 KCAL/MOL
REMARK 922        TOTAL FREE ENERGY PREDICTED BY IDOCK:   -5.13 KCAL/MOL
REMARK 923 INTER-LIGAND FREE ENERGY PREDICTED BY IDOCK:   -4.83 KCAL/MOL
REMARK 924 INTRA-LIGAND FREE ENERGY PREDICTED BY IDOCK:   -0.30 KCAL/MOL
REMARK 927      BINDING AFFINITY PREDICTED BY RF-SCORE:    0.00 PKD
ROOT
HETATM    1  N   UNL     1     -12.120  12.268  64.598  1.00  0.00    -0.391 N  
HETATM    2  C   UNL     1     -12.531  13.113  65.567  1.00  0.00    -0.458 C  
HETATM    3  H2  UNL     1     -12.632  12.261  63.715  1.00  0.00     0.000 HD 
HETATM    4  H1  UNL     1     -11.327  11.636  64.699  1.00  0.00     0.000 HD 
HETATM    5  O   UNL     1     -13.480  13.869  65.445  1.00  0.00    -0.672 OA 
ENDROOT
BRANCH   2   6
HETATM    6  O   UNL     1     -11.726  13.000  66.644  1.00  0.00    -0.343 OA 
BRANCH   6   7
HETATM    7  C   UNL     1     -10.314  12.918  66.365  1.00  0.00    -0.268 C  
HETATM    8  C   UNL     1      -9.474  13.406  67.563  1.00  0.00    -0.219 C  
HETATM    9  C   UNL     1      -7.966  13.278  67.287  1.00  0.00    -0.125 C  
HETATM   10  C   UNL     1      -9.833  14.835  67.958  1.00  0.00    -0.218 A  
HETATM   11  C   UNL     1     -10.307  15.109  69.249  1.00  0.00    -0.258 A  
HETATM   12  C   UNL     1      -9.722  15.897  67.045  1.00  0.00    -0.235 A  
HETATM   13  C   UNL     1     -10.096  17.192  67.408  1.00  0.00    -0.301 A  
HETATM   14  C   UNL     1     -10.678  16.407  69.611  1.00  0.00    -0.337 A  
HETATM   15  C   UNL     1     -10.578  17.445  68.690  1.00  0.00    -0.318 A  
BRANCH   9  16
HETATM   16  O   UNL     1      -7.619  11.909  67.007  1.00  0.00    -0.151 OA 
BRANCH  16  17
HETATM   17  C   UNL     1      -6.300  11.633  66.906  1.00  0.00    -0.142 C  
HETATM   18  H2  UNL     1      -6.853   9.600  66.850  1.00  0.00     0.000 HD 
HETATM   19  O   UNL     1      -5.387  12.440  66.867  1.00  0.00    -0.333 OA 
HETATM   20  H1  UNL     1      -5.114  10.090  66.756  1.00  0.00     0.000 HD 
HETATM   21  N   UNL     1      -6.110  10.298  66.833  1.00  0.00    -0.058 N  
ENDBRANCH  16  17
ENDBRANCH   9  16
ENDBRANCH   6   7
ENDBRANCH   2   6
TORSDOF 4
ENDMDL
MODEL      106
REMARK 921   NORMALIZED FREE ENERGY PREDICTED BY IDOCK:   -3.81 KCAL/MOL
REMARK 922        TOTAL FREE ENERGY PREDICTED BY IDOCK:   -5.10 KCAL/MOL
REMARK 923 INTER-LIGAND FREE ENERGY PREDICTED BY IDOCK:   -4.70 KCAL/MOL
REMARK 924 INTRA-LIGAND FREE ENERGY PREDICTED BY IDOCK:   -0.41 KCAL/MOL
REMARK 927      BINDING AFFINITY PREDICTED BY RF-SCORE:    0.00 PKD
ROOT
HETATM    1  N   UNL     1     -10.339  17.610  66.078  1.00  0.00    -0.354 N  
HETATM    2  C   UNL     1     -10.900  16.574  65.419  1.00  0.00    -0.206 C  
HETATM    3  H2  UNL     1     -10.134  18.461  65.553  1.00  0.00     0.000 HD 
HETATM    4  H1  UNL     1     -10.108  17.589  67.071  1.00  0.00     0.000 HD 
HETATM    5  O   UNL     1     -11.176  16.600  64.231  1.00  0.00    -1.098 OA 
ENDROOT
BRANCH   2   6
HETATM    6  O   UNL     1     -11.118  15.553  66.274  1.00  0.00    -0.286 OA 
BRANCH   6   7
HETATM    7  C   UNL     1     -10.569  14.279  65.882  1.00  0.00    -0.302 C  
HETATM    8  C   UNL     1      -9.874  13.577  67.067  1.00  0.00    -0.251 C  
HETATM    9  C   UNL     1      -9.326  12.197  66.664  1.00  0.00    -0.226 C  
HETATM   10  C   UNL     1      -8.773  14.443  67.668  1.00  0.00    -0.191 A  
HETATM   11  C   UNL     1      -8.838  14.826  69.016  1.00  0.00    -0.136 A  
HETATM   12  C   UNL     1      -7.690  14.894  66.895  1.00  0.00     0.062 A  
HETATM   13  C   UNL     1      -6.713  15.723  67.449  1.00  0.00    -0.228 A  
HETATM   14  C   UNL     1      -7.857  15.653  69.570  1.00  0.00    -0.180 A  
HETATM   15  C   UNL     1      -6.799  16.105  68.785  1.00  0.00    -0.144 A  
BRANCH   9  16
HETATM   16  O   UNL     1     -10.388  11.352  66.184  1.00  0.00    -0.233 OA 
BRANCH  16  17
HETATM   17  C   UNL     1     -10.020  10.308  65.409  1.00  0.00    -0.302 C  
HETATM   18  H2  UNL     1     -10.140   9.127  67.151  1.00  0.00     0.000 HD 
HETATM   19  O   UNL     1      -9.796  10.333  64.210  1.00  0.00    -0.329 OA 
HETATM   20  H1  UNL     1      -9.669   8.394  65.566  1.00  0.00     0.000 HD 
HETATM   21  N   UNL     1      -9.946   9.182  66.151  1.00  0.00    -0.294 N  
ENDBRANCH  16  17
ENDBRANCH   9  16
ENDBRANCH   6   7
ENDBRANCH   2   6
TORSDOF 4
ENDMDL
MODEL      107
REMARK 921   NORMALIZED FREE ENERGY PREDICTED BY IDOCK:   -3.78 KCAL/MOL
REMARK 922        TOTAL FREE ENERGY PREDICTED BY IDOCK:   -5.07 KCAL/MOL
REMARK 923 INTER-LIGAND FREE ENERGY PREDICTED BY IDOCK:   -4.69 KCAL/MOL
REMARK 924 INTRA-LIGAND FREE ENERGY PREDICTED BY IDOCK:   -0.38 KCAL/MOL
REMARK 927      BINDING AFFINITY PREDICTED BY RF-SCORE:    0.00 PKD
ROOT
HETATM    1  N   UNL     1      -8.242   8.437  67.654  1.00  0.00    -0.124 N  
HETATM    2  C   UNL     1      -9.110   9.196  66.952  1.00  0.00    -0.135 C  
HETATM    3  H2  UNL     1      -7.990   7.521  67.281  1.00  0.00     0.000 HD 
HETATM    4  H1  UNL     1      -7.824   8.728  68.537  1.00  0.00     0.000 HD 
HETATM    5  O   UNL     1      -9.610   8.846  65.895  1.00  0.00    -0.253 OA 
ENDROOT
BRANCH   2   6
HETATM    6  O   UNL     1      -9.303  10.372  67.582  1.00  0.00    -0.147 OA 
BRANCH   6   7
HETATM    7  C   UNL     1     -10.042  10.307  68.818  1.00  0.00    -0.187 C  
HETATM    8  C   UNL     1     -11.456  10.904  68.661  1.00  0.00    -0.380 C  
HETATM    9  C   UNL     1     -12.264  10.796  69.966  1.00  0.00    -0.334 C  
HETATM   10  C   UNL     1     -11.407  12.348  68.173  1.00  0.00    -0.341 A  
HETATM   11  C   UNL     1     -12.030  12.703  66.967  1.00  0.00    -0.330 A  
HETATM   12  C   UNL     1     -10.726  13.343  68.894  1.00  0.00    -0.219 A  
HETATM   13  C   UNL     1     -10.654  14.651  68.411  1.00  0.00    -0.241 A  
HETATM   14  C   UNL     1     -11.959  14.014  66.488  1.00  0.00    -0.470 A  
HETATM   15  C   UNL     1     -11.266  14.984  67.206  1.00  0.00    -0.339 A  
BRANCH   9  16
HETATM   16  O   UNL     1     -12.386   9.420  70.371  1.00  0.00    -0.026 OA 
BRANCH  16  17
HETATM   17  C   UNL     1     -12.390   9.184  71.702  1.00  0.00    -0.360 C  
HETATM   18  H2  UNL     1     -10.381   8.587  71.480  1.00  0.00     0.000 HD 
HETATM   19  O   UNL     1     -13.321   9.357  72.471  1.00  0.00    -0.440 OA 
HETATM   20  H1  UNL     1     -11.183   8.553  73.101  1.00  0.00     0.000 HD 
HETATM   21  N   UNL     1     -11.181   8.731  72.096  1.00  0.00    -0.362 N  
ENDBRANCH  16  17
ENDBRANCH   9  16
ENDBRANCH   6   7
ENDBRANCH   2   6
TORSDOF 4
ENDMDL
MODEL      108
REMARK 921   NORMALIZED FREE ENERGY PREDICTED BY IDOCK:   -3.77 KCAL/MOL
REMARK 922        TOTAL FREE ENERGY PREDICTED BY IDOCK:   -5.05 KCAL/MOL
REMARK 923 INTER-LIGAND FREE ENERGY PREDICTED BY IDOCK:   -4.54 KCAL/MOL
REMARK 924 INTRA-LIGAND FREE ENERGY PREDICTED BY IDOCK:   -0.51 KCAL/MOL
REMARK 927      BINDING AFFINITY PREDICTED BY RF-SCORE:    0.00 PKD
ROOT
HETATM    1  N   UNL     1      -8.854  18.880  68.135  1.00  0.00    -0.298 N  
HETATM    2  C   UNL     1     -10.170  18.582  68.158  1.00  0.00    -0.378 C  
HETATM    3  H2  UNL     1      -8.533  19.599  67.486  1.00  0.00     0.000 HD 
HETATM    4  H1  UNL     1      -8.161  18.426  68.730  1.00  0.00     0.000 HD 
HETATM    5  O   UNL     1     -10.997  19.126  67.446  1.00  0.00    -0.475 OA 
ENDROOT
BRANCH   2   6
HETATM    6  O   UNL     1     -10.408  17.633  69.087  1.00  0.00    -0.353 OA 
BRANCH   6   7
HETATM    7  C   UNL     1     -10.957  16.395  68.593  1.00  0.00    -0.345 C  
HETATM    8  C   UNL     1     -10.167  15.179  69.118  1.00  0.00    -0.249 C  
HETATM    9  C   UNL     1     -10.777  13.854  68.629  1.00  0.00    -0.260 C  
HETATM   10  C   UNL     1      -8.690  15.264  68.748  1.00  0.00    -0.195 A  
HETATM   11  C   UNL     1      -7.714  15.278  69.755  1.00  0.00    -0.079 A  
HETATM   12  C   UNL     1      -8.273  15.352  67.410  1.00  0.00    -0.205 A  
HETATM   13  C   UNL     1      -6.920  15.473  67.090  1.00  0.00    -0.125 A  
HETATM   14  C   UNL     1      -6.359  15.397  69.433  1.00  0.00    -0.134 A  
HETATM   15  C   UNL     1      -5.964  15.500  68.101  1.00  0.00    -0.138 A  
BRANCH   9  16
HETATM   16  O   UNL     1     -12.145  13.738  69.062  1.00  0.00    -0.346 OA 
BRANCH  16  17
HETATM   17  C   UNL     1     -12.340  13.292  70.322  1.00  0.00    -0.264 C  
HETATM   18  H2  UNL     1     -11.882  11.371  69.586  1.00  0.00     0.000 HD 
HETATM   19  O   UNL     1     -12.636  13.964  71.296  1.00  0.00    -0.340 OA 
HETATM   20  H1  UNL     1     -12.288  11.621  71.331  1.00  0.00     0.000 HD 
HETATM   21  N   UNL     1     -12.141  11.957  70.379  1.00  0.00    -0.358 N  
ENDBRANCH  16  17
ENDBRANCH   9  16
ENDBRANCH   6   7
ENDBRANCH   2   6
TORSDOF 4
ENDMDL
MODEL      109
REMARK 921   NORMALIZED FREE ENERGY PREDICTED BY IDOCK:   -3.75 KCAL/MOL
REMARK 922        TOTAL FREE ENERGY PREDICTED BY IDOCK:   -5.03 KCAL/MOL
REMARK 923 INTER-LIGAND FREE ENERGY PREDICTED BY IDOCK:   -4.77 KCAL/MOL
REMARK 924 INTRA-LIGAND FREE ENERGY PREDICTED BY IDOCK:   -0.26 KCAL/MOL
REMARK 927      BINDING AFFINITY PREDICTED BY RF-SCORE:    0.00 PKD
ROOT
HETATM    1  N   UNL     1      -7.393  13.020  68.296  1.00  0.00    -0.106 N  
HETATM    2  C   UNL     1      -7.370  14.317  67.922  1.00  0.00    -0.156 C  
HETATM    3  H2  UNL     1      -6.929  12.761  69.167  1.00  0.00     0.000 HD 
HETATM    4  H1  UNL     1      -7.848  12.285  67.756  1.00  0.00     0.000 HD 
HETATM    5  O   UNL     1      -6.825  15.196  68.569  1.00  0.00    -0.102 OA 
ENDROOT
BRANCH   2   6
HETATM    6  O   UNL     1      -8.049  14.472  66.767  1.00  0.00    -0.077 OA 
BRANCH   6   7
HETATM    7  C   UNL     1      -9.361  15.058  66.884  1.00  0.00    -0.241 C  
HETATM    8  C   UNL     1     -10.433  13.987  67.173  1.00  0.00    -0.270 C  
HETATM    9  C   UNL     1     -11.828  14.614  67.344  1.00  0.00    -0.348 C  
HETATM   10  C   UNL     1     -10.453  12.906  66.098  1.00  0.00    -0.283 A  
HETATM   11  C   UNL     1     -10.219  11.567  66.444  1.00  0.00    -0.261 A  
HETATM   12  C   UNL     1     -10.681  13.219  64.747  1.00  0.00    -0.393 A  
HETATM   13  C   UNL     1     -10.653  12.224  63.769  1.00  0.00    -0.488 A  
HETATM   14  C   UNL     1     -10.194  10.572  65.463  1.00  0.00    -0.325 A  
HETATM   15  C   UNL     1     -10.406  10.902  64.127  1.00  0.00    -0.432 A  
BRANCH   9  16
HETATM   16  O   UNL     1     -11.824  15.567  68.424  1.00  0.00    -0.351 OA 
BRANCH  16  17
HETATM   17  C   UNL     1     -11.456  15.098  69.636  1.00  0.00    -0.293 C  
HETATM   18  H2  UNL     1     -13.208  13.927  69.582  1.00  0.00     0.000 HD 
HETATM   19  O   UNL     1     -10.452  15.397  70.260  1.00  0.00    -0.301 OA 
HETATM   20  H1  UNL     1     -12.088  13.852  71.001  1.00  0.00     0.000 HD 
HETATM   21  N   UNL     1     -12.366  14.207  70.085  1.00  0.00    -0.342 N  
ENDBRANCH  16  17
ENDBRANCH   9  16
ENDBRANCH   6   7
ENDBRANCH   2   6
TORSDOF 4
ENDMDL
MODEL      110
REMARK 921   NORMALIZED FREE ENERGY PREDICTED BY IDOCK:   -3.75 KCAL/MOL
REMARK 922        TOTAL FREE ENERGY PREDICTED BY IDOCK:   -5.03 KCAL/MOL
REMARK 923 INTER-LIGAND FREE ENERGY PREDICTED BY IDOCK:   -4.67 KCAL/MOL
REMARK 924 INTRA-LIGAND FREE ENERGY PREDICTED BY IDOCK:   -0.35 KCAL/MOL
REMARK 927      BINDING AFFINITY PREDICTED BY RF-SCORE:    0.00 PKD
ROOT
HETATM    1  N   UNL     1     -13.726   9.213  71.298  1.00  0.00    -0.543 N  
HETATM    2  C   UNL     1     -12.773  10.126  71.016  1.00  0.00    -0.386 C  
HETATM    3  H2  UNL     1     -14.517   9.503  71.873  1.00  0.00     0.000 HD 
HETATM    4  H1  UNL     1     -13.698   8.248  70.968  1.00  0.00     0.000 HD 
HETATM    5  O   UNL     1     -12.807  11.280  71.411  1.00  0.00    -0.406 OA 
ENDROOT
BRANCH   2   6
HETATM    6  O   UNL     1     -11.826   9.572  70.231  1.00  0.00    -0.189 OA 
BRANCH   6   7
HETATM    7  C   UNL     1     -10.468   9.962  70.517  1.00  0.00    -0.264 C  
HETATM    8  C   UNL     1      -9.513   8.752  70.469  1.00  0.00    -0.219 C  
HETATM    9  C   UNL     1      -8.055   9.171  70.730  1.00  0.00    -0.174 C  
HETATM   10  C   UNL     1      -9.943   7.656  71.439  1.00  0.00    -0.203 A  
HETATM   11  C   UNL     1     -10.248   6.374  70.959  1.00  0.00    -0.227 A  
HETATM   12  C   UNL     1     -10.065   7.903  72.816  1.00  0.00    -0.365 A  
HETATM   13  C   UNL     1     -10.502   6.902  73.685  1.00  0.00    -0.400 A  
HETATM   14  C   UNL     1     -10.682   5.372  71.831  1.00  0.00    -0.275 A  
HETATM   15  C   UNL     1     -10.814   5.638  73.191  1.00  0.00    -0.321 A  
BRANCH   9  16
HETATM   16  O   UNL     1      -7.626  10.137  69.753  1.00  0.00    -0.141 OA 
BRANCH  16  17
HETATM   17  C   UNL     1      -6.483  10.803  70.029  1.00  0.00    -0.151 C  
HETATM   18  H2  UNL     1      -6.336  11.169  67.959  1.00  0.00     0.000 HD 
HETATM   19  O   UNL     1      -5.990  10.979  71.131  1.00  0.00    -0.362 OA 
HETATM   20  H1  UNL     1      -5.079  11.792  69.100  1.00  0.00     0.000 HD 
HETATM   21  N   UNL     1      -5.941  11.288  68.891  1.00  0.00    -0.043 N  
ENDBRANCH  16  17
ENDBRANCH   9  16
ENDBRANCH   6   7
ENDBRANCH   2   6
TORSDOF 4
ENDMDL
MODEL      111
REMARK 921   NORMALIZED FREE ENERGY PREDICTED BY IDOCK:   -3.75 KCAL/MOL
REMARK 922        TOTAL FREE ENERGY PREDICTED BY IDOCK:   -5.02 KCAL/MOL
REMARK 923 INTER-LIGAND FREE ENERGY PREDICTED BY IDOCK:   -4.68 KCAL/MOL
REMARK 924 INTRA-LIGAND FREE ENERGY PREDICTED BY IDOCK:   -0.34 KCAL/MOL
REMARK 927      BINDING AFFINITY PREDICTED BY RF-SCORE:    0.00 PKD
ROOT
HETATM    1  N   UNL     1     -12.299   5.785  72.587  1.00  0.00    -0.475 N  
HETATM    2  C   UNL     1     -12.883   6.686  71.770  1.00  0.00    -0.179 C  
HETATM    3  H2  UNL     1     -12.828   5.451  73.394  1.00  0.00     0.000 HD 
HETATM    4  H1  UNL     1     -11.359   5.419  72.443  1.00  0.00     0.000 HD 
HETATM    5  O   UNL     1     -14.009   7.124  71.942  1.00  0.00    -0.322 OA 
ENDROOT
BRANCH   2   6
HETATM    6  O   UNL     1     -12.050   6.990  70.753  1.00  0.00    -0.355 OA 
BRANCH   6   7
HETATM    7  C   UNL     1     -10.665   7.168  71.110  1.00  0.00    -0.232 C  
HETATM    8  C   UNL     1     -10.330   8.656  71.342  1.00  0.00    -0.331 C  
HETATM    9  C   UNL     1      -8.864   8.847  71.767  1.00  0.00    -0.101 C  
HETATM   10  C   UNL     1     -10.653   9.504  70.116  1.00  0.00    -0.298 A  
HETATM   11  C   UNL     1     -11.574  10.558  70.214  1.00  0.00    -0.417 A  
HETATM   12  C   UNL     1     -10.064   9.242  68.868  1.00  0.00    -0.207 A  
HETATM   13  C   UNL     1     -10.403  10.000  67.746  1.00  0.00    -0.261 A  
HETATM   14  C   UNL     1     -11.909  11.317  69.090  1.00  0.00    -0.423 A  
HETATM   15  C   UNL     1     -11.329  11.034  67.856  1.00  0.00    -0.381 A  
BRANCH   9  16
HETATM   16  O   UNL     1      -8.590   8.118  72.978  1.00  0.00    -0.182 OA 
BRANCH  16  17
HETATM   17  C   UNL     1      -7.314   8.146  73.421  1.00  0.00    -0.135 C  
HETATM   18  H2  UNL     1      -7.877   6.632  74.775  1.00  0.00     0.000 HD 
HETATM   19  O   UNL     1      -6.413   8.854  73.003  1.00  0.00    -0.288 OA 
HETATM   20  H1  UNL     1      -6.183   7.266  74.747  1.00  0.00     0.000 HD 
HETATM   21  N   UNL     1      -7.147   7.245  74.413  1.00  0.00    -0.098 N  
ENDBRANCH  16  17
ENDBRANCH   9  16
ENDBRANCH   6   7
ENDBRANCH   2   6
TORSDOF 4
ENDMDL
MODEL      112
REMARK 921   NORMALIZED FREE ENERGY PREDICTED BY IDOCK:   -3.74 KCAL/MOL
REMARK 922        TOTAL FREE ENERGY PREDICTED BY IDOCK:   -5.02 KCAL/MOL
REMARK 923 INTER-LIGAND FREE ENERGY PREDICTED BY IDOCK:   -4.72 KCAL/MOL
REMARK 924 INTRA-LIGAND FREE ENERGY PREDICTED BY IDOCK:   -0.30 KCAL/MOL
REMARK 927      BINDING AFFINITY PREDICTED BY RF-SCORE:    0.00 PKD
ROOT
HETATM    1  N   UNL     1     -13.898   8.970  72.778  1.00  0.00    -0.886 N  
HETATM    2  C   UNL     1     -13.083   9.529  71.858  1.00  0.00    -0.428 C  
HETATM    3  H2  UNL     1     -14.906   9.062  72.649  1.00  0.00     0.000 HD 
HETATM    4  H1  UNL     1     -13.561   8.461  73.595  1.00  0.00     0.000 HD 
HETATM    5  O   UNL     1     -13.486  10.137  70.881  1.00  0.00    -0.345 OA 
ENDROOT
BRANCH   2   6
HETATM    6  O   UNL     1     -11.796   9.286  72.180  1.00  0.00    -0.328 OA 
BRANCH   6   7
HETATM    7  C   UNL     1     -11.361   7.918  72.041  1.00  0.00    -0.292 C  
HETATM    8  C   UNL     1      -9.905   7.838  71.538  1.00  0.00    -0.200 C  
HETATM    9  C   UNL     1      -9.424   6.380  71.431  1.00  0.00    -0.155 C  
HETATM   10  C   UNL     1      -9.727   8.566  70.209  1.00  0.00    -0.182 A  
HETATM   11  C   UNL     1      -8.822   9.632  70.109  1.00  0.00    -0.266 A  
HETATM   12  C   UNL     1     -10.471   8.209  69.073  1.00  0.00    -0.211 A  
HETATM   13  C   UNL     1     -10.328   8.913  67.876  1.00  0.00    -0.286 A  
HETATM   14  C   UNL     1      -8.678  10.334  68.909  1.00  0.00    -0.152 A  
HETATM   15  C   UNL     1      -9.435   9.978  67.796  1.00  0.00    -0.157 A  
BRANCH   9  16
HETATM   16  O   UNL     1      -9.507   5.726  72.711  1.00  0.00    -0.146 OA 
BRANCH  16  17
HETATM   17  C   UNL     1     -10.360   4.683  72.797  1.00  0.00    -0.189 C  
HETATM   18  H2  UNL     1      -8.931   3.579  71.710  1.00  0.00     0.000 HD 
HETATM   19  O   UNL     1     -11.443   4.670  73.358  1.00  0.00    -0.328 OA 
HETATM   20  H1  UNL     1     -10.481   2.815  72.242  1.00  0.00     0.000 HD 
HETATM   21  N   UNL     1      -9.837   3.603  72.176  1.00  0.00    -0.162 N  
ENDBRANCH  16  17
ENDBRANCH   9  16
ENDBRANCH   6   7
ENDBRANCH   2   6
TORSDOF 4
ENDMDL
MODEL      113
REMARK 921   NORMALIZED FREE ENERGY PREDICTED BY IDOCK:   -3.74 KCAL/MOL
REMARK 922        TOTAL FREE ENERGY PREDICTED BY IDOCK:   -5.01 KCAL/MOL
REMARK 923 INTER-LIGAND FREE ENERGY PREDICTED BY IDOCK:   -4.57 KCAL/MOL
REMARK 924 INTRA-LIGAND FREE ENERGY PREDICTED BY IDOCK:   -0.44 KCAL/MOL
REMARK 927      BINDING AFFINITY PREDICTED BY RF-SCORE:    0.00 PKD
ROOT
HETATM    1  N   UNL     1      -7.928   6.146  73.086  1.00  0.00    -0.107 N  
HETATM    2  C   UNL     1      -8.975   6.905  73.471  1.00  0.00    -0.141 C  
HETATM    3  H2  UNL     1      -6.986   6.488  73.282  1.00  0.00     0.000 HD 
HETATM    4  H1  UNL     1      -8.025   5.249  72.610  1.00  0.00     0.000 HD 
HETATM    5  O   UNL     1      -8.858   7.978  74.040  1.00  0.00    -0.263 OA 
ENDROOT
BRANCH   2   6
HETATM    6  O   UNL     1     -10.130   6.286  73.152  1.00  0.00    -0.175 OA 
BRANCH   6   7
HETATM    7  C   UNL     1     -10.243   5.830  71.789  1.00  0.00    -0.197 C  
HETATM    8  C   UNL     1     -10.644   6.980  70.842  1.00  0.00    -0.238 C  
HETATM    9  C   UNL     1     -10.721   6.508  69.380  1.00  0.00    -0.277 C  
HETATM   10  C   UNL     1     -11.955   7.631  71.271  1.00  0.00    -0.330 A  
HETATM   11  C   UNL     1     -11.990   8.997  71.590  1.00  0.00    -0.426 A  
HETATM   12  C   UNL     1     -13.142   6.887  71.380  1.00  0.00    -0.316 A  
HETATM   13  C   UNL     1     -14.324   7.488  71.816  1.00  0.00    -0.588 A  
HETATM   14  C   UNL     1     -13.175   9.597  72.023  1.00  0.00    -0.546 A  
HETATM   15  C   UNL     1     -14.339   8.842  72.141  1.00  0.00    -0.481 A  
BRANCH   9  16
HETATM   16  O   UNL     1      -9.452   5.981  68.952  1.00  0.00    -0.125 OA 
BRANCH  16  17
HETATM   17  C   UNL     1      -8.640   6.833  68.289  1.00  0.00    -0.124 C  
HETATM   18  H2  UNL     1     -10.026   6.731  66.704  1.00  0.00     0.000 HD 
HETATM   19  O   UNL     1      -7.599   7.317  68.700  1.00  0.00    -0.108 OA 
HETATM   20  H1  UNL     1      -8.540   7.754  66.570  1.00  0.00     0.000 HD 
HETATM   21  N   UNL     1      -9.153   7.110  67.071  1.00  0.00    -0.130 N  
ENDBRANCH  16  17
ENDBRANCH   9  16
ENDBRANCH   6   7
ENDBRANCH   2   6
TORSDOF 4
ENDMDL
MODEL      114
REMARK 921   NORMALIZED FREE ENERGY PREDICTED BY IDOCK:   -3.74 KCAL/MOL
REMARK 922        TOTAL FREE ENERGY PREDICTED BY IDOCK:   -5.01 KCAL/MOL
REMARK 923 INTER-LIGAND FREE ENERGY PREDICTED BY IDOCK:   -4.69 KCAL/MOL
REMARK 924 INTRA-LIGAND FREE ENERGY PREDICTED BY IDOCK:   -0.32 KCAL/MOL
REMARK 927      BINDING AFFINITY PREDICTED BY RF-SCORE:    0.00 PKD
ROOT
HETATM    1  N   UNL     1      -9.710  17.473  67.057  1.00  0.00    -0.274 N  
HETATM    2  C   UNL     1      -8.893  16.824  66.201  1.00  0.00    -0.263 C  
HETATM    3  H2  UNL     1      -9.472  18.431  67.318  1.00  0.00     0.000 HD 
HETATM    4  H1  UNL     1     -10.551  17.059  67.459  1.00  0.00     0.000 HD 
HETATM    5  O   UNL     1      -7.887  17.320  65.721  1.00  0.00    -0.495 OA 
ENDROOT
BRANCH   2   6
HETATM    6  O   UNL     1      -9.376  15.589  65.956  1.00  0.00    -0.316 OA 
BRANCH   6   7
HETATM    7  C   UNL     1     -10.464  15.162  66.800  1.00  0.00    -0.283 C  
HETATM    8  C   UNL     1     -10.066  13.942  67.657  1.00  0.00    -0.241 C  
HETATM    9  C   UNL     1     -11.210  13.512  68.593  1.00  0.00    -0.278 C  
HETATM   10  C   UNL     1      -9.604  12.774  66.793  1.00  0.00    -0.244 A  
HETATM   11  C   UNL     1      -8.310  12.254  66.950  1.00  0.00    -0.137 A  
HETATM   12  C   UNL     1     -10.439  12.209  65.816  1.00  0.00    -0.287 A  
HETATM   13  C   UNL     1      -9.985  11.169  65.004  1.00  0.00    -0.325 A  
HETATM   14  C   UNL     1      -7.859  11.210  66.138  1.00  0.00    -0.072 A  
HETATM   15  C   UNL     1      -8.695  10.672  65.162  1.00  0.00    -0.196 A  
BRANCH   9  16
HETATM   16  O   UNL     1     -11.578  14.592  69.470  1.00  0.00    -0.272 OA 
BRANCH  16  17
HETATM   17  C   UNL     1     -12.107  14.242  70.663  1.00  0.00    -0.346 C  
HETATM   18  H2  UNL     1     -12.082  12.256  69.957  1.00  0.00     0.000 HD 
HETATM   19  O   UNL     1     -12.369  14.988  71.592  1.00  0.00    -0.304 OA 
HETATM   20  H1  UNL     1     -12.701  12.643  71.612  1.00  0.00     0.000 HD 
HETATM   21  N   UNL     1     -12.302  12.907  70.711  1.00  0.00    -0.359 N  
ENDBRANCH  16  17
ENDBRANCH   9  16
ENDBRANCH   6   7
ENDBRANCH   2   6
TORSDOF 4
ENDMDL
MODEL      115
REMARK 921   NORMALIZED FREE ENERGY PREDICTED BY IDOCK:   -3.72 KCAL/MOL
REMARK 922        TOTAL FREE ENERGY PREDICTED BY IDOCK:   -4.99 KCAL/MOL
REMARK 923 INTER-LIGAND FREE ENERGY PREDICTED BY IDOCK:   -4.62 KCAL/MOL
REMARK 924 INTRA-LIGAND FREE ENERGY PREDICTED BY IDOCK:   -0.37 KCAL/MOL
REMARK 927      BINDING AFFINITY PREDICTED BY RF-SCORE:    0.00 PKD
ROOT
HETATM    1  N   UNL     1      -8.351   8.412  65.315  1.00  0.00    -0.153 N  
HETATM    2  C   UNL     1      -8.603   9.279  64.312  1.00  0.00    -0.193 C  
HETATM    3  H2  UNL     1      -8.137   7.444  65.074  1.00  0.00     0.000 HD 
HETATM    4  H1  UNL     1      -8.363   8.672  66.301  1.00  0.00     0.000 HD 
HETATM    5  O   UNL     1      -8.588   8.968  63.132  1.00  0.00    -0.200 OA 
ENDROOT
BRANCH   2   6
HETATM    6  O   UNL     1      -8.839  10.507  64.817  1.00  0.00    -0.184 OA 
BRANCH   6   7
HETATM    7  C   UNL     1      -9.244  10.549  66.200  1.00  0.00    -0.170 C  
HETATM    8  C   UNL     1     -10.744  10.883  66.339  1.00  0.00    -0.257 C  
HETATM    9  C   UNL     1     -11.189  10.884  67.812  1.00  0.00    -0.317 C  
HETATM   10  C   UNL     1     -11.090  12.208  65.667  1.00  0.00    -0.360 A  
HETATM   11  C   UNL     1     -12.034  12.242  64.629  1.00  0.00    -0.437 A  
HETATM   12  C   UNL     1     -10.467  13.408  66.047  1.00  0.00    -0.294 A  
HETATM   13  C   UNL     1     -10.763  14.604  65.392  1.00  0.00    -0.382 A  
HETATM   14  C   UNL     1     -12.331  13.442  63.977  1.00  0.00    -0.402 A  
HETATM   15  C   UNL     1     -11.692  14.620  64.355  1.00  0.00    -0.358 A  
BRANCH   9  16
HETATM   16  O   UNL     1     -10.944   9.600  68.414  1.00  0.00    -0.198 OA 
BRANCH  16  17
HETATM   17  C   UNL     1     -10.549   9.609  69.706  1.00  0.00    -0.242 C  
HETATM   18  H2  UNL     1      -8.701  10.348  69.011  1.00  0.00     0.000 HD 
HETATM   19  O   UNL     1     -11.214   9.284  70.675  1.00  0.00    -0.248 OA 
HETATM   20  H1  UNL     1      -8.980  10.065  70.775  1.00  0.00     0.000 HD 
HETATM   21  N   UNL     1      -9.279  10.058  69.800  1.00  0.00    -0.219 N  
ENDBRANCH  16  17
ENDBRANCH   9  16
ENDBRANCH   6   7
ENDBRANCH   2   6
TORSDOF 4
ENDMDL
MODEL      116
REMARK 921   NORMALIZED FREE ENERGY PREDICTED BY IDOCK:   -3.65 KCAL/MOL
REMARK 922        TOTAL FREE ENERGY PREDICTED BY IDOCK:   -4.90 KCAL/MOL
REMARK 923 INTER-LIGAND FREE ENERGY PREDICTED BY IDOCK:   -4.54 KCAL/MOL
REMARK 924 INTRA-LIGAND FREE ENERGY PREDICTED BY IDOCK:   -0.37 KCAL/MOL
REMARK 927      BINDING AFFINITY PREDICTED BY RF-SCORE:    0.00 PKD
ROOT
HETATM    1  N   UNL     1      -6.849   8.217  71.497  1.00  0.00    -0.055 N  
HETATM    2  C   UNL     1      -7.360   8.491  70.278  1.00  0.00    -0.052 C  
HETATM    3  H2  UNL     1      -6.269   7.384  71.601  1.00  0.00     0.000 HD 
HETATM    4  H1  UNL     1      -7.011   8.796  72.320  1.00  0.00     0.000 HD 
HETATM    5  O   UNL     1      -7.166   7.797  69.294  1.00  0.00    -0.077 OA 
ENDROOT
BRANCH   2   6
HETATM    6  O   UNL     1      -8.075   9.634  70.328  1.00  0.00    -0.166 OA 
BRANCH   6   7
HETATM    7  C   UNL     1      -8.928   9.890  69.194  1.00  0.00    -0.169 C  
HETATM    8  C   UNL     1     -10.379  10.172  69.634  1.00  0.00    -0.278 C  
HETATM    9  C   UNL     1     -11.283  10.490  68.430  1.00  0.00    -0.279 C  
HETATM   10  C   UNL     1     -10.954   9.021  70.453  1.00  0.00    -0.283 A  
HETATM   11  C   UNL     1     -11.396   9.245  71.765  1.00  0.00    -0.437 A  
HETATM   12  C   UNL     1     -11.032   7.719  69.932  1.00  0.00    -0.194 A  
HETATM   13  C   UNL     1     -11.520   6.667  70.710  1.00  0.00    -0.407 A  
HETATM   14  C   UNL     1     -11.887   8.192  72.541  1.00  0.00    -0.438 A  
HETATM   15  C   UNL     1     -11.943   6.904  72.015  1.00  0.00    -0.342 A  
BRANCH   9  16
HETATM   16  O   UNL     1     -10.786  11.637  67.715  1.00  0.00    -0.197 OA 
BRANCH  16  17
HETATM   17  C   UNL     1     -11.330  11.869  66.500  1.00  0.00    -0.341 C  
HETATM   18  H2  UNL     1      -9.880  10.548  65.730  1.00  0.00     0.000 HD 
HETATM   19  O   UNL     1     -12.285  12.587  66.254  1.00  0.00    -0.600 OA 
HETATM   20  H1  UNL     1     -11.084  11.340  64.637  1.00  0.00     0.000 HD 
HETATM   21  N   UNL     1     -10.672  11.165  65.554  1.00  0.00    -0.224 N  
ENDBRANCH  16  17
ENDBRANCH   9  16
ENDBRANCH   6   7
ENDBRANCH   2   6
TORSDOF 4
ENDMDL
MODEL      117
REMARK 921   NORMALIZED FREE ENERGY PREDICTED BY IDOCK:   -3.64 KCAL/MOL
REMARK 922        TOTAL FREE ENERGY PREDICTED BY IDOCK:   -4.89 KCAL/MOL
REMARK 923 INTER-LIGAND FREE ENERGY PREDICTED BY IDOCK:   -4.45 KCAL/MOL
REMARK 924 INTRA-LIGAND FREE ENERGY PREDICTED BY IDOCK:   -0.44 KCAL/MOL
REMARK 927      BINDING AFFINITY PREDICTED BY RF-SCORE:    0.00 PKD
ROOT
HETATM    1  N   UNL     1      -6.217  10.825  68.231  1.00  0.00    -0.053 N  
HETATM    2  C   UNL     1      -6.775  11.314  67.103  1.00  0.00    -0.113 C  
HETATM    3  H2  UNL     1      -5.284  10.417  68.170  1.00  0.00     0.000 HD 
HETATM    4  H1  UNL     1      -6.678  10.840  69.140  1.00  0.00     0.000 HD 
HETATM    5  O   UNL     1      -6.223  11.296  66.015  1.00  0.00    -0.083 OA 
ENDROOT
BRANCH   2   6
HETATM    6  O   UNL     1      -7.990  11.831  67.380  1.00  0.00    -0.138 OA 
BRANCH   6   7
HETATM    7  C   UNL     1      -8.912  10.943  68.043  1.00  0.00    -0.145 C  
HETATM    8  C   UNL     1      -9.690  10.080  67.029  1.00  0.00    -0.227 C  
HETATM    9  C   UNL     1     -10.643   9.099  67.735  1.00  0.00    -0.227 C  
HETATM   10  C   UNL     1     -10.446  10.939  66.021  1.00  0.00    -0.287 A  
HETATM   11  C   UNL     1     -10.174  10.817  64.650  1.00  0.00    -0.419 A  
HETATM   12  C   UNL     1     -11.406  11.879  66.433  1.00  0.00    -0.400 A  
HETATM   13  C   UNL     1     -12.058  12.688  65.501  1.00  0.00    -0.515 A  
HETATM   14  C   UNL     1     -10.830  11.627  63.719  1.00  0.00    -0.493 A  
HETATM   15  C   UNL     1     -11.766  12.565  64.145  1.00  0.00    -0.471 A  
BRANCH   9  16
HETATM   16  O   UNL     1      -9.910   8.228  68.615  1.00  0.00    -0.167 OA 
BRANCH  16  17
HETATM   17  C   UNL     1     -10.535   7.862  69.755  1.00  0.00    -0.233 C  
HETATM   18  H2  UNL     1      -9.494   9.437  70.691  1.00  0.00     0.000 HD 
HETATM   19  O   UNL     1     -11.342   6.957  69.886  1.00  0.00    -0.294 OA 
HETATM   20  H1  UNL     1     -10.628   8.390  71.633  1.00  0.00     0.000 HD 
HETATM   21  N   UNL     1     -10.156   8.666  70.772  1.00  0.00    -0.190 N  
ENDBRANCH  16  17
ENDBRANCH   9  16
ENDBRANCH   6   7
ENDBRANCH   2   6
TORSDOF 4
ENDMDL
MODEL      118
REMARK 921   NORMALIZED FREE ENERGY PREDICTED BY IDOCK:   -3.64 KCAL/MOL
REMARK 922        TOTAL FREE ENERGY PREDICTED BY IDOCK:   -4.88 KCAL/MOL
REMARK 923 INTER-LIGAND FREE ENERGY PREDICTED BY IDOCK:   -4.54 KCAL/MOL
REMARK 924 INTRA-LIGAND FREE ENERGY PREDICTED BY IDOCK:   -0.34 KCAL/MOL
REMARK 927      BINDING AFFINITY PREDICTED BY RF-SCORE:    0.00 PKD
ROOT
HETATM    1  N   UNL     1     -10.175  11.642  69.274  1.00  0.00    -0.425 N  
HETATM    2  C   UNL     1     -11.161  10.791  68.922  1.00  0.00    -0.268 C  
HETATM    3  H2  UNL     1     -10.144  12.558  68.824  1.00  0.00     0.000 HD 
HETATM    4  H1  UNL     1      -9.458  11.421  69.964  1.00  0.00     0.000 HD 
HETATM    5  O   UNL     1     -12.018  11.056  68.095  1.00  0.00    -0.610 OA 
ENDROOT
BRANCH   2   6
HETATM    6  O   UNL     1     -11.055   9.649  69.632  1.00  0.00    -0.236 OA 
BRANCH   6   7
HETATM    7  C   UNL     1     -10.601   8.494  68.899  1.00  0.00    -0.144 C  
HETATM    8  C   UNL     1     -10.901   7.188  69.663  1.00  0.00    -0.254 C  
HETATM    9  C   UNL     1     -10.458   5.950  68.863  1.00  0.00    -0.259 C  
HETATM   10  C   UNL     1     -10.270   7.190  71.052  1.00  0.00    -0.205 A  
HETATM   11  C   UNL     1     -11.079   7.059  72.190  1.00  0.00    -0.279 A  
HETATM   12  C   UNL     1      -8.885   7.343  71.227  1.00  0.00    -0.138 A  
HETATM   13  C   UNL     1      -8.328   7.386  72.506  1.00  0.00    -0.128 A  
HETATM   14  C   UNL     1     -10.519   7.100  73.470  1.00  0.00    -0.422 A  
HETATM   15  C   UNL     1      -9.146   7.269  73.627  1.00  0.00    -0.247 A  
BRANCH   9  16
HETATM   16  O   UNL     1     -11.129   5.905  67.590  1.00  0.00    -0.243 OA 
BRANCH  16  17
HETATM   17  C   UNL     1     -10.445   5.342  66.571  1.00  0.00    -0.294 C  
HETATM   18  H2  UNL     1      -8.839   6.594  67.115  1.00  0.00     0.000 HD 
HETATM   19  O   UNL     1     -10.844   4.469  65.818  1.00  0.00    -0.247 OA 
HETATM   20  H1  UNL     1      -8.688   5.448  65.724  1.00  0.00     0.000 HD 
HETATM   21  N   UNL     1      -9.205   5.873  66.494  1.00  0.00    -0.142 N  
ENDBRANCH  16  17
ENDBRANCH   9  16
ENDBRANCH   6   7
ENDBRANCH   2   6
TORSDOF 4
ENDMDL
MODEL      119
REMARK 921   NORMALIZED FREE ENERGY PREDICTED BY IDOCK:   -3.62 KCAL/MOL
REMARK 922        TOTAL FREE ENERGY PREDICTED BY IDOCK:   -4.87 KCAL/MOL
REMARK 923 INTER-LIGAND FREE ENERGY PREDICTED BY IDOCK:   -4.52 KCAL/MOL
REMARK 924 INTRA-LIGAND FREE ENERGY PREDICTED BY IDOCK:   -0.34 KCAL/MOL
REMARK 927      BINDING AFFINITY PREDICTED BY RF-SCORE:    0.00 PKD
ROOT
HETATM    1  N   UNL     1     -11.580   5.729  73.017  1.00  0.00    -0.519 N  
HETATM    2  C   UNL     1     -10.406   5.179  72.641  1.00  0.00    -0.200 C  
HETATM    3  H2  UNL     1     -11.990   5.433  73.903  1.00  0.00     0.000 HD 
HETATM    4  H1  UNL     1     -12.081   6.424  72.463  1.00  0.00     0.000 HD 
HETATM    5  O   UNL     1      -9.808   4.348  73.304  1.00  0.00    -0.130 OA 
ENDROOT
BRANCH   2   6
HETATM    6  O   UNL     1     -10.011   5.706  71.464  1.00  0.00    -0.170 OA 
BRANCH   6   7
HETATM    7  C   UNL     1      -9.910   7.143  71.422  1.00  0.00    -0.176 C  
HETATM    8  C   UNL     1     -10.675   7.726  70.216  1.00  0.00    -0.237 C  
HETATM    9  C   UNL     1     -10.608   9.263  70.193  1.00  0.00    -0.231 C  
HETATM   10  C   UNL     1     -10.177   7.143  68.897  1.00  0.00    -0.188 A  
HETATM   11  C   UNL     1     -11.062   6.448  68.059  1.00  0.00    -0.365 A  
HETATM   12  C   UNL     1      -8.834   7.263  68.504  1.00  0.00    -0.129 A  
HETATM   13  C   UNL     1      -8.385   6.685  67.315  1.00  0.00    -0.120 A  
HETATM   14  C   UNL     1     -10.610   5.874  66.868  1.00  0.00    -0.384 A  
HETATM   15  C   UNL     1      -9.272   5.988  66.500  1.00  0.00    -0.158 A  
BRANCH   9  16
HETATM   16  O   UNL     1     -11.166   9.811  71.402  1.00  0.00    -0.366 OA 
BRANCH  16  17
HETATM   17  C   UNL     1     -12.446  10.238  71.333  1.00  0.00    -0.424 C  
HETATM   18  H2  UNL     1     -11.752  11.727  70.012  1.00  0.00     0.000 HD 
HETATM   19  O   UNL     1     -13.409   9.751  71.900  1.00  0.00    -0.403 OA 
HETATM   20  H1  UNL     1     -13.502  11.627  70.456  1.00  0.00     0.000 HD 
HETATM   21  N   UNL     1     -12.536  11.304  70.509  1.00  0.00    -0.321 N  
ENDBRANCH  16  17
ENDBRANCH   9  16
ENDBRANCH   6   7
ENDBRANCH   2   6
TORSDOF 4
ENDMDL
MODEL      120
REMARK 921   NORMALIZED FREE ENERGY PREDICTED BY IDOCK:   -3.62 KCAL/MOL
REMARK 922        TOTAL FREE ENERGY PREDICTED BY IDOCK:   -4.86 KCAL/MOL
REMARK 923 INTER-LIGAND FREE ENERGY PREDICTED BY IDOCK:   -4.49 KCAL/MOL
REMARK 924 INTRA-LIGAND FREE ENERGY PREDICTED BY IDOCK:   -0.37 KCAL/MOL
REMARK 927      BINDING AFFINITY PREDICTED BY RF-SCORE:    0.00 PKD
ROOT
HETATM    1  N   UNL     1     -12.645  10.379  70.488  1.00  0.00    -0.431 N  
HETATM    2  C   UNL     1     -11.913   9.351  70.968  1.00  0.00    -0.315 C  
HETATM    3  H2  UNL     1     -13.213  10.915  71.145  1.00  0.00     0.000 HD 
HETATM    4  H1  UNL     1     -12.661  10.650  69.505  1.00  0.00     0.000 HD 
HETATM    5  O   UNL     1     -11.894   9.028  72.144  1.00  0.00    -0.358 OA 
ENDROOT
BRANCH   2   6
HETATM    6  O   UNL     1     -11.214   8.780  69.965  1.00  0.00    -0.215 OA 
BRANCH   6   7
HETATM    7  C   UNL     1     -10.625   9.690  69.014  1.00  0.00    -0.218 C  
HETATM    8  C   UNL     1     -10.784   9.174  67.569  1.00  0.00    -0.255 C  
HETATM    9  C   UNL     1     -10.196  10.164  66.548  1.00  0.00    -0.223 C  
HETATM   10  C   UNL     1     -10.171   7.788  67.395  1.00  0.00    -0.320 A  
HETATM   11  C   UNL     1     -10.971   6.714  66.978  1.00  0.00    -0.463 A  
HETATM   12  C   UNL     1      -8.813   7.548  67.665  1.00  0.00    -0.128 A  
HETATM   13  C   UNL     1      -8.278   6.265  67.543  1.00  0.00    -0.113 A  
HETATM   14  C   UNL     1     -10.431   5.431  66.854  1.00  0.00    -0.337 A  
HETATM   15  C   UNL     1      -9.088   5.207  67.141  1.00  0.00    -0.112 A  
BRANCH   9  16
HETATM   16  O   UNL     1     -10.845  11.444  66.654  1.00  0.00    -0.269 OA 
BRANCH  16  17
HETATM   17  C   UNL     1     -10.096  12.525  66.343  1.00  0.00    -0.243 C  
HETATM   18  H2  UNL     1      -9.042  12.160  68.132  1.00  0.00     0.000 HD 
HETATM   19  O   UNL     1     -10.203  13.225  65.350  1.00  0.00    -0.299 OA 
HETATM   20  H1  UNL     1      -8.598  13.549  67.062  1.00  0.00     0.000 HD 
HETATM   21  N   UNL     1      -9.164  12.733  67.298  1.00  0.00    -0.196 N  
ENDBRANCH  16  17
ENDBRANCH   9  16
ENDBRANCH   6   7
ENDBRANCH   2   6
TORSDOF 4
ENDMDL
MODEL      121
REMARK 921   NORMALIZED FREE ENERGY PREDICTED BY IDOCK:   -3.61 KCAL/MOL
REMARK 922        TOTAL FREE ENERGY PREDICTED BY IDOCK:   -4.85 KCAL/MOL
REMARK 923 INTER-LIGAND FREE ENERGY PREDICTED BY IDOCK:   -4.46 KCAL/MOL
REMARK 924 INTRA-LIGAND FREE ENERGY PREDICTED BY IDOCK:   -0.38 KCAL/MOL
REMARK 927      BINDING AFFINITY PREDICTED BY RF-SCORE:    0.00 PKD
ROOT
HETATM    1  N   UNL     1     -11.600  11.918  69.647  1.00  0.00    -0.374 N  
HETATM    2  C   UNL     1     -11.830  11.623  68.350  1.00  0.00    -0.278 C  
HETATM    3  H2  UNL     1     -11.648  12.896  69.935  1.00  0.00     0.000 HD 
HETATM    4  H1  UNL     1     -11.380  11.218  70.355  1.00  0.00     0.000 HD 
HETATM    5  O   UNL     1     -12.094  12.461  67.504  1.00  0.00    -0.491 OA 
ENDROOT
BRANCH   2   6
HETATM    6  O   UNL     1     -11.748  10.289  68.163  1.00  0.00    -0.287 OA 
BRANCH   6   7
HETATM    7  C   UNL     1     -10.421   9.767  67.949  1.00  0.00    -0.239 C  
HETATM    8  C   UNL     1     -10.314   8.297  68.404  1.00  0.00    -0.237 C  
HETATM    9  C   UNL     1      -8.912   7.723  68.136  1.00  0.00    -0.127 C  
HETATM   10  C   UNL     1     -10.695   8.133  69.872  1.00  0.00    -0.241 A  
HETATM   11  C   UNL     1     -11.760   7.294  70.231  1.00  0.00    -0.164 A  
HETATM   12  C   UNL     1     -10.014   8.825  70.888  1.00  0.00    -0.279 A  
HETATM   13  C   UNL     1     -10.403   8.697  72.222  1.00  0.00    -0.376 A  
HETATM   14  C   UNL     1     -12.145   7.165  71.568  1.00  0.00    -0.377 A  
HETATM   15  C   UNL     1     -11.471   7.871  72.561  1.00  0.00    -0.455 A  
BRANCH   9  16
HETATM   16  O   UNL     1      -8.596   7.796  66.733  1.00  0.00    -0.124 OA 
BRANCH  16  17
HETATM   17  C   UNL     1      -8.846   6.687  66.003  1.00  0.00    -0.139 C  
HETATM   18  H2  UNL     1      -7.572   7.509  64.539  1.00  0.00     0.000 HD 
HETATM   19  O   UNL     1      -9.551   5.745  66.325  1.00  0.00    -0.157 OA 
HETATM   20  H1  UNL     1      -8.366   5.905  64.280  1.00  0.00     0.000 HD 
HETATM   21  N   UNL     1      -8.178   6.742  64.831  1.00  0.00    -0.117 N  
ENDBRANCH  16  17
ENDBRANCH   9  16
ENDBRANCH   6   7
ENDBRANCH   2   6
TORSDOF 4
ENDMDL
MODEL      122
REMARK 921   NORMALIZED FREE ENERGY PREDICTED BY IDOCK:   -3.61 KCAL/MOL
REMARK 922        TOTAL FREE ENERGY PREDICTED BY IDOCK:   -4.85 KCAL/MOL
REMARK 923 INTER-LIGAND FREE ENERGY PREDICTED BY IDOCK:   -4.55 KCAL/MOL
REMARK 924 INTRA-LIGAND FREE ENERGY PREDICTED BY IDOCK:   -0.29 KCAL/MOL
REMARK 927      BINDING AFFINITY PREDICTED BY RF-SCORE:    0.00 PKD
ROOT
HETATM    1  N   UNL     1      -9.334   9.131  65.241  1.00  0.00    -0.418 N  
HETATM    2  C   UNL     1      -9.843   9.951  66.185  1.00  0.00    -0.260 C  
HETATM    3  H2  UNL     1      -9.433   9.402  64.262  1.00  0.00     0.000 HD 
HETATM    4  H1  UNL     1      -8.857   8.255  65.452  1.00  0.00     0.000 HD 
HETATM    5  O   UNL     1     -10.415  10.998  65.932  1.00  0.00    -0.254 OA 
ENDROOT
BRANCH   2   6
HETATM    6  O   UNL     1      -9.598   9.444  67.411  1.00  0.00    -0.139 OA 
BRANCH   6   7
HETATM    7  C   UNL     1     -10.657   9.601  68.377  1.00  0.00    -0.225 C  
HETATM    8  C   UNL     1     -10.239   9.065  69.762  1.00  0.00    -0.214 C  
HETATM    9  C   UNL     1     -11.350   9.272  70.807  1.00  0.00    -0.287 C  
HETATM   10  C   UNL     1      -9.822   7.599  69.697  1.00  0.00    -0.181 A  
HETATM   11  C   UNL     1      -8.529   7.220  70.086  1.00  0.00    -0.138 A  
HETATM   12  C   UNL     1     -10.701   6.608  69.230  1.00  0.00    -0.307 A  
HETATM   13  C   UNL     1     -10.289   5.277  69.136  1.00  0.00    -0.264 A  
HETATM   14  C   UNL     1      -8.121   5.886  69.994  1.00  0.00    -0.109 A  
HETATM   15  C   UNL     1      -8.998   4.918  69.513  1.00  0.00    -0.130 A  
BRANCH   9  16
HETATM   16  O   UNL     1     -11.673  10.669  70.931  1.00  0.00    -0.328 OA 
BRANCH  16  17
HETATM   17  C   UNL     1     -12.817  10.964  71.586  1.00  0.00    -0.449 C  
HETATM   18  H2  UNL     1     -12.990   8.899  71.969  1.00  0.00     0.000 HD 
HETATM   19  O   UNL     1     -13.299  12.072  71.748  1.00  0.00    -0.406 OA 
HETATM   20  H1  UNL     1     -14.239  10.060  72.573  1.00  0.00     0.000 HD 
HETATM   21  N   UNL     1     -13.375   9.837  72.077  1.00  0.00    -0.443 N  
ENDBRANCH  16  17
ENDBRANCH   9  16
ENDBRANCH   6   7
ENDBRANCH   2   6
TORSDOF 4
ENDMDL
MODEL      123
REMARK 921   NORMALIZED FREE ENERGY PREDICTED BY IDOCK:   -3.59 KCAL/MOL
REMARK 922        TOTAL FREE ENERGY PREDICTED BY IDOCK:   -4.83 KCAL/MOL
REMARK 923 INTER-LIGAND FREE ENERGY PREDICTED BY IDOCK:   -4.54 KCAL/MOL
REMARK 924 INTRA-LIGAND FREE ENERGY PREDICTED BY IDOCK:   -0.30 KCAL/MOL
REMARK 927      BINDING AFFINITY PREDICTED BY RF-SCORE:    0.00 PKD
ROOT
HETATM    1  N   UNL     1     -13.173  13.802  65.143  1.00  0.00    -0.682 N  
HETATM    2  C   UNL     1     -12.018  14.486  65.280  1.00  0.00    -0.353 C  
HETATM    3  H2  UNL     1     -13.604  13.761  64.219  1.00  0.00     0.000 HD 
HETATM    4  H1  UNL     1     -13.640  13.323  65.913  1.00  0.00     0.000 HD 
HETATM    5  O   UNL     1     -11.461  15.059  64.358  1.00  0.00    -0.323 OA 
ENDROOT
BRANCH   2   6
HETATM    6  O   UNL     1     -11.589  14.410  66.556  1.00  0.00    -0.354 OA 
BRANCH   6   7
HETATM    7  C   UNL     1     -11.270  13.087  67.033  1.00  0.00    -0.289 C  
HETATM    8  C   UNL     1     -10.674  13.129  68.455  1.00  0.00    -0.277 C  
HETATM    9  C   UNL     1     -10.375  11.716  68.985  1.00  0.00    -0.092 C  
HETATM   10  C   UNL     1      -9.429  14.007  68.518  1.00  0.00    -0.191 A  
HETATM   11  C   UNL     1      -9.396  15.119  69.374  1.00  0.00    -0.176 A  
HETATM   12  C   UNL     1      -8.306  13.745  67.717  1.00  0.00    -0.180 A  
HETATM   13  C   UNL     1      -7.190  14.583  67.755  1.00  0.00    -0.192 A  
HETATM   14  C   UNL     1      -8.277  15.955  69.412  1.00  0.00    -0.174 A  
HETATM   15  C   UNL     1      -7.178  15.690  68.599  1.00  0.00    -0.129 A  
BRANCH   9  16
HETATM   16  O   UNL     1     -11.575  10.921  69.010  1.00  0.00    -0.274 OA 
BRANCH  16  17
HETATM   17  C   UNL     1     -11.729  10.102  70.073  1.00  0.00    -0.223 C  
HETATM   18  H2  UNL     1     -13.181  11.466  70.762  1.00  0.00     0.000 HD 
HETATM   19  O   UNL     1     -11.143   9.052  70.276  1.00  0.00    -0.244 OA 
HETATM   20  H1  UNL     1     -12.782   9.980  71.713  1.00  0.00     0.000 HD 
HETATM   21  N   UNL     1     -12.665  10.599  70.910  1.00  0.00    -0.383 N  
ENDBRANCH  16  17
ENDBRANCH   9  16
ENDBRANCH   6   7
ENDBRANCH   2   6
TORSDOF 4
ENDMDL
MODEL      124
REMARK 921   NORMALIZED FREE ENERGY PREDICTED BY IDOCK:   -3.59 KCAL/MOL
REMARK 922        TOTAL FREE ENERGY PREDICTED BY IDOCK:   -4.83 KCAL/MOL
REMARK 923 INTER-LIGAND FREE ENERGY PREDICTED BY IDOCK:   -4.46 KCAL/MOL
REMARK 924 INTRA-LIGAND FREE ENERGY PREDICTED BY IDOCK:   -0.37 KCAL/MOL
REMARK 927      BINDING AFFINITY PREDICTED BY RF-SCORE:    0.00 PKD
ROOT
HETATM    1  N   UNL     1      -9.669   9.541  64.750  1.00  0.00    -0.416 N  
HETATM    2  C   UNL     1      -9.312   8.848  65.852  1.00  0.00    -0.236 C  
HETATM    3  H2  UNL     1      -8.955   9.727  64.045  1.00  0.00     0.000 HD 
HETATM    4  H1  UNL     1     -10.613   9.889  64.583  1.00  0.00     0.000 HD 
HETATM    5  O   UNL     1      -8.183   8.432  66.051  1.00  0.00    -0.102 OA 
ENDROOT
BRANCH   2   6
HETATM    6  O   UNL     1     -10.384   8.680  66.653  1.00  0.00    -0.289 OA 
BRANCH   6   7
HETATM    7  C   UNL     1     -10.098   8.514  68.057  1.00  0.00    -0.200 C  
HETATM    8  C   UNL     1     -10.832   9.568  68.910  1.00  0.00    -0.177 C  
HETATM    9  C   UNL     1     -10.565   9.366  70.412  1.00  0.00    -0.261 C  
HETATM   10  C   UNL     1     -10.475  10.988  68.482  1.00  0.00    -0.210 A  
HETATM   11  C   UNL     1     -11.480  11.861  68.041  1.00  0.00    -0.389 A  
HETATM   12  C   UNL     1      -9.147  11.445  68.496  1.00  0.00    -0.169 A  
HETATM   13  C   UNL     1      -8.831  12.733  68.061  1.00  0.00    -0.195 A  
HETATM   14  C   UNL     1     -11.161  13.152  67.608  1.00  0.00    -0.313 A  
HETATM   15  C   UNL     1      -9.838  13.584  67.613  1.00  0.00    -0.228 A  
BRANCH   9  16
HETATM   16  O   UNL     1     -10.992   8.056  70.829  1.00  0.00    -0.239 OA 
BRANCH  16  17
HETATM   17  C   UNL     1     -12.116   8.000  71.575  1.00  0.00    -0.298 C  
HETATM   18  H2  UNL     1     -11.725  10.004  72.098  1.00  0.00     0.000 HD 
HETATM   19  O   UNL     1     -12.867   7.046  71.694  1.00  0.00    -0.366 OA 
HETATM   20  H1  UNL     1     -13.176   9.143  72.751  1.00  0.00     0.000 HD 
HETATM   21  N   UNL     1     -12.327   9.185  72.187  1.00  0.00    -0.368 N  
ENDBRANCH  16  17
ENDBRANCH   9  16
ENDBRANCH   6   7
ENDBRANCH   2   6
TORSDOF 4
ENDMDL
MODEL      125
REMARK 921   NORMALIZED FREE ENERGY PREDICTED BY IDOCK:   -3.59 KCAL/MOL
REMARK 922        TOTAL FREE ENERGY PREDICTED BY IDOCK:   -4.82 KCAL/MOL
REMARK 923 INTER-LIGAND FREE ENERGY PREDICTED BY IDOCK:   -4.52 KCAL/MOL
REMARK 924 INTRA-LIGAND FREE ENERGY PREDICTED BY IDOCK:   -0.30 KCAL/MOL
REMARK 927      BINDING AFFINITY PREDICTED BY RF-SCORE:    0.00 PKD
ROOT
HETATM    1  N   UNL     1     -11.200   4.619  65.443  1.00  0.00    -0.984 N  
HETATM    2  C   UNL     1      -9.887   4.819  65.683  1.00  0.00    -0.176 C  
HETATM    3  H2  UNL     1     -11.488   3.720  65.056  1.00  0.00     0.000 HD 
HETATM    4  H1  UNL     1     -11.920   5.317  65.627  1.00  0.00     0.000 HD 
HETATM    5  O   UNL     1      -9.026   3.983  65.463  1.00  0.00    -0.122 OA 
ENDROOT
BRANCH   2   6
HETATM    6  O   UNL     1      -9.701   6.046  66.212  1.00  0.00    -0.151 OA 
BRANCH   6   7
HETATM    7  C   UNL     1      -9.810   6.133  67.647  1.00  0.00    -0.120 C  
HETATM    8  C   UNL     1     -10.531   7.427  68.080  1.00  0.00    -0.253 C  
HETATM    9  C   UNL     1     -10.689   7.502  69.608  1.00  0.00    -0.230 C  
HETATM   10  C   UNL     1      -9.826   8.670  67.546  1.00  0.00    -0.234 A  
HETATM   11  C   UNL     1     -10.512   9.559  66.706  1.00  0.00    -0.263 A  
HETATM   12  C   UNL     1      -8.483   8.941  67.857  1.00  0.00    -0.125 A  
HETATM   13  C   UNL     1      -7.840  10.060  67.326  1.00  0.00    -0.102 A  
HETATM   14  C   UNL     1      -9.866  10.681  66.178  1.00  0.00    -0.268 A  
HETATM   15  C   UNL     1      -8.531  10.927  66.483  1.00  0.00    -0.159 A  
BRANCH   9  16
HETATM   16  O   UNL     1     -11.437   6.372  70.095  1.00  0.00    -0.385 OA 
BRANCH  16  17
HETATM   17  C   UNL     1     -12.227   6.593  71.168  1.00  0.00    -0.301 C  
HETATM   18  H2  UNL     1     -10.806   5.509  72.286  1.00  0.00     0.000 HD 
HETATM   19  O   UNL     1     -13.274   7.218  71.187  1.00  0.00    -0.337 OA 
HETATM   20  H1  UNL     1     -12.281   6.194  73.079  1.00  0.00     0.000 HD 
HETATM   21  N   UNL     1     -11.684   6.027  72.268  1.00  0.00    -0.314 N  
ENDBRANCH  16  17
ENDBRANCH   9  16
ENDBRANCH   6   7
ENDBRANCH   2   6
TORSDOF 4
ENDMDL
MODEL      126
REMARK 921   NORMALIZED FREE ENERGY PREDICTED BY IDOCK:   -3.58 KCAL/MOL
REMARK 922        TOTAL FREE ENERGY PREDICTED BY IDOCK:   -4.82 KCAL/MOL
REMARK 923 INTER-LIGAND FREE ENERGY PREDICTED BY IDOCK:   -4.44 KCAL/MOL
REMARK 924 INTRA-LIGAND FREE ENERGY PREDICTED BY IDOCK:   -0.38 KCAL/MOL
REMARK 927      BINDING AFFINITY PREDICTED BY RF-SCORE:    0.00 PKD
ROOT
HETATM    1  N   UNL     1      -6.934   6.497  69.272  1.00  0.00    -0.068 N  
HETATM    2  C   UNL     1      -7.951   7.208  68.740  1.00  0.00    -0.123 C  
HETATM    3  H2  UNL     1      -6.745   5.568  68.895  1.00  0.00     0.000 HD 
HETATM    4  H1  UNL     1      -6.345   6.838  70.031  1.00  0.00     0.000 HD 
HETATM    5  O   UNL     1      -8.656   6.800  67.832  1.00  0.00    -0.122 OA 
ENDROOT
BRANCH   2   6
HETATM    6  O   UNL     1      -8.034   8.411  69.344  1.00  0.00    -0.107 OA 
BRANCH   6   7
HETATM    7  C   UNL     1      -9.091   9.275  68.879  1.00  0.00    -0.139 C  
HETATM    8  C   UNL     1      -9.946   9.800  70.050  1.00  0.00    -0.299 C  
HETATM    9  C   UNL     1     -11.046  10.758  69.561  1.00  0.00    -0.278 C  
HETATM   10  C   UNL     1     -10.544   8.660  70.867  1.00  0.00    -0.265 A  
HETATM   11  C   UNL     1     -10.245   8.543  72.233  1.00  0.00    -0.395 A  
HETATM   12  C   UNL     1     -11.379   7.696  70.278  1.00  0.00    -0.197 A  
HETATM   13  C   UNL     1     -11.883   6.634  71.031  1.00  0.00    -0.427 A  
HETATM   14  C   UNL     1     -10.754   7.481  72.984  1.00  0.00    -0.438 A  
HETATM   15  C   UNL     1     -11.567   6.524  72.382  1.00  0.00    -0.292 A  
BRANCH   9  16
HETATM   16  O   UNL     1     -10.468  11.882  68.871  1.00  0.00    -0.202 OA 
BRANCH  16  17
HETATM   17  C   UNL     1     -10.923  12.117  67.621  1.00  0.00    -0.243 C  
HETATM   18  H2  UNL     1      -9.054  13.014  67.239  1.00  0.00     0.000 HD 
HETATM   19  O   UNL     1     -12.013  11.806  67.171  1.00  0.00    -0.617 OA 
HETATM   20  H1  UNL     1     -10.321  12.929  65.950  1.00  0.00     0.000 HD 
HETATM   21  N   UNL     1      -9.977  12.751  66.895  1.00  0.00    -0.228 N  
ENDBRANCH  16  17
ENDBRANCH   9  16
ENDBRANCH   6   7
ENDBRANCH   2   6
TORSDOF 4
ENDMDL
MODEL      127
REMARK 921   NORMALIZED FREE ENERGY PREDICTED BY IDOCK:   -3.57 KCAL/MOL
REMARK 922        TOTAL FREE ENERGY PREDICTED BY IDOCK:   -4.80 KCAL/MOL
REMARK 923 INTER-LIGAND FREE ENERGY PREDICTED BY IDOCK:   -4.39 KCAL/MOL
REMARK 924 INTRA-LIGAND FREE ENERGY PREDICTED BY IDOCK:   -0.41 KCAL/MOL
REMARK 927      BINDING AFFINITY PREDICTED BY RF-SCORE:    0.00 PKD
ROOT
HETATM    1  N   UNL     1      -6.478  13.241  68.652  1.00  0.00    -0.080 N  
HETATM    2  C   UNL     1      -7.379  12.237  68.657  1.00  0.00    -0.106 C  
HETATM    3  H2  UNL     1      -5.492  13.006  68.771  1.00  0.00     0.000 HD 
HETATM    4  H1  UNL     1      -6.728  14.223  68.537  1.00  0.00     0.000 HD 
HETATM    5  O   UNL     1      -7.079  11.062  68.796  1.00  0.00    -0.072 OA 
ENDROOT
BRANCH   2   6
HETATM    6  O   UNL     1      -8.619  12.733  68.465  1.00  0.00    -0.144 OA 
BRANCH   6   7
HETATM    7  C   UNL     1      -9.238  12.404  67.205  1.00  0.00    -0.187 C  
HETATM    8  C   UNL     1     -10.741  12.104  67.377  1.00  0.00    -0.268 C  
HETATM    9  C   UNL     1     -11.414  11.797  66.028  1.00  0.00    -0.215 C  
HETATM   10  C   UNL     1     -10.979  10.973  68.372  1.00  0.00    -0.281 A  
HETATM   11  C   UNL     1     -11.746  11.202  69.524  1.00  0.00    -0.405 A  
HETATM   12  C   UNL     1     -10.426   9.697  68.177  1.00  0.00    -0.266 A  
HETATM   13  C   UNL     1     -10.618   8.684  69.119  1.00  0.00    -0.193 A  
HETATM   14  C   UNL     1     -11.939  10.186  70.464  1.00  0.00    -0.400 A  
HETATM   15  C   UNL     1     -11.371   8.931  70.264  1.00  0.00    -0.179 A  
BRANCH   9  16
HETATM   16  O   UNL     1     -11.266  12.908  65.125  1.00  0.00    -0.281 OA 
BRANCH  16  17
HETATM   17  C   UNL     1     -11.138  12.604  63.815  1.00  0.00    -0.453 C  
HETATM   18  H2  UNL     1     -13.221  12.896  63.668  1.00  0.00     0.000 HD 
HETATM   19  O   UNL     1     -10.106  12.330  63.227  1.00  0.00    -0.388 OA 
HETATM   20  H1  UNL     1     -12.246  12.429  62.217  1.00  0.00     0.000 HD 
HETATM   21  N   UNL     1     -12.343  12.659  63.207  1.00  0.00    -0.467 N  
ENDBRANCH  16  17
ENDBRANCH   9  16
ENDBRANCH   6   7
ENDBRANCH   2   6
TORSDOF 4
ENDMDL
MODEL      128
REMARK 921   NORMALIZED FREE ENERGY PREDICTED BY IDOCK:   -3.55 KCAL/MOL
REMARK 922        TOTAL FREE ENERGY PREDICTED BY IDOCK:   -4.78 KCAL/MOL
REMARK 923 INTER-LIGAND FREE ENERGY PREDICTED BY IDOCK:   -4.38 KCAL/MOL
REMARK 924 INTRA-LIGAND FREE ENERGY PREDICTED BY IDOCK:   -0.40 KCAL/MOL
REMARK 927      BINDING AFFINITY PREDICTED BY RF-SCORE:    0.00 PKD
ROOT
HETATM    1  N   UNL     1     -12.535  16.198  69.395  1.00  0.00    -0.395 N  
HETATM    2  C   UNL     1     -12.120  14.944  69.673  1.00  0.00    -0.295 C  
HETATM    3  H2  UNL     1     -13.484  16.462  69.661  1.00  0.00     0.000 HD 
HETATM    4  H1  UNL     1     -11.952  16.896  68.933  1.00  0.00     0.000 HD 
HETATM    5  O   UNL     1     -12.818  14.109  70.225  1.00  0.00    -0.297 OA 
ENDROOT
BRANCH   2   6
HETATM    6  O   UNL     1     -10.842  14.786  69.272  1.00  0.00    -0.250 OA 
BRANCH   6   7
HETATM    7  C   UNL     1     -10.452  13.439  68.935  1.00  0.00    -0.113 C  
HETATM    8  C   UNL     1      -9.786  13.377  67.545  1.00  0.00    -0.227 C  
HETATM    9  C   UNL     1      -9.328  11.948  67.202  1.00  0.00    -0.180 C  
HETATM   10  C   UNL     1     -10.701  13.929  66.457  1.00  0.00    -0.277 A  
HETATM   11  C   UNL     1     -10.288  15.023  65.683  1.00  0.00    -0.374 A  
HETATM   12  C   UNL     1     -11.972  13.380  66.220  1.00  0.00    -0.460 A  
HETATM   13  C   UNL     1     -12.814  13.925  65.249  1.00  0.00    -0.437 A  
HETATM   14  C   UNL     1     -11.133  15.565  64.709  1.00  0.00    -0.421 A  
HETATM   15  C   UNL     1     -12.396  15.020  64.498  1.00  0.00    -0.276 A  
BRANCH   9  16
HETATM   16  O   UNL     1      -8.392  11.468  68.184  1.00  0.00    -0.137 OA 
BRANCH  16  17
HETATM   17  C   UNL     1      -7.114  11.885  68.050  1.00  0.00    -0.084 C  
HETATM   18  H2  UNL     1      -6.865  10.297  66.686  1.00  0.00     0.000 HD 
HETATM   19  O   UNL     1      -6.596  12.839  68.605  1.00  0.00    -0.072 OA 
HETATM   20  H1  UNL     1      -5.492  11.409  67.073  1.00  0.00     0.000 HD 
HETATM   21  N   UNL     1      -6.457  11.094  67.175  1.00  0.00    -0.081 N  
ENDBRANCH  16  17
ENDBRANCH   9  16
ENDBRANCH   6   7
ENDBRANCH   2   6
TORSDOF 4
ENDMDL
MODEL      129
REMARK 921   NORMALIZED FREE ENERGY PREDICTED BY IDOCK:   -3.55 KCAL/MOL
REMARK 922        TOTAL FREE ENERGY PREDICTED BY IDOCK:   -4.78 KCAL/MOL
REMARK 923 INTER-LIGAND FREE ENERGY PREDICTED BY IDOCK:   -4.68 KCAL/MOL
REMARK 924 INTRA-LIGAND FREE ENERGY PREDICTED BY IDOCK:   -0.09 KCAL/MOL
REMARK 927      BINDING AFFINITY PREDICTED BY RF-SCORE:    0.00 PKD
ROOT
HETATM    1  N   UNL     1      -9.876  19.544  69.453  1.00  0.00    -0.418 N  
HETATM    2  C   UNL     1      -9.763  19.508  68.109  1.00  0.00    -0.388 C  
HETATM    3  H2  UNL     1     -10.679  20.027  69.858  1.00  0.00     0.000 HD 
HETATM    4  H1  UNL     1      -9.202  19.115  70.088  1.00  0.00     0.000 HD 
HETATM    5  O   UNL     1     -10.569  20.021  67.351  1.00  0.00    -0.386 OA 
ENDROOT
BRANCH   2   6
HETATM    6  O   UNL     1      -8.662  18.812  67.760  1.00  0.00    -0.280 OA 
BRANCH   6   7
HETATM    7  C   UNL     1      -7.483  19.068  68.550  1.00  0.00    -0.317 C  
HETATM    8  C   UNL     1      -6.649  20.224  67.960  1.00  0.00    -0.327 C  
HETATM    9  C   UNL     1      -5.414  20.530  68.825  1.00  0.00    -0.296 C  
HETATM   10  C   UNL     1      -6.244  19.947  66.516  1.00  0.00    -0.186 A  
HETATM   11  C   UNL     1      -6.643  20.823  65.495  1.00  0.00    -0.192 A  
HETATM   12  C   UNL     1      -5.492  18.812  66.170  1.00  0.00    -0.183 A  
HETATM   13  C   UNL     1      -5.167  18.550  64.839  1.00  0.00    -0.198 A  
HETATM   14  C   UNL     1      -6.313  20.560  64.163  1.00  0.00    -0.295 A  
HETATM   15  C   UNL     1      -5.581  19.421  63.835  1.00  0.00    -0.332 A  
BRANCH   9  16
HETATM   16  O   UNL     1      -5.809  20.882  70.164  1.00  0.00    -0.503 OA 
BRANCH  16  17
HETATM   17  C   UNL     1      -5.681  19.917  71.101  1.00  0.00    -0.299 C  
HETATM   18  H2  UNL     1      -6.728  21.207  72.399  1.00  0.00     0.000 HD 
HETATM   19  O   UNL     1      -5.144  18.831  70.961  1.00  0.00    -0.245 OA 
HETATM   20  H1  UNL     1      -6.164  19.583  72.963  1.00  0.00     0.000 HD 
HETATM   21  N   UNL     1      -6.261  20.311  72.255  1.00  0.00     0.162 N  
ENDBRANCH  16  17
ENDBRANCH   9  16
ENDBRANCH   6   7
ENDBRANCH   2   6
TORSDOF 4
ENDMDL
MODEL      130
REMARK 921   NORMALIZED FREE ENERGY PREDICTED BY IDOCK:   -3.52 KCAL/MOL
REMARK 922        TOTAL FREE ENERGY PREDICTED BY IDOCK:   -4.74 KCAL/MOL
REMARK 923 INTER-LIGAND FREE ENERGY PREDICTED BY IDOCK:   -4.35 KCAL/MOL
REMARK 924 INTRA-LIGAND FREE ENERGY PREDICTED BY IDOCK:   -0.39 KCAL/MOL
REMARK 927      BINDING AFFINITY PREDICTED BY RF-SCORE:    0.00 PKD
ROOT
HETATM    1  N   UNL     1      -9.240   6.288  66.047  1.00  0.00    -0.300 N  
HETATM    2  C   UNL     1     -10.207   7.093  66.536  1.00  0.00    -0.061 C  
HETATM    3  H2  UNL     1      -9.386   5.278  66.090  1.00  0.00     0.000 HD 
HETATM    4  H1  UNL     1      -8.373   6.632  65.637  1.00  0.00     0.000 HD 
HETATM    5  O   UNL     1     -11.245   6.680  67.026  1.00  0.00    -0.404 OA 
ENDROOT
BRANCH   2   6
HETATM    6  O   UNL     1      -9.853   8.384  66.373  1.00  0.00    -0.253 OA 
BRANCH   6   7
HETATM    7  C   UNL     1     -10.852   9.359  66.734  1.00  0.00     0.058 C  
HETATM    8  C   UNL     1     -10.223  10.572  67.450  1.00  0.00    -0.253 C  
HETATM    9  C   UNL     1     -11.281  11.635  67.796  1.00  0.00    -0.268 C  
HETATM   10  C   UNL     1      -9.449  10.152  68.695  1.00  0.00    -0.164 A  
HETATM   11  C   UNL     1      -8.079  10.438  68.799  1.00  0.00    -0.125 A  
HETATM   12  C   UNL     1     -10.071   9.458  69.745  1.00  0.00    -0.229 A  
HETATM   13  C   UNL     1      -9.338   9.042  70.858  1.00  0.00    -0.326 A  
HETATM   14  C   UNL     1      -7.349  10.024  69.916  1.00  0.00    -0.163 A  
HETATM   15  C   UNL     1      -7.977   9.322  70.941  1.00  0.00    -0.161 A  
BRANCH   9  16
HETATM   16  O   UNL     1     -11.944  12.095  66.604  1.00  0.00    -0.616 OA 
BRANCH  16  17
HETATM   17  C   UNL     1     -11.543  13.290  66.118  1.00  0.00    -0.348 C  
HETATM   18  H2  UNL     1     -12.529  14.156  67.767  1.00  0.00     0.000 HD 
HETATM   19  O   UNL     1     -10.873  13.483  65.117  1.00  0.00    -0.303 OA 
HETATM   20  H1  UNL     1     -11.676  15.189  66.552  1.00  0.00     0.000 HD 
HETATM   21  N   UNL     1     -11.978  14.286  66.919  1.00  0.00    -0.433 N  
ENDBRANCH  16  17
ENDBRANCH   9  16
ENDBRANCH   6   7
ENDBRANCH   2   6
TORSDOF 4
ENDMDL
MODEL      131
REMARK 921   NORMALIZED FREE ENERGY PREDICTED BY IDOCK:   -3.52 KCAL/MOL
REMARK 922        TOTAL FREE ENERGY PREDICTED BY IDOCK:   -4.74 KCAL/MOL
REMARK 923 INTER-LIGAND FREE ENERGY PREDICTED BY IDOCK:   -4.34 KCAL/MOL
REMARK 924 INTRA-LIGAND FREE ENERGY PREDICTED BY IDOCK:   -0.40 KCAL/MOL
REMARK 927      BINDING AFFINITY PREDICTED BY RF-SCORE:    0.00 PKD
ROOT
HETATM    1  N   UNL     1     -10.754  11.195  69.645  1.00  0.00    -0.447 N  
HETATM    2  C   UNL     1     -10.876  10.020  68.993  1.00  0.00    -0.222 C  
HETATM    3  H2  UNL     1     -10.395  11.182  70.601  1.00  0.00     0.000 HD 
HETATM    4  H1  UNL     1     -11.000  12.096  69.236  1.00  0.00     0.000 HD 
HETATM    5  O   UNL     1     -10.581   8.942  69.483  1.00  0.00    -0.230 OA 
ENDROOT
BRANCH   2   6
HETATM    6  O   UNL     1     -11.339  10.235  67.745  1.00  0.00    -0.322 OA 
BRANCH   6   7
HETATM    7  C   UNL     1     -10.453   9.856  66.673  1.00  0.00    -0.169 C  
HETATM    8  C   UNL     1      -9.645  11.065  66.156  1.00  0.00    -0.240 C  
HETATM    9  C   UNL     1      -8.666  10.655  65.042  1.00  0.00    -0.176 C  
HETATM   10  C   UNL     1     -10.558  12.193  65.686  1.00  0.00    -0.297 A  
HETATM   11  C   UNL     1     -10.477  13.457  66.288  1.00  0.00    -0.289 A  
HETATM   12  C   UNL     1     -11.507  11.993  64.670  1.00  0.00    -0.371 A  
HETATM   13  C   UNL     1     -12.365  13.023  64.282  1.00  0.00    -0.436 A  
HETATM   14  C   UNL     1     -11.335  14.489  65.896  1.00  0.00    -0.341 A  
HETATM   15  C   UNL     1     -12.281  14.269  64.898  1.00  0.00    -0.449 A  
BRANCH   9  16
HETATM   16  O   UNL     1      -7.746   9.656  65.521  1.00  0.00    -0.106 OA 
BRANCH  16  17
HETATM   17  C   UNL     1      -6.432   9.925  65.362  1.00  0.00    -0.094 C  
HETATM   18  H2  UNL     1      -6.381  10.302  67.435  1.00  0.00     0.000 HD 
HETATM   19  O   UNL     1      -5.796   9.871  64.323  1.00  0.00    -0.095 OA 
HETATM   20  H1  UNL     1      -4.887  10.462  66.429  1.00  0.00     0.000 HD 
HETATM   21  N   UNL     1      -5.880  10.259  66.548  1.00  0.00    -0.059 N  
ENDBRANCH  16  17
ENDBRANCH   9  16
ENDBRANCH   6   7
ENDBRANCH   2   6
TORSDOF 4
ENDMDL
MODEL      132
REMARK 921   NORMALIZED FREE ENERGY PREDICTED BY IDOCK:   -3.52 KCAL/MOL
REMARK 922        TOTAL FREE ENERGY PREDICTED BY IDOCK:   -4.74 KCAL/MOL
REMARK 923 INTER-LIGAND FREE ENERGY PREDICTED BY IDOCK:   -4.45 KCAL/MOL
REMARK 924 INTRA-LIGAND FREE ENERGY PREDICTED BY IDOCK:   -0.29 KCAL/MOL
REMARK 927      BINDING AFFINITY PREDICTED BY RF-SCORE:    0.00 PKD
ROOT
HETATM    1  N   UNL     1     -12.621  13.289  64.269  1.00  0.00    -0.653 N  
HETATM    2  C   UNL     1     -11.582  12.444  64.099  1.00  0.00    -0.386 C  
HETATM    3  H2  UNL     1     -12.805  13.980  63.541  1.00  0.00     0.000 HD 
HETATM    4  H1  UNL     1     -13.231  13.275  65.086  1.00  0.00     0.000 HD 
HETATM    5  O   UNL     1     -10.852  12.461  63.122  1.00  0.00    -0.362 OA 
ENDROOT
BRANCH   2   6
HETATM    6  O   UNL     1     -11.508  11.594  65.144  1.00  0.00    -0.231 OA 
BRANCH   6   7
HETATM    7  C   UNL     1     -10.967  12.142  66.362  1.00  0.00    -0.288 C  
HETATM    8  C   UNL     1      -9.546  11.609  66.638  1.00  0.00    -0.220 C  
HETATM    9  C   UNL     1      -8.948  12.227  67.914  1.00  0.00    -0.186 C  
HETATM   10  C   UNL     1      -9.521  10.085  66.711  1.00  0.00    -0.209 A  
HETATM   11  C   UNL     1      -8.721   9.354  65.822  1.00  0.00    -0.183 A  
HETATM   12  C   UNL     1     -10.305   9.383  67.641  1.00  0.00    -0.303 A  
HETATM   13  C   UNL     1     -10.304   7.987  67.666  1.00  0.00    -0.312 A  
HETATM   14  C   UNL     1      -8.719   7.956  65.850  1.00  0.00    -0.180 A  
HETATM   15  C   UNL     1      -9.514   7.275  66.768  1.00  0.00    -0.218 A  
BRANCH   9  16
HETATM   16  O   UNL     1      -8.888  13.661  67.800  1.00  0.00    -0.169 OA 
BRANCH  16  17
HETATM   17  C   UNL     1      -7.678  14.191  67.520  1.00  0.00    -0.185 C  
HETATM   18  H2  UNL     1      -6.880  12.284  67.935  1.00  0.00     0.000 HD 
HETATM   19  O   UNL     1      -7.446  15.336  67.173  1.00  0.00    -0.204 OA 
HETATM   20  H1  UNL     1      -5.802  13.652  67.446  1.00  0.00     0.000 HD 
HETATM   21  N   UNL     1      -6.717  13.252  67.658  1.00  0.00    -0.158 N  
ENDBRANCH  16  17
ENDBRANCH   9  16
ENDBRANCH   6   7
ENDBRANCH   2   6
TORSDOF 4
ENDMDL
MODEL      133
REMARK 921   NORMALIZED FREE ENERGY PREDICTED BY IDOCK:   -3.49 KCAL/MOL
REMARK 922        TOTAL FREE ENERGY PREDICTED BY IDOCK:   -4.70 KCAL/MOL
REMARK 923 INTER-LIGAND FREE ENERGY PREDICTED BY IDOCK:   -4.41 KCAL/MOL
REMARK 924 INTRA-LIGAND FREE ENERGY PREDICTED BY IDOCK:   -0.29 KCAL/MOL
REMARK 927      BINDING AFFINITY PREDICTED BY RF-SCORE:    0.00 PKD
ROOT
HETATM    1  N   UNL     1      -9.149  17.554  66.656  1.00  0.00    -0.261 N  
HETATM    2  C   UNL     1      -8.149  16.653  66.560  1.00  0.00    -0.302 C  
HETATM    3  H2  UNL     1      -8.910  18.519  66.886  1.00  0.00     0.000 HD 
HETATM    4  H1  UNL     1     -10.132  17.323  66.512  1.00  0.00     0.000 HD 
HETATM    5  O   UNL     1      -6.973  16.930  66.732  1.00  0.00    -0.190 OA 
ENDROOT
BRANCH   2   6
HETATM    6  O   UNL     1      -8.650  15.446  66.227  1.00  0.00    -0.269 OA 
BRANCH   6   7
HETATM    7  C   UNL     1      -8.883  14.540  67.324  1.00  0.00    -0.208 C  
HETATM    8  C   UNL     1      -9.222  13.122  66.821  1.00  0.00    -0.232 C  
HETATM    9  C   UNL     1      -9.426  12.141  67.989  1.00  0.00    -0.201 C  
HETATM   10  C   UNL     1     -10.436  13.126  65.898  1.00  0.00    -0.288 A  
HETATM   11  C   UNL     1     -10.318  12.661  64.580  1.00  0.00    -0.354 A  
HETATM   12  C   UNL     1     -11.682  13.611  66.329  1.00  0.00    -0.396 A  
HETATM   13  C   UNL     1     -12.773  13.649  65.459  1.00  0.00    -0.514 A  
HETATM   14  C   UNL     1     -11.412  12.698  63.712  1.00  0.00    -0.539 A  
HETATM   15  C   UNL     1     -12.636  13.196  64.150  1.00  0.00    -0.261 A  
BRANCH   9  16
HETATM   16  O   UNL     1      -8.241  12.071  68.803  1.00  0.00    -0.091 OA 
BRANCH  16  17
HETATM   17  C   UNL     1      -7.733  10.838  69.018  1.00  0.00    -0.133 C  
HETATM   18  H2  UNL     1      -5.849  11.667  68.562  1.00  0.00     0.000 HD 
HETATM   19  O   UNL     1      -8.352   9.842  69.351  1.00  0.00    -0.125 OA 
HETATM   20  H1  UNL     1      -6.011   9.917  68.992  1.00  0.00     0.000 HD 
HETATM   21  N   UNL     1      -6.396  10.848  68.829  1.00  0.00    -0.047 N  
ENDBRANCH  16  17
ENDBRANCH   9  16
ENDBRANCH   6   7
ENDBRANCH   2   6
TORSDOF 4
ENDMDL
MODEL      134
REMARK 921   NORMALIZED FREE ENERGY PREDICTED BY IDOCK:   -3.48 KCAL/MOL
REMARK 922        TOTAL FREE ENERGY PREDICTED BY IDOCK:   -4.69 KCAL/MOL
REMARK 923 INTER-LIGAND FREE ENERGY PREDICTED BY IDOCK:   -4.37 KCAL/MOL
REMARK 924 INTRA-LIGAND FREE ENERGY PREDICTED BY IDOCK:   -0.33 KCAL/MOL
REMARK 927      BINDING AFFINITY PREDICTED BY RF-SCORE:    0.00 PKD
ROOT
HETATM    1  N   UNL     1     -13.537   9.572  72.376  1.00  0.00    -0.645 N  
HETATM    2  C   UNL     1     -12.847  10.629  71.898  1.00  0.00    -0.382 C  
HETATM    3  H2  UNL     1     -14.501   9.722  72.678  1.00  0.00     0.000 HD 
HETATM    4  H1  UNL     1     -13.149   8.632  72.452  1.00  0.00     0.000 HD 
HETATM    5  O   UNL     1     -13.311  11.753  71.807  1.00  0.00    -0.407 OA 
ENDROOT
BRANCH   2   6
HETATM    6  O   UNL     1     -11.610  10.237  71.528  1.00  0.00    -0.273 OA 
BRANCH   6   7
HETATM    7  C   UNL     1     -11.547   9.071  70.683  1.00  0.00    -0.224 C  
HETATM    8  C   UNL     1     -10.345   9.137  69.719  1.00  0.00    -0.226 C  
HETATM    9  C   UNL     1     -10.249   7.874  68.847  1.00  0.00    -0.205 C  
HETATM   10  C   UNL     1     -10.385  10.392  68.853  1.00  0.00    -0.227 A  
HETATM   11  C   UNL     1      -9.329  11.314  68.904  1.00  0.00    -0.084 A  
HETATM   12  C   UNL     1     -11.476  10.667  68.011  1.00  0.00    -0.289 A  
HETATM   13  C   UNL     1     -11.517  11.841  67.258  1.00  0.00    -0.373 A  
HETATM   14  C   UNL     1      -9.372  12.488  68.146  1.00  0.00    -0.210 A  
HETATM   15  C   UNL     1     -10.468  12.753  67.329  1.00  0.00    -0.238 A  
BRANCH   9  16
HETATM   16  O   UNL     1     -10.116   6.700  69.670  1.00  0.00    -0.175 OA 
BRANCH  16  17
HETATM   17  C   UNL     1      -9.121   5.848  69.344  1.00  0.00    -0.127 C  
HETATM   18  H2  UNL     1     -10.560   4.312  69.461  1.00  0.00     0.000 HD 
HETATM   19  O   UNL     1      -7.959   6.137  69.112  1.00  0.00    -0.105 OA 
HETATM   20  H1  UNL     1      -8.841   3.939  69.038  1.00  0.00     0.000 HD 
HETATM   21  N   UNL     1      -9.593   4.584  69.285  1.00  0.00    -0.173 N  
ENDBRANCH  16  17
ENDBRANCH   9  16
ENDBRANCH   6   7
ENDBRANCH   2   6
TORSDOF 4
ENDMDL
MODEL      135
REMARK 921   NORMALIZED FREE ENERGY PREDICTED BY IDOCK:   -3.43 KCAL/MOL
REMARK 922        TOTAL FREE ENERGY PREDICTED BY IDOCK:   -4.63 KCAL/MOL
REMARK 923 INTER-LIGAND FREE ENERGY PREDICTED BY IDOCK:   -4.32 KCAL/MOL
REMARK 924 INTRA-LIGAND FREE ENERGY PREDICTED BY IDOCK:   -0.31 KCAL/MOL
REMARK 927      BINDING AFFINITY PREDICTED BY RF-SCORE:    0.00 PKD
ROOT
HETATM    1  N   UNL     1      -7.019  10.655  64.480  1.00  0.00    -0.350 N  
HETATM    2  C   UNL     1      -7.965   9.770  64.102  1.00  0.00    -0.143 C  
HETATM    3  H2  UNL     1      -6.476  11.121  63.752  1.00  0.00     0.000 HD 
HETATM    4  H1  UNL     1      -6.817  10.884  65.453  1.00  0.00     0.000 HD 
HETATM    5  O   UNL     1      -8.206   9.496  62.938  1.00  0.00    -0.139 OA 
ENDROOT
BRANCH   2   6
HETATM    6  O   UNL     1      -8.591   9.276  65.191  1.00  0.00    -0.151 OA 
BRANCH   6   7
HETATM    7  C   UNL     1      -9.807   9.949  65.573  1.00  0.00    -0.311 C  
HETATM    8  C   UNL     1      -9.970   9.991  67.106  1.00  0.00    -0.251 C  
HETATM    9  C   UNL     1     -11.245  10.747  67.519  1.00  0.00    -0.274 C  
HETATM   10  C   UNL     1      -9.949   8.592  67.714  1.00  0.00    -0.241 A  
HETATM   11  C   UNL     1      -8.973   8.254  68.663  1.00  0.00    -0.137 A  
HETATM   12  C   UNL     1     -10.878   7.611  67.328  1.00  0.00    -0.263 A  
HETATM   13  C   UNL     1     -10.818   6.323  67.861  1.00  0.00    -0.417 A  
HETATM   14  C   UNL     1      -8.917   6.964  69.198  1.00  0.00    -0.133 A  
HETATM   15  C   UNL     1      -9.835   5.998  68.792  1.00  0.00    -0.170 A  
BRANCH   9  16
HETATM   16  O   UNL     1     -11.215  12.097  67.021  1.00  0.00    -0.276 OA 
BRANCH  16  17
HETATM   17  C   UNL     1     -11.762  13.042  67.816  1.00  0.00    -0.359 C  
HETATM   18  H2  UNL     1     -11.510  11.681  69.405  1.00  0.00     0.000 HD 
HETATM   19  O   UNL     1     -12.139  14.152  67.477  1.00  0.00    -0.395 OA 
HETATM   20  H1  UNL     1     -12.240  13.311  69.690  1.00  0.00     0.000 HD 
HETATM   21  N   UNL     1     -11.827  12.597  69.089  1.00  0.00    -0.307 N  
ENDBRANCH  16  17
ENDBRANCH   9  16
ENDBRANCH   6   7
ENDBRANCH   2   6
TORSDOF 4
ENDMDL
MODEL      136
REMARK 921   NORMALIZED FREE ENERGY PREDICTED BY IDOCK:   -3.43 KCAL/MOL
REMARK 922        TOTAL FREE ENERGY PREDICTED BY IDOCK:   -4.63 KCAL/MOL
REMARK 923 INTER-LIGAND FREE ENERGY PREDICTED BY IDOCK:   -4.32 KCAL/MOL
REMARK 924 INTRA-LIGAND FREE ENERGY PREDICTED BY IDOCK:   -0.31 KCAL/MOL
REMARK 927      BINDING AFFINITY PREDICTED BY RF-SCORE:    0.00 PKD
ROOT
HETATM    1  N   UNL     1     -13.084  14.291  69.781  1.00  0.00    -0.208 N  
HETATM    2  C   UNL     1     -12.124  13.738  70.552  1.00  0.00    -0.345 C  
HETATM    3  H2  UNL     1     -14.043  14.289  70.129  1.00  0.00     0.000 HD 
HETATM    4  H1  UNL     1     -12.903  14.709  68.868  1.00  0.00     0.000 HD 
HETATM    5  O   UNL     1     -12.341  13.238  71.644  1.00  0.00    -0.139 OA 
ENDROOT
BRANCH   2   6
HETATM    6  O   UNL     1     -10.926  13.853  69.944  1.00  0.00    -0.030 OA 
BRANCH   6   7
HETATM    7  C   UNL     1     -10.963  14.210  68.548  1.00  0.00    -0.254 C  
HETATM    8  C   UNL     1     -10.555  13.022  67.652  1.00  0.00    -0.232 C  
HETATM    9  C   UNL     1     -10.637  13.386  66.159  1.00  0.00    -0.292 C  
HETATM   10  C   UNL     1      -9.167  12.499  68.007  1.00  0.00    -0.204 A  
HETATM   11  C   UNL     1      -9.002  11.167  68.415  1.00  0.00    -0.165 A  
HETATM   12  C   UNL     1      -8.036  13.330  67.957  1.00  0.00    -0.157 A  
HETATM   13  C   UNL     1      -6.780  12.848  68.327  1.00  0.00    -0.093 A  
HETATM   14  C   UNL     1      -7.743  10.686  68.782  1.00  0.00    -0.117 A  
HETATM   15  C   UNL     1      -6.634  11.528  68.743  1.00  0.00    -0.070 A  
BRANCH   9  16
HETATM   16  O   UNL     1     -11.974  13.790  65.810  1.00  0.00    -0.357 OA 
BRANCH  16  17
HETATM   17  C   UNL     1     -12.276  13.793  64.493  1.00  0.00    -0.403 C  
HETATM   18  H2  UNL     1     -11.933  11.714  64.532  1.00  0.00     0.000 HD 
HETATM   19  O   UNL     1     -12.599  14.758  63.821  1.00  0.00    -0.806 OA 
HETATM   20  H1  UNL     1     -12.417  12.544  62.999  1.00  0.00     0.000 HD 
HETATM   21  N   UNL     1     -12.189  12.541  63.994  1.00  0.00    -0.448 N  
ENDBRANCH  16  17
ENDBRANCH   9  16
ENDBRANCH   6   7
ENDBRANCH   2   6
TORSDOF 4
ENDMDL
MODEL      137
REMARK 921   NORMALIZED FREE ENERGY PREDICTED BY IDOCK:   -3.42 KCAL/MOL
REMARK 922        TOTAL FREE ENERGY PREDICTED BY IDOCK:   -4.62 KCAL/MOL
REMARK 923 INTER-LIGAND FREE ENERGY PREDICTED BY IDOCK:   -4.20 KCAL/MOL
REMARK 924 INTRA-LIGAND FREE ENERGY PREDICTED BY IDOCK:   -0.43 KCAL/MOL
REMARK 927      BINDING AFFINITY PREDICTED BY RF-SCORE:    0.00 PKD
ROOT
HETATM    1  N   UNL     1     -11.306   8.302  72.576  1.00  0.00    -0.391 N  
HETATM    2  C   UNL     1     -11.222   9.232  71.602  1.00  0.00    -0.379 C  
HETATM    3  H2  UNL     1     -12.018   8.421  73.298  1.00  0.00     0.000 HD 
HETATM    4  H1  UNL     1     -10.697   7.486  72.632  1.00  0.00     0.000 HD 
HETATM    5  O   UNL     1     -11.951  10.207  71.536  1.00  0.00    -0.374 OA 
ENDROOT
BRANCH   2   6
HETATM    6  O   UNL     1     -10.246   8.896  70.733  1.00  0.00    -0.197 OA 
BRANCH   6   7
HETATM    7  C   UNL     1     -10.688   8.322  69.486  1.00  0.00    -0.174 C  
HETATM    8  C   UNL     1      -9.980   8.977  68.282  1.00  0.00    -0.198 C  
HETATM    9  C   UNL     1     -10.415   8.335  66.953  1.00  0.00    -0.295 C  
HETATM   10  C   UNL     1     -10.199  10.486  68.253  1.00  0.00    -0.185 A  
HETATM   11  C   UNL     1      -9.100  11.356  68.306  1.00  0.00    -0.179 A  
HETATM   12  C   UNL     1     -11.489  11.038  68.195  1.00  0.00    -0.374 A  
HETATM   13  C   UNL     1     -11.674  12.422  68.213  1.00  0.00    -0.398 A  
HETATM   14  C   UNL     1      -9.288  12.740  68.321  1.00  0.00    -0.194 A  
HETATM   15  C   UNL     1     -10.574  13.272  68.280  1.00  0.00    -0.262 A  
BRANCH   9  16
HETATM   16  O   UNL     1     -10.120   6.926  66.951  1.00  0.00    -0.192 OA 
BRANCH  16  17
HETATM   17  C   UNL     1      -9.145   6.519  66.110  1.00  0.00    -0.124 C  
HETATM   18  H2  UNL     1      -9.633   4.552  66.689  1.00  0.00     0.000 HD 
HETATM   19  O   UNL     1      -8.441   7.227  65.410  1.00  0.00    -0.141 OA 
HETATM   20  H1  UNL     1      -8.316   4.863  65.489  1.00  0.00     0.000 HD 
HETATM   21  N   UNL     1      -9.052   5.171  66.125  1.00  0.00    -0.139 N  
ENDBRANCH  16  17
ENDBRANCH   9  16
ENDBRANCH   6   7
ENDBRANCH   2   6
TORSDOF 4
ENDMDL
MODEL      138
REMARK 921   NORMALIZED FREE ENERGY PREDICTED BY IDOCK:   -3.42 KCAL/MOL
REMARK 922        TOTAL FREE ENERGY PREDICTED BY IDOCK:   -4.61 KCAL/MOL
REMARK 923 INTER-LIGAND FREE ENERGY PREDICTED BY IDOCK:   -4.20 KCAL/MOL
REMARK 924 INTRA-LIGAND FREE ENERGY PREDICTED BY IDOCK:   -0.41 KCAL/MOL
REMARK 927      BINDING AFFINITY PREDICTED BY RF-SCORE:    0.00 PKD
ROOT
HETATM    1  N   UNL     1      -7.155   5.400  71.965  1.00  0.00    -0.082 N  
HETATM    2  C   UNL     1      -7.917   6.512  71.890  1.00  0.00    -0.103 C  
HETATM    3  H2  UNL     1      -6.141   5.511  71.988  1.00  0.00     0.000 HD 
HETATM    4  H1  UNL     1      -7.537   4.455  72.000  1.00  0.00     0.000 HD 
HETATM    5  O   UNL     1      -7.460   7.642  71.848  1.00  0.00    -0.076 OA 
ENDROOT
BRANCH   2   6
HETATM    6  O   UNL     1      -9.223   6.172  71.894  1.00  0.00    -0.148 OA 
BRANCH   6   7
HETATM    7  C   UNL     1      -9.753   5.705  70.638  1.00  0.00    -0.180 C  
HETATM    8  C   UNL     1     -10.312   6.869  69.794  1.00  0.00    -0.224 C  
HETATM    9  C   UNL     1     -10.838   6.380  68.433  1.00  0.00    -0.311 C  
HETATM   10  C   UNL     1     -11.391   7.642  70.546  1.00  0.00    -0.266 A  
HETATM   11  C   UNL     1     -11.223   9.011  70.803  1.00  0.00    -0.329 A  
HETATM   12  C   UNL     1     -12.554   7.009  71.015  1.00  0.00    -0.338 A  
HETATM   13  C   UNL     1     -13.511   7.721  71.739  1.00  0.00    -0.373 A  
HETATM   14  C   UNL     1     -12.185   9.722  71.526  1.00  0.00    -0.493 A  
HETATM   15  C   UNL     1     -13.324   9.076  71.998  1.00  0.00    -0.494 A  
BRANCH   9  16
HETATM   16  O   UNL     1      -9.789   5.733  67.689  1.00  0.00    -0.114 OA 
BRANCH  16  17
HETATM   17  C   UNL     1     -10.168   4.736  66.861  1.00  0.00    -0.186 C  
HETATM   18  H2  UNL     1      -9.055   3.445  68.101  1.00  0.00     0.000 HD 
HETATM   19  O   UNL     1     -10.886   4.835  65.880  1.00  0.00    -0.304 OA 
HETATM   20  H1  UNL     1      -9.934   2.808  66.654  1.00  0.00     0.000 HD 
HETATM   21  N   UNL     1      -9.648   3.562  67.279  1.00  0.00    -0.185 N  
ENDBRANCH  16  17
ENDBRANCH   9  16
ENDBRANCH   6   7
ENDBRANCH   2   6
TORSDOF 4
ENDMDL
MODEL      139
REMARK 921   NORMALIZED FREE ENERGY PREDICTED BY IDOCK:   -3.41 KCAL/MOL
REMARK 922        TOTAL FREE ENERGY PREDICTED BY IDOCK:   -4.60 KCAL/MOL
REMARK 923 INTER-LIGAND FREE ENERGY PREDICTED BY IDOCK:   -4.27 KCAL/MOL
REMARK 924 INTRA-LIGAND FREE ENERGY PREDICTED BY IDOCK:   -0.33 KCAL/MOL
REMARK 927      BINDING AFFINITY PREDICTED BY RF-SCORE:    0.00 PKD
ROOT
HETATM    1  N   UNL     1     -11.928  13.555  70.518  1.00  0.00    -0.497 N  
HETATM    2  C   UNL     1     -11.657  14.842  70.216  1.00  0.00    -0.286 C  
HETATM    3  H2  UNL     1     -12.876  13.211  70.360  1.00  0.00     0.000 HD 
HETATM    4  H1  UNL     1     -11.237  12.906  70.894  1.00  0.00     0.000 HD 
HETATM    5  O   UNL     1     -12.484  15.618  69.765  1.00  0.00    -0.292 OA 
ENDROOT
BRANCH   2   6
HETATM    6  O   UNL     1     -10.358  15.107  70.466  1.00  0.00    -0.134 OA 
BRANCH   6   7
HETATM    7  C   UNL     1      -9.822  16.278  69.818  1.00  0.00     0.015 C  
HETATM    8  C   UNL     1      -9.501  16.004  68.334  1.00  0.00    -0.207 C  
HETATM    9  C   UNL     1      -8.971  17.264  67.627  1.00  0.00    -0.224 C  
HETATM   10  C   UNL     1      -8.527  14.841  68.173  1.00  0.00    -0.149 A  
HETATM   11  C   UNL     1      -8.902  13.708  67.438  1.00  0.00    -0.221 A  
HETATM   12  C   UNL     1      -7.255  14.864  68.768  1.00  0.00    -0.123 A  
HETATM   13  C   UNL     1      -6.391  13.774  68.648  1.00  0.00    -0.090 A  
HETATM   14  C   UNL     1      -8.034  12.619  67.316  1.00  0.00    -0.166 A  
HETATM   15  C   UNL     1      -6.783  12.650  67.926  1.00  0.00    -0.109 A  
BRANCH   9  16
HETATM   16  O   UNL     1      -9.936  18.329  67.702  1.00  0.00    -0.311 OA 
BRANCH  16  17
HETATM   17  C   UNL     1     -10.343  18.853  66.525  1.00  0.00    -0.431 C  
HETATM   18  H2  UNL     1      -9.825  20.735  67.322  1.00  0.00     0.000 HD 
HETATM   19  O   UNL     1     -10.774  18.240  65.563  1.00  0.00    -0.596 OA 
HETATM   20  H1  UNL     1     -10.500  20.591  65.650  1.00  0.00     0.000 HD 
HETATM   21  N   UNL     1     -10.192  20.195  66.538  1.00  0.00    -0.451 N  
ENDBRANCH  16  17
ENDBRANCH   9  16
ENDBRANCH   6   7
ENDBRANCH   2   6
TORSDOF 4
ENDMDL
MODEL      140
REMARK 921   NORMALIZED FREE ENERGY PREDICTED BY IDOCK:   -3.40 KCAL/MOL
REMARK 922        TOTAL FREE ENERGY PREDICTED BY IDOCK:   -4.59 KCAL/MOL
REMARK 923 INTER-LIGAND FREE ENERGY PREDICTED BY IDOCK:   -4.25 KCAL/MOL
REMARK 924 INTRA-LIGAND FREE ENERGY PREDICTED BY IDOCK:   -0.34 KCAL/MOL
REMARK 927      BINDING AFFINITY PREDICTED BY RF-SCORE:    0.00 PKD
ROOT
HETATM    1  N   UNL     1      -7.630  11.135  69.602  1.00  0.00    -0.365 N  
HETATM    2  C   UNL     1      -7.345   9.863  69.950  1.00  0.00    -0.147 C  
HETATM    3  H2  UNL     1      -7.084  11.565  68.855  1.00  0.00     0.000 HD 
HETATM    4  H1  UNL     1      -8.362  11.691  70.044  1.00  0.00     0.000 HD 
HETATM    5  O   UNL     1      -6.469   9.199  69.421  1.00  0.00    -0.043 OA 
ENDROOT
BRANCH   2   6
HETATM    6  O   UNL     1      -8.179   9.459  70.930  1.00  0.00    -0.255 OA 
BRANCH   6   7
HETATM    7  C   UNL     1      -8.898   8.235  70.676  1.00  0.00    -0.143 C  
HETATM    8  C   UNL     1     -10.034   8.450  69.655  1.00  0.00    -0.193 C  
HETATM    9  C   UNL     1     -10.775   7.137  69.348  1.00  0.00    -0.231 C  
HETATM   10  C   UNL     1     -11.010   9.527  70.116  1.00  0.00    -0.302 A  
HETATM   11  C   UNL     1     -11.216  10.671  69.331  1.00  0.00    -0.329 A  
HETATM   12  C   UNL     1     -11.702   9.416  71.334  1.00  0.00    -0.448 A  
HETATM   13  C   UNL     1     -12.558  10.431  71.763  1.00  0.00    -0.468 A  
HETATM   14  C   UNL     1     -12.077  11.684  69.761  1.00  0.00    -0.357 A  
HETATM   15  C   UNL     1     -12.742  11.567  70.978  1.00  0.00    -0.426 A  
BRANCH   9  16
HETATM   16  O   UNL     1      -9.863   6.154  68.824  1.00  0.00    -0.129 OA 
BRANCH  16  17
HETATM   17  C   UNL     1      -9.602   5.093  69.619  1.00  0.00    -0.167 C  
HETATM   18  H2  UNL     1      -7.607   5.237  68.952  1.00  0.00     0.000 HD 
HETATM   19  O   UNL     1     -10.394   4.506  70.336  1.00  0.00    -0.161 OA 
HETATM   20  H1  UNL     1      -8.099   3.958  70.134  1.00  0.00     0.000 HD 
HETATM   21  N   UNL     1      -8.296   4.759  69.533  1.00  0.00    -0.082 N  
ENDBRANCH  16  17
ENDBRANCH   9  16
ENDBRANCH   6   7
ENDBRANCH   2   6
TORSDOF 4
ENDMDL
MODEL      141
REMARK 921   NORMALIZED FREE ENERGY PREDICTED BY IDOCK:   -3.40 KCAL/MOL
REMARK 922        TOTAL FREE ENERGY PREDICTED BY IDOCK:   -4.59 KCAL/MOL
REMARK 923 INTER-LIGAND FREE ENERGY PREDICTED BY IDOCK:   -4.26 KCAL/MOL
REMARK 924 INTRA-LIGAND FREE ENERGY PREDICTED BY IDOCK:   -0.33 KCAL/MOL
REMARK 927      BINDING AFFINITY PREDICTED BY RF-SCORE:    0.00 PKD
ROOT
HETATM    1  N   UNL     1      -9.422  10.050  63.604  1.00  0.00    -0.352 N  
HETATM    2  C   UNL     1      -9.066   9.950  64.902  1.00  0.00    -0.224 C  
HETATM    3  H2  UNL     1      -8.683  10.152  62.907  1.00  0.00     0.000 HD 
HETATM    4  H1  UNL     1     -10.389  10.029  63.280  1.00  0.00     0.000 HD 
HETATM    5  O   UNL     1      -7.909   9.975  65.288  1.00  0.00    -0.126 OA 
ENDROOT
BRANCH   2   6
HETATM    6  O   UNL     1     -10.167   9.798  65.667  1.00  0.00    -0.265 OA 
BRANCH   6   7
HETATM    7  C   UNL     1      -9.930   9.627  67.079  1.00  0.00    -0.206 C  
HETATM    8  C   UNL     1     -10.831  10.557  67.918  1.00  0.00    -0.333 C  
HETATM    9  C   UNL     1     -10.613  10.346  69.426  1.00  0.00    -0.239 C  
HETATM   10  C   UNL     1     -10.635  12.022  67.542  1.00  0.00    -0.250 A  
HETATM   11  C   UNL     1     -11.719  12.776  67.070  1.00  0.00    -0.440 A  
HETATM   12  C   UNL     1      -9.377  12.640  67.634  1.00  0.00    -0.190 A  
HETATM   13  C   UNL     1      -9.205  13.969  67.245  1.00  0.00    -0.231 A  
HETATM   14  C   UNL     1     -11.545  14.108  66.683  1.00  0.00    -0.399 A  
HETATM   15  C   UNL     1     -10.288  14.701  66.766  1.00  0.00    -0.268 A  
BRANCH   9  16
HETATM   16  O   UNL     1     -10.891   8.981  69.791  1.00  0.00    -0.231 OA 
BRANCH  16  17
HETATM   17  C   UNL     1      -9.849   8.261  70.259  1.00  0.00    -0.184 C  
HETATM   18  H2  UNL     1     -11.043   6.552  69.947  1.00  0.00     0.000 HD 
HETATM   19  O   UNL     1      -8.768   8.693  70.624  1.00  0.00    -0.139 OA 
HETATM   20  H1  UNL     1      -9.367   6.401  70.611  1.00  0.00     0.000 HD 
HETATM   21  N   UNL     1     -10.155   6.945  70.257  1.00  0.00    -0.182 N  
ENDBRANCH  16  17
ENDBRANCH   9  16
ENDBRANCH   6   7
ENDBRANCH   2   6
TORSDOF 4
ENDMDL
MODEL      142
REMARK 921   NORMALIZED FREE ENERGY PREDICTED BY IDOCK:   -3.37 KCAL/MOL
REMARK 922        TOTAL FREE ENERGY PREDICTED BY IDOCK:   -4.56 KCAL/MOL
REMARK 923 INTER-LIGAND FREE ENERGY PREDICTED BY IDOCK:   -4.23 KCAL/MOL
REMARK 924 INTRA-LIGAND FREE ENERGY PREDICTED BY IDOCK:   -0.32 KCAL/MOL
REMARK 927      BINDING AFFINITY PREDICTED BY RF-SCORE:    0.00 PKD
ROOT
HETATM    1  N   UNL     1     -10.680   4.797  65.663  1.00  0.00    -0.650 N  
HETATM    2  C   UNL     1      -9.988   4.933  66.814  1.00  0.00    -0.224 C  
HETATM    3  H2  UNL     1     -10.421   4.039  65.031  1.00  0.00     0.000 HD 
HETATM    4  H1  UNL     1     -11.448   5.409  65.391  1.00  0.00     0.000 HD 
HETATM    5  O   UNL     1      -9.069   4.200  67.139  1.00  0.00    -0.124 OA 
ENDROOT
BRANCH   2   6
HETATM    6  O   UNL     1     -10.484   5.965  67.527  1.00  0.00    -0.190 OA 
BRANCH   6   7
HETATM    7  C   UNL     1     -10.642   7.205  66.809  1.00  0.00    -0.221 C  
HETATM    8  C   UNL     1      -9.692   8.294  67.350  1.00  0.00    -0.225 C  
HETATM    9  C   UNL     1      -9.826   9.606  66.557  1.00  0.00    -0.235 C  
HETATM   10  C   UNL     1      -9.906   8.538  68.840  1.00  0.00    -0.181 A  
HETATM   11  C   UNL     1      -8.848   8.346  69.742  1.00  0.00    -0.134 A  
HETATM   12  C   UNL     1     -11.155   8.933  69.347  1.00  0.00     0.026 A  
HETATM   13  C   UNL     1     -11.346   9.110  70.718  1.00  0.00    -0.337 A  
HETATM   14  C   UNL     1      -9.041   8.526  71.114  1.00  0.00    -0.238 A  
HETATM   15  C   UNL     1     -10.290   8.902  71.601  1.00  0.00    -0.416 A  
BRANCH   9  16
HETATM   16  O   UNL     1      -9.531   9.386  65.165  1.00  0.00    -0.259 OA 
BRANCH  16  17
HETATM   17  C   UNL     1      -9.669  10.452  64.347  1.00  0.00    -0.333 C  
HETATM   18  H2  UNL     1     -11.305  11.013  65.551  1.00  0.00     0.000 HD 
HETATM   19  O   UNL     1      -8.969  10.732  63.388  1.00  0.00    -0.193 OA 
HETATM   20  H1  UNL     1     -10.814  12.019  64.130  1.00  0.00     0.000 HD 
HETATM   21  N   UNL     1     -10.710  11.213  64.748  1.00  0.00    -0.297 N  
ENDBRANCH  16  17
ENDBRANCH   9  16
ENDBRANCH   6   7
ENDBRANCH   2   6
TORSDOF 4
ENDMDL
MODEL      143
REMARK 921   NORMALIZED FREE ENERGY PREDICTED BY IDOCK:   -3.37 KCAL/MOL
REMARK 922        TOTAL FREE ENERGY PREDICTED BY IDOCK:   -4.55 KCAL/MOL
REMARK 923 INTER-LIGAND FREE ENERGY PREDICTED BY IDOCK:   -4.08 KCAL/MOL
REMARK 924 INTRA-LIGAND FREE ENERGY PREDICTED BY IDOCK:   -0.48 KCAL/MOL
REMARK 927      BINDING AFFINITY PREDICTED BY RF-SCORE:    0.00 PKD
ROOT
HETATM    1  N   UNL     1      -9.579   7.618  65.709  1.00  0.00    -0.371 N  
HETATM    2  C   UNL     1     -10.097   7.172  66.872  1.00  0.00    -0.238 C  
HETATM    3  H2  UNL     1     -10.137   7.515  64.860  1.00  0.00     0.000 HD 
HETATM    4  H1  UNL     1      -8.659   8.052  65.630  1.00  0.00     0.000 HD 
HETATM    5  O   UNL     1     -11.197   6.652  66.965  1.00  0.00    -0.404 OA 
ENDROOT
BRANCH   2   6
HETATM    6  O   UNL     1      -9.234   7.412  67.880  1.00  0.00    -0.133 OA 
BRANCH   6   7
HETATM    7  C   UNL     1      -9.824   7.851  69.120  1.00  0.00    -0.174 C  
HETATM    8  C   UNL     1     -10.250   9.332  69.049  1.00  0.00    -0.217 C  
HETATM    9  C   UNL     1     -10.921   9.790  70.356  1.00  0.00    -0.312 C  
HETATM   10  C   UNL     1      -9.076  10.239  68.695  1.00  0.00    -0.152 A  
HETATM   11  C   UNL     1      -9.127  11.035  67.542  1.00  0.00    -0.138 A  
HETATM   12  C   UNL     1      -7.919  10.284  69.491  1.00  0.00    -0.171 A  
HETATM   13  C   UNL     1      -6.836  11.087  69.130  1.00  0.00    -0.094 A  
HETATM   14  C   UNL     1      -8.043  11.841  67.184  1.00  0.00    -0.169 A  
HETATM   15  C   UNL     1      -6.897  11.862  67.975  1.00  0.00    -0.072 A  
BRANCH   9  16
HETATM   16  O   UNL     1     -12.084   8.989  70.635  1.00  0.00    -0.186 OA 
BRANCH  16  17
HETATM   17  C   UNL     1     -12.416   8.846  71.936  1.00  0.00    -0.378 C  
HETATM   18  H2  UNL     1     -10.599   7.801  72.162  1.00  0.00     0.000 HD 
HETATM   19  O   UNL     1     -13.419   9.272  72.484  1.00  0.00    -0.464 OA 
HETATM   20  H1  UNL     1     -11.704   8.052  73.572  1.00  0.00     0.000 HD 
HETATM   21  N   UNL     1     -11.453   8.160  72.589  1.00  0.00    -0.403 N  
ENDBRANCH  16  17
ENDBRANCH   9  16
ENDBRANCH   6   7
ENDBRANCH   2   6
TORSDOF 4
ENDMDL
MODEL      144
REMARK 921   NORMALIZED FREE ENERGY PREDICTED BY IDOCK:   -3.35 KCAL/MOL
REMARK 922        TOTAL FREE ENERGY PREDICTED BY IDOCK:   -4.53 KCAL/MOL
REMARK 923 INTER-LIGAND FREE ENERGY PREDICTED BY IDOCK:   -4.13 KCAL/MOL
REMARK 924 INTRA-LIGAND FREE ENERGY PREDICTED BY IDOCK:   -0.40 KCAL/MOL
REMARK 927      BINDING AFFINITY PREDICTED BY RF-SCORE:    0.00 PKD
ROOT
HETATM    1  N   UNL     1     -11.660   8.623  71.001  1.00  0.00    -0.278 N  
HETATM    2  C   UNL     1     -11.999   9.913  71.205  1.00  0.00    -0.402 C  
HETATM    3  H2  UNL     1     -12.000   7.924  71.662  1.00  0.00     0.000 HD 
HETATM    4  H1  UNL     1     -11.082   8.308  70.222  1.00  0.00     0.000 HD 
HETATM    5  O   UNL     1     -12.690  10.289  72.137  1.00  0.00    -0.358 OA 
ENDROOT
BRANCH   2   6
HETATM    6  O   UNL     1     -11.482  10.682  70.225  1.00  0.00    -0.295 OA 
BRANCH   6   7
HETATM    7  C   UNL     1     -10.608  10.011  69.296  1.00  0.00    -0.227 C  
HETATM    8  C   UNL     1      -9.663  11.007  68.592  1.00  0.00    -0.198 C  
HETATM    9  C   UNL     1      -8.698  10.288  67.632  1.00  0.00    -0.121 C  
HETATM   10  C   UNL     1     -10.438  12.099  67.863  1.00  0.00    -0.224 A  
HETATM   11  C   UNL     1     -10.244  13.446  68.205  1.00  0.00    -0.250 A  
HETATM   12  C   UNL     1     -11.372  11.791  66.859  1.00  0.00    -0.386 A  
HETATM   13  C   UNL     1     -12.104  12.799  66.232  1.00  0.00    -0.400 A  
HETATM   14  C   UNL     1     -10.977  14.454  67.574  1.00  0.00    -0.299 A  
HETATM   15  C   UNL     1     -11.910  14.130  66.592  1.00  0.00    -0.447 A  
BRANCH   9  16
HETATM   16  O   UNL     1      -7.903   9.323  68.345  1.00  0.00    -0.093 OA 
BRANCH  16  17
HETATM   17  C   UNL     1      -6.880   9.813  69.079  1.00  0.00    -0.050 C  
HETATM   18  H2  UNL     1      -7.556   8.562  70.636  1.00  0.00     0.000 HD 
HETATM   19  O   UNL     1      -6.047  10.627  68.718  1.00  0.00    -0.041 OA 
HETATM   20  H1  UNL     1      -6.108   9.623  70.863  1.00  0.00     0.000 HD 
HETATM   21  N   UNL     1      -6.881   9.253  70.309  1.00  0.00    -0.060 N  
ENDBRANCH  16  17
ENDBRANCH   9  16
ENDBRANCH   6   7
ENDBRANCH   2   6
TORSDOF 4
ENDMDL
MODEL      145
REMARK 921   NORMALIZED FREE ENERGY PREDICTED BY IDOCK:   -3.34 KCAL/MOL
REMARK 922        TOTAL FREE ENERGY PREDICTED BY IDOCK:   -4.52 KCAL/MOL
REMARK 923 INTER-LIGAND FREE ENERGY PREDICTED BY IDOCK:   -4.32 KCAL/MOL
REMARK 924 INTRA-LIGAND FREE ENERGY PREDICTED BY IDOCK:   -0.20 KCAL/MOL
REMARK 927      BINDING AFFINITY PREDICTED BY RF-SCORE:    0.00 PKD
ROOT
HETATM    1  N   UNL     1      -9.051  11.346  65.079  1.00  0.00    -0.400 N  
HETATM    2  C   UNL     1      -9.401  11.716  66.328  1.00  0.00    -0.216 C  
HETATM    3  H2  UNL     1      -8.395  11.936  64.566  1.00  0.00     0.000 HD 
HETATM    4  H1  UNL     1      -9.406  10.508  64.618  1.00  0.00     0.000 HD 
HETATM    5  O   UNL     1      -8.976  12.718  66.879  1.00  0.00    -0.214 OA 
ENDROOT
BRANCH   2   6
HETATM    6  O   UNL     1     -10.250  10.809  66.853  1.00  0.00    -0.210 OA 
BRANCH   6   7
HETATM    7  C   UNL     1     -11.233  11.328  67.772  1.00  0.00    -0.291 C  
HETATM    8  C   UNL     1     -10.693  11.359  69.217  1.00  0.00    -0.195 C  
HETATM    9  C   UNL     1     -11.723  11.954  70.193  1.00  0.00    -0.253 C  
HETATM   10  C   UNL     1     -10.244   9.976  69.679  1.00  0.00    -0.267 A  
HETATM   11  C   UNL     1      -8.914   9.766  70.075  1.00  0.00    -0.255 A  
HETATM   12  C   UNL     1     -11.130   8.887  69.700  1.00  0.00    -0.056 A  
HETATM   13  C   UNL     1     -10.692   7.618  70.084  1.00  0.00    -0.245 A  
HETATM   14  C   UNL     1      -8.479   8.496  70.463  1.00  0.00    -0.143 A  
HETATM   15  C   UNL     1      -9.366   7.423  70.461  1.00  0.00    -0.157 A  
BRANCH   9  16
HETATM   16  O   UNL     1     -12.072  13.295  69.802  1.00  0.00    -0.316 OA 
BRANCH  16  17
HETATM   17  C   UNL     1     -12.608  14.079  70.763  1.00  0.00    -0.360 C  
HETATM   18  H2  UNL     1     -12.110  15.718  69.534  1.00  0.00     0.000 HD 
HETATM   19  O   UNL     1     -13.120  13.709  71.806  1.00  0.00    -0.349 OA 
HETATM   20  H1  UNL     1     -12.925  15.971  71.129  1.00  0.00     0.000 HD 
HETATM   21  N   UNL     1     -12.520  15.378  70.404  1.00  0.00    -0.398 N  
ENDBRANCH  16  17
ENDBRANCH   9  16
ENDBRANCH   6   7
ENDBRANCH   2   6
TORSDOF 4
ENDMDL
MODEL      146
REMARK 921   NORMALIZED FREE ENERGY PREDICTED BY IDOCK:   -3.34 KCAL/MOL
REMARK 922        TOTAL FREE ENERGY PREDICTED BY IDOCK:   -4.52 KCAL/MOL
REMARK 923 INTER-LIGAND FREE ENERGY PREDICTED BY IDOCK:   -4.01 KCAL/MOL
REMARK 924 INTRA-LIGAND FREE ENERGY PREDICTED BY IDOCK:   -0.50 KCAL/MOL
REMARK 927      BINDING AFFINITY PREDICTED BY RF-SCORE:    0.00 PKD
ROOT
HETATM    1  N   UNL     1     -10.502  11.030  63.450  1.00  0.00    -0.608 N  
HETATM    2  C   UNL     1      -9.643  10.364  64.250  1.00  0.00    -0.318 C  
HETATM    3  H2  UNL     1     -10.173  11.325  62.530  1.00  0.00     0.000 HD 
HETATM    4  H1  UNL     1     -11.461  11.255  63.713  1.00  0.00     0.000 HD 
HETATM    5  O   UNL     1      -8.496  10.095  63.934  1.00  0.00    -0.161 OA 
ENDROOT
BRANCH   2   6
HETATM    6  O   UNL     1     -10.257  10.036  65.406  1.00  0.00    -0.289 OA 
BRANCH   6   7
HETATM    7  C   UNL     1     -10.752  11.141  66.188  1.00  0.00    -0.225 C  
HETATM    8  C   UNL     1      -9.612  11.852  66.946  1.00  0.00    -0.208 C  
HETATM    9  C   UNL     1     -10.130  13.059  67.746  1.00  0.00    -0.229 C  
HETATM   10  C   UNL     1      -8.851  10.888  67.852  1.00  0.00    -0.134 A  
HETATM   11  C   UNL     1      -7.476  10.685  67.664  1.00  0.00    -0.091 A  
HETATM   12  C   UNL     1      -9.503  10.169  68.868  1.00  0.00    -0.183 A  
HETATM   13  C   UNL     1      -8.801   9.259  69.660  1.00  0.00    -0.159 A  
HETATM   14  C   UNL     1      -6.775   9.775  68.460  1.00  0.00    -0.052 A  
HETATM   15  C   UNL     1      -7.439   9.059  69.453  1.00  0.00    -0.077 A  
BRANCH   9  16
HETATM   16  O   UNL     1     -10.765  14.010  66.871  1.00  0.00    -0.282 OA 
BRANCH  16  17
HETATM   17  C   UNL     1      -9.957  14.661  66.006  1.00  0.00    -0.316 C  
HETATM   18  H2  UNL     1     -11.350  14.149  64.508  1.00  0.00     0.000 HD 
HETATM   19  O   UNL     1      -8.915  15.236  66.271  1.00  0.00    -0.299 OA 
HETATM   20  H1  UNL     1      -9.866  15.103  64.106  1.00  0.00     0.000 HD 
HETATM   21  N   UNL     1     -10.476  14.611  64.760  1.00  0.00    -0.384 N  
ENDBRANCH  16  17
ENDBRANCH   9  16
ENDBRANCH   6   7
ENDBRANCH   2   6
TORSDOF 4
ENDMDL
MODEL      147
REMARK 921   NORMALIZED FREE ENERGY PREDICTED BY IDOCK:   -3.31 KCAL/MOL
REMARK 922        TOTAL FREE ENERGY PREDICTED BY IDOCK:   -4.48 KCAL/MOL
REMARK 923 INTER-LIGAND FREE ENERGY PREDICTED BY IDOCK:   -4.20 KCAL/MOL
REMARK 924 INTRA-LIGAND FREE ENERGY PREDICTED BY IDOCK:   -0.28 KCAL/MOL
REMARK 927      BINDING AFFINITY PREDICTED BY RF-SCORE:    0.00 PKD
ROOT
HETATM    1  N   UNL     1     -10.992  19.163  68.026  1.00  0.00    -0.298 N  
HETATM    2  C   UNL     1      -9.883  19.788  67.575  1.00  0.00    -0.389 C  
HETATM    3  H2  UNL     1     -11.863  19.694  68.064  1.00  0.00     0.000 HD 
HETATM    4  H1  UNL     1     -11.006  18.191  68.332  1.00  0.00     0.000 HD 
HETATM    5  O   UNL     1      -9.866  20.951  67.209  1.00  0.00    -0.444 OA 
ENDROOT
BRANCH   2   6
HETATM    6  O   UNL     1      -8.843  18.929  67.574  1.00  0.00    -0.275 OA 
BRANCH   6   7
HETATM    7  C   UNL     1      -7.706  19.323  66.780  1.00  0.00    -0.254 C  
HETATM    8  C   UNL     1      -6.942  18.095  66.242  1.00  0.00    -0.290 C  
HETATM    9  C   UNL     1      -5.754  18.511  65.357  1.00  0.00    -0.217 C  
HETATM   10  C   UNL     1      -6.482  17.178  67.371  1.00  0.00    -0.173 A  
HETATM   11  C   UNL     1      -6.917  15.845  67.413  1.00  0.00    -0.233 A  
HETATM   12  C   UNL     1      -5.643  17.643  68.396  1.00  0.00    -0.153 A  
HETATM   13  C   UNL     1      -5.266  16.803  69.445  1.00  0.00    -0.135 A  
HETATM   14  C   UNL     1      -6.535  15.005  68.463  1.00  0.00    -0.094 A  
HETATM   15  C   UNL     1      -5.716  15.486  69.481  1.00  0.00    -0.117 A  
BRANCH   9  16
HETATM   16  O   UNL     1      -6.208  19.298  64.240  1.00  0.00    -0.444 OA 
BRANCH  16  17
HETATM   17  C   UNL     1      -5.682  20.537  64.127  1.00  0.00    -0.251 C  
HETATM   18  H2  UNL     1      -6.295  20.483  62.111  1.00  0.00     0.000 HD 
HETATM   19  O   UNL     1      -5.148  21.187  65.010  1.00  0.00    -0.192 OA 
HETATM   20  H1  UNL     1      -5.446  21.933  62.782  1.00  0.00     0.000 HD 
HETATM   21  N   UNL     1      -5.843  20.996  62.867  1.00  0.00    -0.243 N  
ENDBRANCH  16  17
ENDBRANCH   9  16
ENDBRANCH   6   7
ENDBRANCH   2   6
TORSDOF 4
ENDMDL
MODEL      148
REMARK 921   NORMALIZED FREE ENERGY PREDICTED BY IDOCK:   -3.30 KCAL/MOL
REMARK 922        TOTAL FREE ENERGY PREDICTED BY IDOCK:   -4.47 KCAL/MOL
REMARK 923 INTER-LIGAND FREE ENERGY PREDICTED BY IDOCK:   -4.08 KCAL/MOL
REMARK 924 INTRA-LIGAND FREE ENERGY PREDICTED BY IDOCK:   -0.39 KCAL/MOL
REMARK 927      BINDING AFFINITY PREDICTED BY RF-SCORE:    0.00 PKD
ROOT
HETATM    1  N   UNL     1      -8.998  19.306  68.358  1.00  0.00    -0.341 N  
HETATM    2  C   UNL     1     -10.067  18.648  67.861  1.00  0.00    -0.369 C  
HETATM    3  H2  UNL     1      -8.788  20.234  67.989  1.00  0.00     0.000 HD 
HETATM    4  H1  UNL     1      -8.389  18.926  69.082  1.00  0.00     0.000 HD 
HETATM    5  O   UNL     1     -10.796  19.104  66.995  1.00  0.00    -0.455 OA 
ENDROOT
BRANCH   2   6
HETATM    6  O   UNL     1     -10.201  17.458  68.480  1.00  0.00    -0.324 OA 
BRANCH   6   7
HETATM    7  C   UNL     1     -10.174  16.299  67.623  1.00  0.00    -0.272 C  
HETATM    8  C   UNL     1      -9.008  15.356  67.986  1.00  0.00    -0.171 C  
HETATM    9  C   UNL     1      -9.003  14.096  67.103  1.00  0.00    -0.225 C  
HETATM   10  C   UNL     1      -7.663  16.071  67.918  1.00  0.00    -0.149 A  
HETATM   11  C   UNL     1      -6.852  16.153  69.059  1.00  0.00    -0.176 A  
HETATM   12  C   UNL     1      -7.215  16.679  66.733  1.00  0.00    -0.272 A  
HETATM   13  C   UNL     1      -6.001  17.367  66.698  1.00  0.00    -0.235 A  
HETATM   14  C   UNL     1      -5.636  16.840  69.021  1.00  0.00    -0.137 A  
HETATM   15  C   UNL     1      -5.214  17.451  67.843  1.00  0.00    -0.123 A  
BRANCH   9  16
HETATM   16  O   UNL     1     -10.241  13.375  67.244  1.00  0.00    -0.238 OA 
BRANCH  16  17
HETATM   17  C   UNL     1     -10.164  12.158  67.825  1.00  0.00    -0.201 C  
HETATM   18  H2  UNL     1     -11.962  12.646  68.811  1.00  0.00     0.000 HD 
HETATM   19  O   UNL     1      -9.298  11.318  67.646  1.00  0.00    -0.156 OA 
HETATM   20  H1  UNL     1     -11.158  11.049  69.088  1.00  0.00     0.000 HD 
HETATM   21  N   UNL     1     -11.216  11.969  68.649  1.00  0.00    -0.236 N  
ENDBRANCH  16  17
ENDBRANCH   9  16
ENDBRANCH   6   7
ENDBRANCH   2   6
TORSDOF 4
ENDMDL
MODEL      149
REMARK 921   NORMALIZED FREE ENERGY PREDICTED BY IDOCK:   -3.29 KCAL/MOL
REMARK 922        TOTAL FREE ENERGY PREDICTED BY IDOCK:   -4.46 KCAL/MOL
REMARK 923 INTER-LIGAND FREE ENERGY PREDICTED BY IDOCK:   -4.07 KCAL/MOL
REMARK 924 INTRA-LIGAND FREE ENERGY PREDICTED BY IDOCK:   -0.39 KCAL/MOL
REMARK 927      BINDING AFFINITY PREDICTED BY RF-SCORE:    0.00 PKD
ROOT
HETATM    1  N   UNL     1      -6.325   9.045  69.730  1.00  0.00    -0.038 N  
HETATM    2  C   UNL     1      -7.320   9.334  68.865  1.00  0.00    -0.074 C  
HETATM    3  H2  UNL     1      -5.588   8.409  69.424  1.00  0.00     0.000 HD 
HETATM    4  H1  UNL     1      -6.271   9.426  70.675  1.00  0.00     0.000 HD 
HETATM    5  O   UNL     1      -7.385   8.878  67.735  1.00  0.00    -0.083 OA 
ENDROOT
BRANCH   2   6
HETATM    6  O   UNL     1      -8.183  10.201  69.433  1.00  0.00    -0.140 OA 
BRANCH   6   7
HETATM    7  C   UNL     1      -9.256   9.610  70.192  1.00  0.00    -0.246 C  
HETATM    8  C   UNL     1     -10.499   9.361  69.312  1.00  0.00    -0.230 C  
HETATM    9  C   UNL     1     -11.631   8.689  70.109  1.00  0.00     0.087 C  
HETATM   10  C   UNL     1     -10.989  10.646  68.652  1.00  0.00    -0.291 A  
HETATM   11  C   UNL     1     -11.049  10.738  67.254  1.00  0.00    -0.339 A  
HETATM   12  C   UNL     1     -11.366  11.763  69.415  1.00  0.00    -0.337 A  
HETATM   13  C   UNL     1     -11.771  12.946  68.795  1.00  0.00    -0.363 A  
HETATM   14  C   UNL     1     -11.458  11.923  66.636  1.00  0.00    -0.382 A  
HETATM   15  C   UNL     1     -11.812  13.027  67.406  1.00  0.00    -0.411 A  
BRANCH   9  16
HETATM   16  O   UNL     1     -11.189   7.431  70.651  1.00  0.00    -0.261 OA 
BRANCH  16  17
HETATM   17  C   UNL     1     -11.379   7.248  71.976  1.00  0.00    -0.260 C  
HETATM   18  H2  UNL     1     -11.209   5.182  71.594  1.00  0.00     0.000 HD 
HETATM   19  O   UNL     1     -11.538   8.117  72.817  1.00  0.00    -0.411 OA 
HETATM   20  H1  UNL     1     -11.495   5.793  73.272  1.00  0.00     0.000 HD 
HETATM   21  N   UNL     1     -11.352   5.931  72.272  1.00  0.00    -0.292 N  
ENDBRANCH  16  17
ENDBRANCH   9  16
ENDBRANCH   6   7
ENDBRANCH   2   6
TORSDOF 4
ENDMDL
MODEL      150
REMARK 921   NORMALIZED FREE ENERGY PREDICTED BY IDOCK:   -3.27 KCAL/MOL
REMARK 922        TOTAL FREE ENERGY PREDICTED BY IDOCK:   -4.43 KCAL/MOL
REMARK 923 INTER-LIGAND FREE ENERGY PREDICTED BY IDOCK:   -4.01 KCAL/MOL
REMARK 924 INTRA-LIGAND FREE ENERGY PREDICTED BY IDOCK:   -0.42 KCAL/MOL
REMARK 927      BINDING AFFINITY PREDICTED BY RF-SCORE:    0.00 PKD
ROOT
HETATM    1  N   UNL     1      -9.085  11.666  68.779  1.00  0.00    -0.374 N  
HETATM    2  C   UNL     1      -8.615  10.546  68.191  1.00  0.00    -0.123 C  
HETATM    3  H2  UNL     1      -8.413  12.311  69.196  1.00  0.00     0.000 HD 
HETATM    4  H1  UNL     1     -10.076  11.904  68.828  1.00  0.00     0.000 HD 
HETATM    5  O   UNL     1      -7.430  10.262  68.132  1.00  0.00    -0.084 OA 
ENDROOT
BRANCH   2   6
HETATM    6  O   UNL     1      -9.639   9.834  67.678  1.00  0.00    -0.142 OA 
BRANCH   6   7
HETATM    7  C   UNL     1     -10.702   9.512  68.597  1.00  0.00    -0.184 C  
HETATM    8  C   UNL     1     -10.350   8.279  69.456  1.00  0.00    -0.219 C  
HETATM    9  C   UNL     1     -11.462   7.960  70.469  1.00  0.00    -0.195 C  
HETATM   10  C   UNL     1     -10.037   7.062  68.592  1.00  0.00    -0.168 A  
HETATM   11  C   UNL     1      -8.783   6.441  68.681  1.00  0.00    -0.122 A  
HETATM   12  C   UNL     1     -10.976   6.550  67.680  1.00  0.00    -0.426 A  
HETATM   13  C   UNL     1     -10.659   5.462  66.866  1.00  0.00    -0.320 A  
HETATM   14  C   UNL     1      -8.469   5.350  67.867  1.00  0.00    -0.098 A  
HETATM   15  C   UNL     1      -9.404   4.865  66.956  1.00  0.00    -0.136 A  
BRANCH   9  16
HETATM   16  O   UNL     1     -11.687   9.082  71.343  1.00  0.00    -0.278 OA 
BRANCH  16  17
HETATM   17  C   UNL     1     -12.961   9.284  71.743  1.00  0.00    -0.396 C  
HETATM   18  H2  UNL     1     -13.238   7.208  71.512  1.00  0.00     0.000 HD 
HETATM   19  O   UNL     1     -13.465  10.348  72.065  1.00  0.00    -0.389 OA 
HETATM   20  H1  UNL     1     -14.596   8.266  72.066  1.00  0.00     0.000 HD 
HETATM   21  N   UNL     1     -13.634   8.113  71.763  1.00  0.00    -0.354 N  
ENDBRANCH  16  17
ENDBRANCH   9  16
ENDBRANCH   6   7
ENDBRANCH   2   6
TORSDOF 4
ENDMDL
MODEL      151
REMARK 921   NORMALIZED FREE ENERGY PREDICTED BY IDOCK:   -3.25 KCAL/MOL
REMARK 922        TOTAL FREE ENERGY PREDICTED BY IDOCK:   -4.41 KCAL/MOL
REMARK 923 INTER-LIGAND FREE ENERGY PREDICTED BY IDOCK:   -4.09 KCAL/MOL
REMARK 924 INTRA-LIGAND FREE ENERGY PREDICTED BY IDOCK:   -0.32 KCAL/MOL
REMARK 927      BINDING AFFINITY PREDICTED BY RF-SCORE:    0.00 PKD
ROOT
HETATM    1  N   UNL     1     -13.260  15.894  70.100  1.00  0.00    -0.602 N  
HETATM    2  C   UNL     1     -12.426  15.019  70.700  1.00  0.00    -0.365 C  
HETATM    3  H2  UNL     1     -13.839  16.492  70.691  1.00  0.00     0.000 HD 
HETATM    4  H1  UNL     1     -13.344  15.990  69.088  1.00  0.00     0.000 HD 
HETATM    5  O   UNL     1     -12.326  14.904  71.911  1.00  0.00    -0.316 OA 
ENDROOT
BRANCH   2   6
HETATM    6  O   UNL     1     -11.731  14.336  69.767  1.00  0.00    -0.275 OA 
BRANCH   6   7
HETATM    7  C   UNL     1     -10.306  14.553  69.765  1.00  0.00     0.145 C  
HETATM    8  C   UNL     1      -9.728  14.481  68.336  1.00  0.00    -0.224 C  
HETATM    9  C   UNL     1      -8.214  14.756  68.324  1.00  0.00    -0.142 C  
HETATM   10  C   UNL     1     -10.041  13.145  67.669  1.00  0.00    -0.221 A  
HETATM   11  C   UNL     1     -10.776  13.113  66.475  1.00  0.00    -0.288 A  
HETATM   12  C   UNL     1      -9.627  11.928  68.235  1.00  0.00    -0.201 A  
HETATM   13  C   UNL     1      -9.959  10.713  67.635  1.00  0.00    -0.197 A  
HETATM   14  C   UNL     1     -11.105  11.894  65.874  1.00  0.00    -0.365 A  
HETATM   15  C   UNL     1     -10.701  10.696  66.457  1.00  0.00    -0.218 A  
BRANCH   9  16
HETATM   16  O   UNL     1      -7.933  16.059  68.870  1.00  0.00    -0.184 OA 
BRANCH  16  17
HETATM   17  C   UNL     1      -7.990  17.096  68.007  1.00  0.00    -0.212 C  
HETATM   18  H2  UNL     1      -9.733  17.696  69.028  1.00  0.00     0.000 HD 
HETATM   19  O   UNL     1      -7.201  17.344  67.111  1.00  0.00    -0.159 OA 
HETATM   20  H1  UNL     1      -9.106  18.653  67.628  1.00  0.00     0.000 HD 
HETATM   21  N   UNL     1      -9.063  17.869  68.280  1.00  0.00    -0.272 N  
ENDBRANCH  16  17
ENDBRANCH   9  16
ENDBRANCH   6   7
ENDBRANCH   2   6
TORSDOF 4
ENDMDL
MODEL      152
REMARK 921   NORMALIZED FREE ENERGY PREDICTED BY IDOCK:   -3.23 KCAL/MOL
REMARK 922        TOTAL FREE ENERGY PREDICTED BY IDOCK:   -4.38 KCAL/MOL
REMARK 923 INTER-LIGAND FREE ENERGY PREDICTED BY IDOCK:   -3.94 KCAL/MOL
REMARK 924 INTRA-LIGAND FREE ENERGY PREDICTED BY IDOCK:   -0.44 KCAL/MOL
REMARK 927      BINDING AFFINITY PREDICTED BY RF-SCORE:    0.00 PKD
ROOT
HETATM    1  N   UNL     1     -12.475  16.126  69.455  1.00  0.00    -0.395 N  
HETATM    2  C   UNL     1     -12.255  14.907  69.993  1.00  0.00    -0.333 C  
HETATM    3  H2  UNL     1     -13.374  16.575  69.631  1.00  0.00     0.000 HD 
HETATM    4  H1  UNL     1     -11.793  16.621  68.882  1.00  0.00     0.000 HD 
HETATM    5  O   UNL     1     -13.071  14.315  70.679  1.00  0.00    -0.324 OA 
ENDROOT
BRANCH   2   6
HETATM    6  O   UNL     1     -11.014  14.485  69.675  1.00  0.00    -0.246 OA 
BRANCH   6   7
HETATM    7  C   UNL     1     -10.876  13.858  68.384  1.00  0.00    -0.254 C  
HETATM    8  C   UNL     1      -9.449  14.030  67.823  1.00  0.00    -0.209 C  
HETATM    9  C   UNL     1      -9.286  13.324  66.466  1.00  0.00    -0.213 C  
HETATM   10  C   UNL     1      -9.058  15.500  67.720  1.00  0.00    -0.178 A  
HETATM   11  C   UNL     1      -7.941  15.980  68.421  1.00  0.00    -0.151 A  
HETATM   12  C   UNL     1      -9.807  16.406  66.951  1.00  0.00    -0.266 A  
HETATM   13  C   UNL     1      -9.460  17.757  66.901  1.00  0.00    -0.271 A  
HETATM   14  C   UNL     1      -7.595  17.333  68.368  1.00  0.00    -0.241 A  
HETATM   15  C   UNL     1      -8.357  18.221  67.613  1.00  0.00    -0.252 A  
BRANCH   9  16
HETATM   16  O   UNL     1      -9.567  11.918  66.591  1.00  0.00    -0.199 OA 
BRANCH  16  17
HETATM   17  C   UNL     1      -8.547  11.137  67.009  1.00  0.00    -0.147 C  
HETATM   18  H2  UNL     1      -7.987  10.990  64.982  1.00  0.00     0.000 HD 
HETATM   19  O   UNL     1      -8.289  10.828  68.160  1.00  0.00    -0.113 OA 
HETATM   20  H1  UNL     1      -7.034  10.149  66.269  1.00  0.00     0.000 HD 
HETATM   21  N   UNL     1      -7.805  10.739  65.953  1.00  0.00    -0.153 N  
ENDBRANCH  16  17
ENDBRANCH   9  16
ENDBRANCH   6   7
ENDBRANCH   2   6
TORSDOF 4
ENDMDL
MODEL      153
REMARK 921   NORMALIZED FREE ENERGY PREDICTED BY IDOCK:   -3.21 KCAL/MOL
REMARK 922        TOTAL FREE ENERGY PREDICTED BY IDOCK:   -4.35 KCAL/MOL
REMARK 923 INTER-LIGAND FREE ENERGY PREDICTED BY IDOCK:   -3.93 KCAL/MOL
REMARK 924 INTRA-LIGAND FREE ENERGY PREDICTED BY IDOCK:   -0.43 KCAL/MOL
REMARK 927      BINDING AFFINITY PREDICTED BY RF-SCORE:    0.00 PKD
ROOT
HETATM    1  N   UNL     1      -8.609   5.394  71.134  1.00  0.00    -0.124 N  
HETATM    2  C   UNL     1      -7.583   6.229  70.865  1.00  0.00    -0.096 C  
HETATM    3  H2  UNL     1      -8.406   4.521  71.622  1.00  0.00     0.000 HD 
HETATM    4  H1  UNL     1      -9.576   5.588  70.876  1.00  0.00     0.000 HD 
HETATM    5  O   UNL     1      -6.426   5.996  71.174  1.00  0.00    -0.045 OA 
ENDROOT
BRANCH   2   6
HETATM    6  O   UNL     1      -8.042   7.333  70.243  1.00  0.00    -0.116 OA 
BRANCH   6   7
HETATM    7  C   UNL     1      -8.739   7.109  69.000  1.00  0.00    -0.132 C  
HETATM    8  C   UNL     1      -9.866   8.142  68.792  1.00  0.00    -0.181 C  
HETATM    9  C   UNL     1     -10.582   7.934  67.446  1.00  0.00    -0.272 C  
HETATM   10  C   UNL     1     -10.864   8.129  69.945  1.00  0.00    -0.215 A  
HETATM   11  C   UNL     1     -11.077   9.290  70.702  1.00  0.00    -0.335 A  
HETATM   12  C   UNL     1     -11.568   6.963  70.290  1.00  0.00    -0.362 A  
HETATM   13  C   UNL     1     -12.446   6.956  71.376  1.00  0.00    -0.413 A  
HETATM   14  C   UNL     1     -11.959   9.280  71.787  1.00  0.00    -0.455 A  
HETATM   15  C   UNL     1     -12.637   8.113  72.126  1.00  0.00    -0.349 A  
BRANCH   9  16
HETATM   16  O   UNL     1      -9.649   8.041  66.355  1.00  0.00    -0.212 OA 
BRANCH  16  17
HETATM   17  C   UNL     1      -9.516   9.265  65.798  1.00  0.00    -0.262 C  
HETATM   18  H2  UNL     1      -7.466   8.816  65.593  1.00  0.00     0.000 HD 
HETATM   19  O   UNL     1     -10.403  10.078  65.602  1.00  0.00    -0.233 OA 
HETATM   20  H1  UNL     1      -8.127  10.404  65.032  1.00  0.00     0.000 HD 
HETATM   21  N   UNL     1      -8.228   9.480  65.453  1.00  0.00    -0.123 N  
ENDBRANCH  16  17
ENDBRANCH   9  16
ENDBRANCH   6   7
ENDBRANCH   2   6
TORSDOF 4
ENDMDL
MODEL      154
REMARK 921   NORMALIZED FREE ENERGY PREDICTED BY IDOCK:   -3.20 KCAL/MOL
REMARK 922        TOTAL FREE ENERGY PREDICTED BY IDOCK:   -4.34 KCAL/MOL
REMARK 923 INTER-LIGAND FREE ENERGY PREDICTED BY IDOCK:   -4.04 KCAL/MOL
REMARK 924 INTRA-LIGAND FREE ENERGY PREDICTED BY IDOCK:   -0.30 KCAL/MOL
REMARK 927      BINDING AFFINITY PREDICTED BY RF-SCORE:    0.00 PKD
ROOT
HETATM    1  N   UNL     1     -10.775  17.576  65.245  1.00  0.00    -0.110 N  
HETATM    2  C   UNL     1     -11.257  16.371  64.876  1.00  0.00    -0.185 C  
HETATM    3  H2  UNL     1     -10.739  18.317  64.543  1.00  0.00     0.000 HD 
HETATM    4  H1  UNL     1     -10.445  17.789  66.185  1.00  0.00     0.000 HD 
HETATM    5  O   UNL     1     -11.652  16.117  63.750  1.00  0.00    -0.803 OA 
ENDROOT
BRANCH   2   6
HETATM    6  O   UNL     1     -11.250  15.533  65.934  1.00  0.00    -0.254 OA 
BRANCH   6   7
HETATM    7  C   UNL     1     -10.245  14.500  65.908  1.00  0.00    -0.322 C  
HETATM    8  C   UNL     1      -9.404  14.500  67.202  1.00  0.00    -0.225 C  
HETATM    9  C   UNL     1      -8.360  13.370  67.198  1.00  0.00    -0.139 C  
HETATM   10  C   UNL     1      -8.740  15.851  67.442  1.00  0.00    -0.197 A  
HETATM   11  C   UNL     1      -9.016  16.571  68.614  1.00  0.00    -0.236 A  
HETATM   12  C   UNL     1      -7.863  16.414  66.500  1.00  0.00    -0.323 A  
HETATM   13  C   UNL     1      -7.296  17.672  66.715  1.00  0.00    -0.245 A  
HETATM   14  C   UNL     1      -8.446  17.829  68.828  1.00  0.00    -0.214 A  
HETATM   15  C   UNL     1      -7.591  18.380  67.876  1.00  0.00    -0.255 A  
BRANCH   9  16
HETATM   16  O   UNL     1      -9.003  12.089  67.065  1.00  0.00    -0.184 OA 
BRANCH  16  17
HETATM   17  C   UNL     1      -8.482  11.077  67.793  1.00  0.00    -0.122 C  
HETATM   18  H2  UNL     1     -10.454  10.359  67.987  1.00  0.00     0.000 HD 
HETATM   19  O   UNL     1      -7.304  10.898  68.055  1.00  0.00    -0.085 OA 
HETATM   20  H1  UNL     1      -9.070   9.479  68.749  1.00  0.00     0.000 HD 
HETATM   21  N   UNL     1      -9.463  10.243  68.199  1.00  0.00    -0.145 N  
ENDBRANCH  16  17
ENDBRANCH   9  16
ENDBRANCH   6   7
ENDBRANCH   2   6
TORSDOF 4
ENDMDL
MODEL      155
REMARK 921   NORMALIZED FREE ENERGY PREDICTED BY IDOCK:   -3.19 KCAL/MOL
REMARK 922        TOTAL FREE ENERGY PREDICTED BY IDOCK:   -4.33 KCAL/MOL
REMARK 923 INTER-LIGAND FREE ENERGY PREDICTED BY IDOCK:   -3.94 KCAL/MOL
REMARK 924 INTRA-LIGAND FREE ENERGY PREDICTED BY IDOCK:   -0.39 KCAL/MOL
REMARK 927      BINDING AFFINITY PREDICTED BY RF-SCORE:    0.00 PKD
ROOT
HETATM    1  N   UNL     1     -11.950   7.762  72.890  1.00  0.00    -0.609 N  
HETATM    2  C   UNL     1     -12.854   7.909  71.898  1.00  0.00    -0.308 C  
HETATM    3  H2  UNL     1     -12.295   7.617  73.839  1.00  0.00     0.000 HD 
HETATM    4  H1  UNL     1     -10.942   7.789  72.743  1.00  0.00     0.000 HD 
HETATM    5  O   UNL     1     -14.061   7.878  72.075  1.00  0.00    -0.347 OA 
ENDROOT
BRANCH   2   6
HETATM    6  O   UNL     1     -12.218   8.066  70.719  1.00  0.00    -0.178 OA 
BRANCH   6   7
HETATM    7  C   UNL     1     -11.763   9.402  70.425  1.00  0.00    -0.144 C  
HETATM    8  C   UNL     1     -10.489   9.385  69.556  1.00  0.00    -0.229 C  
HETATM    9  C   UNL     1     -10.026  10.809  69.202  1.00  0.00    -0.187 C  
HETATM   10  C   UNL     1      -9.364   8.598  70.221  1.00  0.00    -0.180 A  
HETATM   11  C   UNL     1      -8.812   7.481  69.577  1.00  0.00    -0.137 A  
HETATM   12  C   UNL     1      -8.872   8.952  71.488  1.00  0.00    -0.253 A  
HETATM   13  C   UNL     1      -7.872   8.197  72.103  1.00  0.00    -0.160 A  
HETATM   14  C   UNL     1      -7.809   6.728  70.193  1.00  0.00    -0.107 A  
HETATM   15  C   UNL     1      -7.344   7.083  71.456  1.00  0.00    -0.080 A  
BRANCH   9  16
HETATM   16  O   UNL     1     -11.060  11.514  68.491  1.00  0.00    -0.201 OA 
BRANCH  16  17
HETATM   17  C   UNL     1     -10.823  12.817  68.224  1.00  0.00    -0.248 C  
HETATM   18  H2  UNL     1     -12.915  13.073  68.224  1.00  0.00     0.000 HD 
HETATM   19  O   UNL     1      -9.733  13.351  68.106  1.00  0.00    -0.216 OA 
HETATM   20  H1  UNL     1     -11.812  14.473  67.917  1.00  0.00     0.000 HD 
HETATM   21  N   UNL     1     -11.990  13.488  68.118  1.00  0.00    -0.361 N  
ENDBRANCH  16  17
ENDBRANCH   9  16
ENDBRANCH   6   7
ENDBRANCH   2   6
TORSDOF 4
ENDMDL
MODEL      156
REMARK 921   NORMALIZED FREE ENERGY PREDICTED BY IDOCK:   -3.18 KCAL/MOL
REMARK 922        TOTAL FREE ENERGY PREDICTED BY IDOCK:   -4.32 KCAL/MOL
REMARK 923 INTER-LIGAND FREE ENERGY PREDICTED BY IDOCK:   -3.92 KCAL/MOL
REMARK 924 INTRA-LIGAND FREE ENERGY PREDICTED BY IDOCK:   -0.40 KCAL/MOL
REMARK 927      BINDING AFFINITY PREDICTED BY RF-SCORE:    0.00 PKD
ROOT
HETATM    1  N   UNL     1     -12.073   7.319  72.685  1.00  0.00    -0.520 N  
HETATM    2  C   UNL     1     -12.089   7.651  71.377  1.00  0.00    -0.316 C  
HETATM    3  H2  UNL     1     -12.054   8.072  73.374  1.00  0.00     0.000 HD 
HETATM    4  H1  UNL     1     -12.079   6.357  73.023  1.00  0.00     0.000 HD 
HETATM    5  O   UNL     1     -12.082   8.803  70.974  1.00  0.00    -0.289 OA 
ENDROOT
BRANCH   2   6
HETATM    6  O   UNL     1     -12.137   6.535  70.622  1.00  0.00    -0.366 OA 
BRANCH   6   7
HETATM    7  C   UNL     1     -11.140   6.435  69.585  1.00  0.00    -0.401 C  
HETATM    8  C   UNL     1     -10.354   5.112  69.685  1.00  0.00    -0.316 C  
HETATM    9  C   UNL     1      -9.320   4.982  68.553  1.00  0.00    -0.127 C  
HETATM   10  C   UNL     1      -9.689   4.953  71.048  1.00  0.00    -0.252 A  
HETATM   11  C   UNL     1     -10.008   3.855  71.861  1.00  0.00    -0.238 A  
HETATM   12  C   UNL     1      -8.769   5.899  71.529  1.00  0.00    -0.132 A  
HETATM   13  C   UNL     1      -8.202   5.762  72.797  1.00  0.00    -0.112 A  
HETATM   14  C   UNL     1      -9.437   3.718  73.129  1.00  0.00    -0.135 A  
HETATM   15  C   UNL     1      -8.540   4.674  73.598  1.00  0.00    -0.104 A  
BRANCH   9  16
HETATM   16  O   UNL     1      -9.967   5.039  67.269  1.00  0.00    -0.165 OA 
BRANCH  16  17
HETATM   17  C   UNL     1      -9.306   4.469  66.238  1.00  0.00    -0.151 C  
HETATM   18  H2  UNL     1      -9.038   6.420  65.487  1.00  0.00     0.000 HD 
HETATM   19  O   UNL     1      -9.087   3.280  66.079  1.00  0.00    -0.140 OA 
HETATM   20  H1  UNL     1      -8.382   4.988  64.597  1.00  0.00     0.000 HD 
HETATM   21  N   UNL     1      -8.882   5.419  65.376  1.00  0.00    -0.154 N  
ENDBRANCH  16  17
ENDBRANCH   9  16
ENDBRANCH   6   7
ENDBRANCH   2   6
TORSDOF 4
ENDMDL
MODEL      157
REMARK 921   NORMALIZED FREE ENERGY PREDICTED BY IDOCK:   -3.15 KCAL/MOL
REMARK 922        TOTAL FREE ENERGY PREDICTED BY IDOCK:   -4.29 KCAL/MOL
REMARK 923 INTER-LIGAND FREE ENERGY PREDICTED BY IDOCK:   -3.99 KCAL/MOL
REMARK 924 INTRA-LIGAND FREE ENERGY PREDICTED BY IDOCK:   -0.30 KCAL/MOL
REMARK 927      BINDING AFFINITY PREDICTED BY RF-SCORE:    0.00 PKD
ROOT
HETATM    1  N   UNL     1      -7.404  10.042  69.578  1.00  0.00    -0.097 N  
HETATM    2  C   UNL     1      -8.721   9.812  69.395  1.00  0.00    -0.174 C  
HETATM    3  H2  UNL     1      -7.046  10.979  69.386  1.00  0.00     0.000 HD 
HETATM    4  H1  UNL     1      -6.746   9.332  69.898  1.00  0.00     0.000 HD 
HETATM    5  O   UNL     1      -9.507  10.663  69.012  1.00  0.00    -0.191 OA 
ENDROOT
BRANCH   2   6
HETATM    6  O   UNL     1      -9.012   8.536  69.719  1.00  0.00    -0.142 OA 
BRANCH   6   7
HETATM    7  C   UNL     1     -10.332   8.310  70.254  1.00  0.00    -0.209 C  
HETATM    8  C   UNL     1     -10.311   7.254  71.378  1.00  0.00    -0.212 C  
HETATM    9  C   UNL     1     -11.711   7.043  71.982  1.00  0.00    -0.295 C  
HETATM   10  C   UNL     1      -9.724   5.931  70.897  1.00  0.00    -0.211 A  
HETATM   11  C   UNL     1      -8.584   5.401  71.519  1.00  0.00    -0.131 A  
HETATM   12  C   UNL     1     -10.286   5.229  69.818  1.00  0.00    -0.369 A  
HETATM   13  C   UNL     1      -9.711   4.041  69.362  1.00  0.00    -0.205 A  
HETATM   14  C   UNL     1      -8.012   4.211  71.063  1.00  0.00    -0.071 A  
HETATM   15  C   UNL     1      -8.572   3.536  69.982  1.00  0.00    -0.107 A  
BRANCH   9  16
HETATM   16  O   UNL     1     -12.220   8.278  72.518  1.00  0.00    -0.370 OA 
BRANCH  16  17
HETATM   17  C   UNL     1     -13.448   8.653  72.099  1.00  0.00    -0.398 C  
HETATM   18  H2  UNL     1     -12.780  10.641  72.305  1.00  0.00     0.000 HD 
HETATM   19  O   UNL     1     -14.367   7.917  71.781  1.00  0.00    -0.418 OA 
HETATM   20  H1  UNL     1     -14.461  10.283  71.740  1.00  0.00     0.000 HD 
HETATM   21  N   UNL     1     -13.533  10.000  72.057  1.00  0.00    -0.393 N  
ENDBRANCH  16  17
ENDBRANCH   9  16
ENDBRANCH   6   7
ENDBRANCH   2   6
TORSDOF 4
ENDMDL
MODEL      158
REMARK 921   NORMALIZED FREE ENERGY PREDICTED BY IDOCK:   -3.15 KCAL/MOL
REMARK 922        TOTAL FREE ENERGY PREDICTED BY IDOCK:   -4.28 KCAL/MOL
REMARK 923 INTER-LIGAND FREE ENERGY PREDICTED BY IDOCK:   -3.97 KCAL/MOL
REMARK 924 INTRA-LIGAND FREE ENERGY PREDICTED BY IDOCK:   -0.31 KCAL/MOL
REMARK 927      BINDING AFFINITY PREDICTED BY RF-SCORE:    0.00 PKD
ROOT
HETATM    1  N   UNL     1      -6.529  10.769  69.517  1.00  0.00    -0.075 N  
HETATM    2  C   UNL     1      -6.510   9.895  68.489  1.00  0.00    -0.050 C  
HETATM    3  H2  UNL     1      -5.636  11.084  69.899  1.00  0.00     0.000 HD 
HETATM    4  H1  UNL     1      -7.386  11.132  69.934  1.00  0.00     0.000 HD 
HETATM    5  O   UNL     1      -5.485   9.461  67.991  1.00  0.00    -0.037 OA 
ENDROOT
BRANCH   2   6
HETATM    6  O   UNL     1      -7.772   9.614  68.105  1.00  0.00    -0.085 OA 
BRANCH   6   7
HETATM    7  C   UNL     1      -8.141  10.062  66.785  1.00  0.00    -0.118 C  
HETATM    8  C   UNL     1      -9.577   9.631  66.424  1.00  0.00    -0.268 C  
HETATM    9  C   UNL     1      -9.990  10.146  65.034  1.00  0.00    -0.305 C  
HETATM   10  C   UNL     1      -9.751   8.118  66.515  1.00  0.00    -0.309 A  
HETATM   11  C   UNL     1     -10.700   7.572  67.391  1.00  0.00    -0.331 A  
HETATM   12  C   UNL     1      -8.961   7.242  65.752  1.00  0.00    -0.052 A  
HETATM   13  C   UNL     1      -9.102   5.860  65.879  1.00  0.00    -0.135 A  
HETATM   14  C   UNL     1     -10.842   6.187  67.514  1.00  0.00    -0.422 A  
HETATM   15  C   UNL     1     -10.040   5.333  66.763  1.00  0.00    -0.255 A  
BRANCH   9  16
HETATM   16  O   UNL     1      -9.913  11.582  64.984  1.00  0.00    -0.244 OA 
BRANCH  16  17
HETATM   17  C   UNL     1     -11.088  12.248  65.019  1.00  0.00    -0.316 C  
HETATM   18  H2  UNL     1     -10.588  12.987  63.109  1.00  0.00     0.000 HD 
HETATM   19  O   UNL     1     -11.913  12.225  65.916  1.00  0.00    -0.555 OA 
HETATM   20  H1  UNL     1     -12.141  13.460  63.907  1.00  0.00     0.000 HD 
HETATM   21  N   UNL     1     -11.253  12.957  63.881  1.00  0.00    -0.412 N  
ENDBRANCH  16  17
ENDBRANCH   9  16
ENDBRANCH   6   7
ENDBRANCH   2   6
TORSDOF 4
ENDMDL
MODEL      159
REMARK 921   NORMALIZED FREE ENERGY PREDICTED BY IDOCK:   -3.13 KCAL/MOL
REMARK 922        TOTAL FREE ENERGY PREDICTED BY IDOCK:   -4.26 KCAL/MOL
REMARK 923 INTER-LIGAND FREE ENERGY PREDICTED BY IDOCK:   -3.87 KCAL/MOL
REMARK 924 INTRA-LIGAND FREE ENERGY PREDICTED BY IDOCK:   -0.39 KCAL/MOL
REMARK 927      BINDING AFFINITY PREDICTED BY RF-SCORE:    0.00 PKD
ROOT
HETATM    1  N   UNL     1      -6.570   7.613  69.107  1.00  0.00    -0.040 N  
HETATM    2  C   UNL     1      -6.429   8.501  68.100  1.00  0.00    -0.057 C  
HETATM    3  H2  UNL     1      -5.735   7.140  69.454  1.00  0.00     0.000 HD 
HETATM    4  H1  UNL     1      -7.466   7.387  69.539  1.00  0.00     0.000 HD 
HETATM    5  O   UNL     1      -5.358   8.769  67.583  1.00  0.00    -0.034 OA 
ENDROOT
BRANCH   2   6
HETATM    6  O   UNL     1      -7.628   9.038  67.793  1.00  0.00    -0.091 OA 
BRANCH   6   7
HETATM    7  C   UNL     1      -8.775   8.205  68.056  1.00  0.00    -0.128 C  
HETATM    8  C   UNL     1      -9.694   8.105  66.822  1.00  0.00    -0.303 C  
HETATM    9  C   UNL     1     -10.896   7.181  67.084  1.00  0.00    -0.333 C  
HETATM   10  C   UNL     1     -10.160   9.481  66.354  1.00  0.00    -0.328 A  
HETATM   11  C   UNL     1      -9.860   9.920  65.056  1.00  0.00    -0.323 A  
HETATM   12  C   UNL     1     -10.872  10.341  67.206  1.00  0.00    -0.312 A  
HETATM   13  C   UNL     1     -11.254  11.614  66.777  1.00  0.00    -0.371 A  
HETATM   14  C   UNL     1     -10.246  11.193  64.628  1.00  0.00    -0.376 A  
HETATM   15  C   UNL     1     -10.937  12.040  65.490  1.00  0.00    -0.345 A  
BRANCH   9  16
HETATM   16  O   UNL     1     -10.448   5.858  67.434  1.00  0.00    -0.192 OA 
BRANCH  16  17
HETATM   17  C   UNL     1     -10.222   5.010  66.408  1.00  0.00    -0.273 C  
HETATM   18  H2  UNL     1      -8.291   4.744  67.210  1.00  0.00     0.000 HD 
HETATM   19  O   UNL     1     -11.011   4.699  65.531  1.00  0.00    -0.255 OA 
HETATM   20  H1  UNL     1      -8.798   3.872  65.708  1.00  0.00     0.000 HD 
HETATM   21  N   UNL     1      -8.969   4.513  66.483  1.00  0.00    -0.112 N  
ENDBRANCH  16  17
ENDBRANCH   9  16
ENDBRANCH   6   7
ENDBRANCH   2   6
TORSDOF 4
ENDMDL
MODEL      160
REMARK 921   NORMALIZED FREE ENERGY PREDICTED BY IDOCK:   -3.13 KCAL/MOL
REMARK 922        TOTAL FREE ENERGY PREDICTED BY IDOCK:   -4.26 KCAL/MOL
REMARK 923 INTER-LIGAND FREE ENERGY PREDICTED BY IDOCK:   -3.88 KCAL/MOL
REMARK 924 INTRA-LIGAND FREE ENERGY PREDICTED BY IDOCK:   -0.38 KCAL/MOL
REMARK 927      BINDING AFFINITY PREDICTED BY RF-SCORE:    0.00 PKD
ROOT
HETATM    1  N   UNL     1      -8.340   8.895  66.711  1.00  0.00    -0.111 N  
HETATM    2  C   UNL     1      -8.759   7.982  67.613  1.00  0.00    -0.126 C  
HETATM    3  H2  UNL     1      -8.322   8.628  65.727  1.00  0.00     0.000 HD 
HETATM    4  H1  UNL     1      -8.040   9.837  66.960  1.00  0.00     0.000 HD 
HETATM    5  O   UNL     1      -9.117   6.855  67.315  1.00  0.00    -0.122 OA 
ENDROOT
BRANCH   2   6
HETATM    6  O   UNL     1      -8.737   8.518  68.851  1.00  0.00    -0.130 OA 
BRANCH   6   7
HETATM    7  C   UNL     1     -10.025   8.811  69.430  1.00  0.00    -0.196 C  
HETATM    8  C   UNL     1     -10.048   8.497  70.940  1.00  0.00    -0.246 C  
HETATM    9  C   UNL     1     -11.406   8.851  71.570  1.00  0.00    -0.325 C  
HETATM   10  C   UNL     1      -9.684   7.043  71.218  1.00  0.00    -0.171 A  
HETATM   11  C   UNL     1      -8.575   6.739  72.022  1.00  0.00    -0.122 A  
HETATM   12  C   UNL     1     -10.424   5.983  70.668  1.00  0.00    -0.305 A  
HETATM   13  C   UNL     1     -10.051   4.658  70.897  1.00  0.00    -0.257 A  
HETATM   14  C   UNL     1      -8.205   5.411  72.252  1.00  0.00    -0.115 A  
HETATM   15  C   UNL     1      -8.940   4.372  71.685  1.00  0.00    -0.160 A  
BRANCH   9  16
HETATM   16  O   UNL     1     -11.701  10.248  71.384  1.00  0.00    -0.341 OA 
BRANCH  16  17
HETATM   17  C   UNL     1     -12.922  10.662  71.786  1.00  0.00    -0.472 C  
HETATM   18  H2  UNL     1     -12.283  12.614  71.314  1.00  0.00     0.000 HD 
HETATM   19  O   UNL     1     -13.834   9.961  72.192  1.00  0.00    -0.290 OA 
HETATM   20  H1  UNL     1     -13.945  12.316  71.964  1.00  0.00     0.000 HD 
HETATM   21  N   UNL     1     -13.022  12.003  71.661  1.00  0.00    -0.391 N  
ENDBRANCH  16  17
ENDBRANCH   9  16
ENDBRANCH   6   7
ENDBRANCH   2   6
TORSDOF 4
ENDMDL
MODEL      161
REMARK 921   NORMALIZED FREE ENERGY PREDICTED BY IDOCK:   -3.11 KCAL/MOL
REMARK 922        TOTAL FREE ENERGY PREDICTED BY IDOCK:   -4.24 KCAL/MOL
REMARK 923 INTER-LIGAND FREE ENERGY PREDICTED BY IDOCK:   -4.09 KCAL/MOL
REMARK 924 INTRA-LIGAND FREE ENERGY PREDICTED BY IDOCK:   -0.15 KCAL/MOL
REMARK 927      BINDING AFFINITY PREDICTED BY RF-SCORE:    0.00 PKD
ROOT
HETATM    1  N   UNL     1      -9.164  17.847  68.961  1.00  0.00    -0.117 N  
HETATM    2  C   UNL     1     -10.387  17.563  68.465  1.00  0.00    -0.380 C  
HETATM    3  H2  UNL     1      -8.827  18.807  68.894  1.00  0.00     0.000 HD 
HETATM    4  H1  UNL     1      -8.558  17.153  69.400  1.00  0.00     0.000 HD 
HETATM    5  O   UNL     1     -11.111  18.393  67.941  1.00  0.00    -0.180 OA 
ENDROOT
BRANCH   2   6
HETATM    6  O   UNL     1     -10.670  16.260  68.664  1.00  0.00    -0.273 OA 
BRANCH   6   7
HETATM    7  C   UNL     1     -10.656  15.428  67.486  1.00  0.00    -0.283 C  
HETATM    8  C   UNL     1      -9.595  14.314  67.596  1.00  0.00    -0.219 C  
HETATM    9  C   UNL     1      -9.607  13.397  66.360  1.00  0.00    -0.257 C  
HETATM   10  C   UNL     1      -8.200  14.886  67.832  1.00  0.00    -0.148 A  
HETATM   11  C   UNL     1      -7.483  14.532  68.984  1.00  0.00    -0.131 A  
HETATM   12  C   UNL     1      -7.615  15.787  66.928  1.00  0.00    -0.235 A  
HETATM   13  C   UNL     1      -6.357  16.335  67.180  1.00  0.00    -0.195 A  
HETATM   14  C   UNL     1      -6.221  15.079  69.233  1.00  0.00    -0.111 A  
HETATM   15  C   UNL     1      -5.662  15.984  68.334  1.00  0.00    -0.106 A  
BRANCH   9  16
HETATM   16  O   UNL     1     -10.901  12.787  66.197  1.00  0.00    -0.273 OA 
BRANCH  16  17
HETATM   17  C   UNL     1     -11.355  12.672  64.930  1.00  0.00    -0.311 C  
HETATM   18  H2  UNL     1     -13.294  12.626  65.756  1.00  0.00     0.000 HD 
HETATM   19  O   UNL     1     -10.682  12.651  63.913  1.00  0.00    -0.391 OA 
HETATM   20  H1  UNL     1     -13.047  12.512  63.968  1.00  0.00     0.000 HD 
HETATM   21  N   UNL     1     -12.704  12.599  64.925  1.00  0.00    -0.480 N  
ENDBRANCH  16  17
ENDBRANCH   9  16
ENDBRANCH   6   7
ENDBRANCH   2   6
TORSDOF 4
ENDMDL
MODEL      162
REMARK 921   NORMALIZED FREE ENERGY PREDICTED BY IDOCK:   -3.11 KCAL/MOL
REMARK 922        TOTAL FREE ENERGY PREDICTED BY IDOCK:   -4.24 KCAL/MOL
REMARK 923 INTER-LIGAND FREE ENERGY PREDICTED BY IDOCK:   -3.91 KCAL/MOL
REMARK 924 INTRA-LIGAND FREE ENERGY PREDICTED BY IDOCK:   -0.32 KCAL/MOL
REMARK 927      BINDING AFFINITY PREDICTED BY RF-SCORE:    0.00 PKD
ROOT
HETATM    1  N   UNL     1      -6.391   9.043  69.524  1.00  0.00    -0.043 N  
HETATM    2  C   UNL     1      -6.677   9.166  68.211  1.00  0.00    -0.060 C  
HETATM    3  H2  UNL     1      -5.791   8.271  69.817  1.00  0.00     0.000 HD 
HETATM    4  H1  UNL     1      -6.741   9.679  70.240  1.00  0.00     0.000 HD 
HETATM    5  O   UNL     1      -6.258   8.405  67.354  1.00  0.00    -0.053 OA 
ENDROOT
BRANCH   2   6
HETATM    6  O   UNL     1      -7.457  10.249  68.012  1.00  0.00    -0.086 OA 
BRANCH   6   7
HETATM    7  C   UNL     1      -8.375  10.565  69.078  1.00  0.00    -0.154 C  
HETATM    8  C   UNL     1      -9.838  10.525  68.593  1.00  0.00    -0.183 C  
HETATM    9  C   UNL     1     -10.822  10.818  69.739  1.00  0.00    -0.226 C  
HETATM   10  C   UNL     1     -10.070  11.476  67.423  1.00  0.00    -0.213 A  
HETATM   11  C   UNL     1     -10.525  10.979  66.193  1.00  0.00    -0.301 A  
HETATM   12  C   UNL     1      -9.816  12.853  67.537  1.00  0.00    -0.208 A  
HETATM   13  C   UNL     1      -9.991  13.704  66.444  1.00  0.00    -0.299 A  
HETATM   14  C   UNL     1     -10.703  11.833  65.102  1.00  0.00    -0.343 A  
HETATM   15  C   UNL     1     -10.430  13.193  65.226  1.00  0.00    -0.319 A  
BRANCH   9  16
HETATM   16  O   UNL     1     -10.662   9.859  70.800  1.00  0.00    -0.306 OA 
BRANCH  16  17
HETATM   17  C   UNL     1     -11.783   9.506  71.465  1.00  0.00    -0.402 C  
HETATM   18  H2  UNL     1     -12.832  10.721  70.099  1.00  0.00     0.000 HD 
HETATM   19  O   UNL     1     -11.858   8.754  72.423  1.00  0.00    -0.357 OA 
HETATM   20  H1  UNL     1     -13.708   9.832  71.408  1.00  0.00     0.000 HD 
HETATM   21  N   UNL     1     -12.860  10.098  70.906  1.00  0.00    -0.361 N  
ENDBRANCH  16  17
ENDBRANCH   9  16
ENDBRANCH   6   7
ENDBRANCH   2   6
TORSDOF 4
ENDMDL
MODEL      163
REMARK 921   NORMALIZED FREE ENERGY PREDICTED BY IDOCK:   -3.10 KCAL/MOL
REMARK 922        TOTAL FREE ENERGY PREDICTED BY IDOCK:   -4.23 KCAL/MOL
REMARK 923 INTER-LIGAND FREE ENERGY PREDICTED BY IDOCK:   -3.84 KCAL/MOL
REMARK 924 INTRA-LIGAND FREE ENERGY PREDICTED BY IDOCK:   -0.39 KCAL/MOL
REMARK 927      BINDING AFFINITY PREDICTED BY RF-SCORE:    0.00 PKD
ROOT
HETATM    1  N   UNL     1      -7.102  11.940  69.430  1.00  0.00    -0.320 N  
HETATM    2  C   UNL     1      -7.506  10.652  69.442  1.00  0.00    -0.135 C  
HETATM    3  H2  UNL     1      -6.103  12.132  69.347  1.00  0.00     0.000 HD 
HETATM    4  H1  UNL     1      -7.740  12.732  69.500  1.00  0.00     0.000 HD 
HETATM    5  O   UNL     1      -6.742   9.705  69.359  1.00  0.00    -0.050 OA 
ENDROOT
BRANCH   2   6
HETATM    6  O   UNL     1      -8.851  10.595  69.533  1.00  0.00    -0.099 OA 
BRANCH   6   7
HETATM    7  C   UNL     1      -9.493   9.597  68.714  1.00  0.00    -0.148 C  
HETATM    8  C   UNL     1      -9.416   9.962  67.217  1.00  0.00    -0.181 C  
HETATM    9  C   UNL     1     -10.061   8.877  66.337  1.00  0.00    -0.263 C  
HETATM   10  C   UNL     1     -10.038  11.327  66.937  1.00  0.00    -0.246 A  
HETATM   11  C   UNL     1      -9.262  12.348  66.369  1.00  0.00    -0.192 A  
HETATM   12  C   UNL     1     -11.377  11.601  67.258  1.00  0.00    -0.372 A  
HETATM   13  C   UNL     1     -11.919  12.868  67.036  1.00  0.00    -0.390 A  
HETATM   14  C   UNL     1      -9.807  13.615  66.145  1.00  0.00    -0.304 A  
HETATM   15  C   UNL     1     -11.132  13.876  66.483  1.00  0.00    -0.310 A  
BRANCH   9  16
HETATM   16  O   UNL     1      -9.407   7.610  66.537  1.00  0.00    -0.175 OA 
BRANCH  16  17
HETATM   17  C   UNL     1     -10.190   6.589  66.950  1.00  0.00    -0.215 C  
HETATM   18  H2  UNL     1      -8.424   5.675  67.648  1.00  0.00     0.000 HD 
HETATM   19  O   UNL     1     -11.403   6.511  66.844  1.00  0.00    -0.330 OA 
HETATM   20  H1  UNL     1     -10.028   4.862  67.846  1.00  0.00     0.000 HD 
HETATM   21  N   UNL     1      -9.437   5.633  67.534  1.00  0.00    -0.112 N  
ENDBRANCH  16  17
ENDBRANCH   9  16
ENDBRANCH   6   7
ENDBRANCH   2   6
TORSDOF 4
ENDMDL
MODEL      164
REMARK 921   NORMALIZED FREE ENERGY PREDICTED BY IDOCK:   -3.06 KCAL/MOL
REMARK 922        TOTAL FREE ENERGY PREDICTED BY IDOCK:   -4.18 KCAL/MOL
REMARK 923 INTER-LIGAND FREE ENERGY PREDICTED BY IDOCK:   -3.88 KCAL/MOL
REMARK 924 INTRA-LIGAND FREE ENERGY PREDICTED BY IDOCK:   -0.30 KCAL/MOL
REMARK 927      BINDING AFFINITY PREDICTED BY RF-SCORE:    0.00 PKD
ROOT
HETATM    1  N   UNL     1     -11.125  18.852  65.425  1.00  0.00     0.242 N  
HETATM    2  C   UNL     1     -10.531  18.895  66.636  1.00  0.00    -0.428 C  
HETATM    3  H2  UNL     1     -10.925  19.602  64.762  1.00  0.00     0.000 HD 
HETATM    4  H1  UNL     1     -11.763  18.111  65.135  1.00  0.00     0.000 HD 
HETATM    5  O   UNL     1      -9.768  19.782  66.982  1.00  0.00    -0.335 OA 
ENDROOT
BRANCH   2   6
HETATM    6  O   UNL     1     -10.893  17.817  67.362  1.00  0.00    -0.318 OA 
BRANCH   6   7
HETATM    7  C   UNL     1     -10.533  16.537  66.805  1.00  0.00    -0.269 C  
HETATM    8  C   UNL     1     -11.461  15.417  67.320  1.00  0.00    -0.166 C  
HETATM    9  C   UNL     1     -11.108  14.057  66.693  1.00  0.00    -0.309 C  
HETATM   10  C   UNL     1     -11.450  15.332  68.843  1.00  0.00    -0.346 A  
HETATM   11  C   UNL     1     -12.641  15.505  69.564  1.00  0.00     0.037 A  
HETATM   12  C   UNL     1     -10.261  15.104  69.555  1.00  0.00    -0.241 A  
HETATM   13  C   UNL     1     -10.261  15.072  70.951  1.00  0.00     0.648 A  
HETATM   14  C   UNL     1     -12.638  15.470  70.961  1.00  0.00    -0.513 A  
HETATM   15  C   UNL     1     -11.449  15.259  71.653  1.00  0.00    -0.471 A  
BRANCH   9  16
HETATM   16  O   UNL     1     -11.211  14.120  65.259  1.00  0.00    -0.306 OA 
BRANCH  16  17
HETATM   17  C   UNL     1     -11.232  12.937  64.607  1.00  0.00    -0.320 C  
HETATM   18  H2  UNL     1     -10.754  12.045  66.456  1.00  0.00     0.000 HD 
HETATM   19  O   UNL     1     -11.480  12.759  63.426  1.00  0.00    -0.490 OA 
HETATM   20  H1  UNL     1     -10.968  11.036  64.969  1.00  0.00     0.000 HD 
HETATM   21  N   UNL     1     -10.952  11.930  65.462  1.00  0.00    -0.291 N  
ENDBRANCH  16  17
ENDBRANCH   9  16
ENDBRANCH   6   7
ENDBRANCH   2   6
TORSDOF 4
ENDMDL
MODEL      165
REMARK 921   NORMALIZED FREE ENERGY PREDICTED BY IDOCK:   -3.05 KCAL/MOL
REMARK 922        TOTAL FREE ENERGY PREDICTED BY IDOCK:   -4.16 KCAL/MOL
REMARK 923 INTER-LIGAND FREE ENERGY PREDICTED BY IDOCK:   -3.75 KCAL/MOL
REMARK 924 INTRA-LIGAND FREE ENERGY PREDICTED BY IDOCK:   -0.40 KCAL/MOL
REMARK 927      BINDING AFFINITY PREDICTED BY RF-SCORE:    0.00 PKD
ROOT
HETATM    1  N   UNL     1     -10.835  12.805  65.832  1.00  0.00    -0.265 N  
HETATM    2  C   UNL     1     -10.072  13.664  66.541  1.00  0.00    -0.286 C  
HETATM    3  H2  UNL     1     -10.912  12.947  64.825  1.00  0.00     0.000 HD 
HETATM    4  H1  UNL     1     -11.339  12.022  66.248  1.00  0.00     0.000 HD 
HETATM    5  O   UNL     1      -9.469  14.600  66.043  1.00  0.00    -0.288 OA 
ENDROOT
BRANCH   2   6
HETATM    6  O   UNL     1     -10.070  13.307  67.842  1.00  0.00    -0.223 OA 
BRANCH   6   7
HETATM    7  C   UNL     1     -10.928  12.203  68.191  1.00  0.00    -0.230 C  
HETATM    8  C   UNL     1     -10.188  11.166  69.061  1.00  0.00    -0.194 C  
HETATM    9  C   UNL     1     -11.114  10.008  69.473  1.00  0.00    -0.238 C  
HETATM   10  C   UNL     1      -8.936  10.639  68.367  1.00  0.00    -0.149 A  
HETATM   11  C   UNL     1      -7.679  10.804  68.966  1.00  0.00    -0.133 A  
HETATM   12  C   UNL     1      -9.005  10.005  67.115  1.00  0.00    -0.146 A  
HETATM   13  C   UNL     1      -7.845   9.567  66.473  1.00  0.00    -0.101 A  
HETATM   14  C   UNL     1      -6.520  10.362  68.323  1.00  0.00    -0.059 A  
HETATM   15  C   UNL     1      -6.603   9.749  67.075  1.00  0.00    -0.071 A  
BRANCH   9  16
HETATM   16  O   UNL     1     -12.246  10.505  70.209  1.00  0.00    -0.294 OA 
BRANCH  16  17
HETATM   17  C   UNL     1     -12.667   9.747  71.245  1.00  0.00    -0.369 C  
HETATM   18  H2  UNL     1     -11.462   8.209  70.454  1.00  0.00     0.000 HD 
HETATM   19  O   UNL     1     -13.425  10.087  72.138  1.00  0.00    -0.428 OA 
HETATM   20  H1  UNL     1     -12.426   7.946  71.962  1.00  0.00     0.000 HD 
HETATM   21  N   UNL     1     -12.108   8.519  71.180  1.00  0.00    -0.279 N  
ENDBRANCH  16  17
ENDBRANCH   9  16
ENDBRANCH   6   7
ENDBRANCH   2   6
TORSDOF 4
ENDMDL
MODEL      166
REMARK 921   NORMALIZED FREE ENERGY PREDICTED BY IDOCK:   -2.99 KCAL/MOL
REMARK 922        TOTAL FREE ENERGY PREDICTED BY IDOCK:   -4.09 KCAL/MOL
REMARK 923 INTER-LIGAND FREE ENERGY PREDICTED BY IDOCK:   -3.70 KCAL/MOL
REMARK 924 INTRA-LIGAND FREE ENERGY PREDICTED BY IDOCK:   -0.38 KCAL/MOL
REMARK 927      BINDING AFFINITY PREDICTED BY RF-SCORE:    0.00 PKD
ROOT
HETATM    1  N   UNL     1      -9.272   4.887  70.929  1.00  0.00    -0.140 N  
HETATM    2  C   UNL     1      -8.810   5.282  69.724  1.00  0.00    -0.104 C  
HETATM    3  H2  UNL     1      -8.918   4.012  71.319  1.00  0.00     0.000 HD 
HETATM    4  H1  UNL     1      -9.956   5.413  71.472  1.00  0.00     0.000 HD 
HETATM    5  O   UNL     1      -7.991   4.652  69.076  1.00  0.00    -0.070 OA 
ENDROOT
BRANCH   2   6
HETATM    6  O   UNL     1      -9.368   6.463  69.385  1.00  0.00    -0.141 OA 
BRANCH   6   7
HETATM    7  C   UNL     1     -10.298   7.013  70.339  1.00  0.00    -0.202 C  
HETATM    8  C   UNL     1      -9.990   8.496  70.635  1.00  0.00    -0.222 C  
HETATM    9  C   UNL     1     -11.008   9.099  71.618  1.00  0.00    -0.374 C  
HETATM   10  C   UNL     1      -8.565   8.683  71.147  1.00  0.00    -0.224 A  
HETATM   11  C   UNL     1      -7.669   9.503  70.444  1.00  0.00    -0.177 A  
HETATM   12  C   UNL     1      -8.111   8.032  72.305  1.00  0.00    -0.179 A  
HETATM   13  C   UNL     1      -6.791   8.180  72.736  1.00  0.00    -0.105 A  
HETATM   14  C   UNL     1      -6.350   9.652  70.879  1.00  0.00    -0.083 A  
HETATM   15  C   UNL     1      -5.910   8.986  72.020  1.00  0.00    -0.074 A  
BRANCH   9  16
HETATM   16  O   UNL     1     -12.342   9.003  71.087  1.00  0.00    -0.297 OA 
BRANCH  16  17
HETATM   17  C   UNL     1     -13.307   9.660  71.766  1.00  0.00    -0.419 C  
HETATM   18  H2  UNL     1     -14.260   7.792  71.981  1.00  0.00     0.000 HD 
HETATM   19  O   UNL     1     -13.340  10.853  72.017  1.00  0.00    -0.448 OA 
HETATM   20  H1  UNL     1     -14.994   9.291  72.678  1.00  0.00     0.000 HD 
HETATM   21  N   UNL     1     -14.264   8.795  72.165  1.00  0.00    -0.443 N  
ENDBRANCH  16  17
ENDBRANCH   9  16
ENDBRANCH   6   7
ENDBRANCH   2   6
TORSDOF 4
ENDMDL
MODEL      167
REMARK 921   NORMALIZED FREE ENERGY PREDICTED BY IDOCK:   -2.98 KCAL/MOL
REMARK 922        TOTAL FREE ENERGY PREDICTED BY IDOCK:   -4.08 KCAL/MOL
REMARK 923 INTER-LIGAND FREE ENERGY PREDICTED BY IDOCK:   -3.71 KCAL/MOL
REMARK 924 INTRA-LIGAND FREE ENERGY PREDICTED BY IDOCK:   -0.37 KCAL/MOL
REMARK 927      BINDING AFFINITY PREDICTED BY RF-SCORE:    0.00 PKD
ROOT
HETATM    1  N   UNL     1      -8.759   8.211  65.722  1.00  0.00    -0.157 N  
HETATM    2  C   UNL     1      -8.828   9.502  65.336  1.00  0.00    -0.178 C  
HETATM    3  H2  UNL     1      -8.433   7.521  65.044  1.00  0.00     0.000 HD 
HETATM    4  H1  UNL     1      -9.015   7.886  66.654  1.00  0.00     0.000 HD 
HETATM    5  O   UNL     1      -8.521   9.890  64.220  1.00  0.00    -0.147 OA 
ENDROOT
BRANCH   2   6
HETATM    6  O   UNL     1      -9.253  10.265  66.363  1.00  0.00    -0.153 OA 
BRANCH   6   7
HETATM    7  C   UNL     1      -8.407  11.379  66.710  1.00  0.00    -0.163 C  
HETATM    8  C   UNL     1      -9.222  12.537  67.322  1.00  0.00    -0.190 C  
HETATM    9  C   UNL     1      -8.316  13.710  67.735  1.00  0.00    -0.181 C  
HETATM   10  C   UNL     1     -10.325  13.009  66.381  1.00  0.00    -0.287 A  
HETATM   11  C   UNL     1     -11.666  12.957  66.789  1.00  0.00    -0.445 A  
HETATM   12  C   UNL     1     -10.034  13.480  65.090  1.00  0.00    -0.201 A  
HETATM   13  C   UNL     1     -11.059  13.868  64.224  1.00  0.00    -0.250 A  
HETATM   14  C   UNL     1     -12.689  13.349  65.922  1.00  0.00    -0.317 A  
HETATM   15  C   UNL     1     -12.386  13.798  64.639  1.00  0.00    -0.410 A  
BRANCH   9  16
HETATM   16  O   UNL     1      -7.335  13.277  68.695  1.00  0.00    -0.104 OA 
BRANCH  16  17
HETATM   17  C   UNL     1      -6.055  13.633  68.449  1.00  0.00    -0.096 C  
HETATM   18  H2  UNL     1      -5.645  13.087  70.443  1.00  0.00     0.000 HD 
HETATM   19  O   UNL     1      -5.604  14.051  67.395  1.00  0.00    -0.345 OA 
HETATM   20  H1  UNL     1      -4.333  13.714  69.366  1.00  0.00     0.000 HD 
HETATM   21  N   UNL     1      -5.300  13.445  69.552  1.00  0.00    -0.084 N  
ENDBRANCH  16  17
ENDBRANCH   9  16
ENDBRANCH   6   7
ENDBRANCH   2   6
TORSDOF 4
ENDMDL
MODEL      168
REMARK 921   NORMALIZED FREE ENERGY PREDICTED BY IDOCK:   -2.98 KCAL/MOL
REMARK 922        TOTAL FREE ENERGY PREDICTED BY IDOCK:   -4.07 KCAL/MOL
REMARK 923 INTER-LIGAND FREE ENERGY PREDICTED BY IDOCK:   -4.31 KCAL/MOL
REMARK 924 INTRA-LIGAND FREE ENERGY PREDICTED BY IDOCK:    0.24 KCAL/MOL
REMARK 927      BINDING AFFINITY PREDICTED BY RF-SCORE:    0.00 PKD
ROOT
HETATM    1  N   UNL     1     -11.344  16.668  70.686  1.00  0.00    -0.451 N  
HETATM    2  C   UNL     1     -11.256  15.641  69.814  1.00  0.00    -0.321 C  
HETATM    3  H2  UNL     1     -11.136  16.486  71.668  1.00  0.00     0.000 HD 
HETATM    4  H1  UNL     1     -11.606  17.616  70.417  1.00  0.00     0.000 HD 
HETATM    5  O   UNL     1     -10.942  14.507  70.136  1.00  0.00    -0.151 OA 
ENDROOT
BRANCH   2   6
HETATM    6  O   UNL     1     -11.541  16.074  68.568  1.00  0.00    -0.381 OA 
BRANCH   6   7
HETATM    7  C   UNL     1     -10.698  17.128  68.063  1.00  0.00    -0.372 C  
HETATM    8  C   UNL     1      -9.641  16.583  67.080  1.00  0.00    -0.243 C  
HETATM    9  C   UNL     1      -8.768  17.712  66.504  1.00  0.00    -0.263 C  
HETATM   10  C   UNL     1      -8.776  15.504  67.724  1.00  0.00    -0.170 A  
HETATM   11  C   UNL     1      -8.739  14.214  67.176  1.00  0.00    -0.239 A  
HETATM   12  C   UNL     1      -8.023  15.763  68.881  1.00  0.00    -0.197 A  
HETATM   13  C   UNL     1      -7.270  14.754  69.484  1.00  0.00    -0.160 A  
HETATM   14  C   UNL     1      -7.982  13.206  67.779  1.00  0.00    -0.162 A  
HETATM   15  C   UNL     1      -7.254  13.475  68.935  1.00  0.00    -0.070 A  
BRANCH   9  16
HETATM   16  O   UNL     1      -9.583  18.679  65.816  1.00  0.00    -0.440 OA 
BRANCH  16  17
HETATM   17  C   UNL     1      -9.984  19.748  66.538  1.00  0.00    -0.459 C  
HETATM   18  H2  UNL     1      -7.998  19.873  67.233  1.00  0.00     0.000 HD 
HETATM   19  O   UNL     1     -11.103  20.232  66.564  1.00  0.00     0.128 OA 
HETATM   20  H1  UNL     1      -9.250  21.056  67.788  1.00  0.00     0.000 HD 
HETATM   21  N   UNL     1      -8.947  20.248  67.243  1.00  0.00    -0.354 N  
ENDBRANCH  16  17
ENDBRANCH   9  16
ENDBRANCH   6   7
ENDBRANCH   2   6
TORSDOF 4
ENDMDL
MODEL      169
REMARK 921   NORMALIZED FREE ENERGY PREDICTED BY IDOCK:   -2.97 KCAL/MOL
REMARK 922        TOTAL FREE ENERGY PREDICTED BY IDOCK:   -4.06 KCAL/MOL
REMARK 923 INTER-LIGAND FREE ENERGY PREDICTED BY IDOCK:   -4.08 KCAL/MOL
REMARK 924 INTRA-LIGAND FREE ENERGY PREDICTED BY IDOCK:    0.02 KCAL/MOL
REMARK 927      BINDING AFFINITY PREDICTED BY RF-SCORE:    0.00 PKD
ROOT
HETATM    1  N   UNL     1     -11.774  12.468  70.275  1.00  0.00    -0.551 N  
HETATM    2  C   UNL     1     -12.438  11.315  70.051  1.00  0.00    -0.182 C  
HETATM    3  H2  UNL     1     -11.679  12.792  71.238  1.00  0.00     0.000 HD 
HETATM    4  H1  UNL     1     -11.361  13.034  69.534  1.00  0.00     0.000 HD 
HETATM    5  O   UNL     1     -12.931  10.638  70.938  1.00  0.00    -0.370 OA 
ENDROOT
BRANCH   2   6
HETATM    6  O   UNL     1     -12.442  11.037  68.731  1.00  0.00    -0.468 OA 
BRANCH   6   7
HETATM    7  C   UNL     1     -11.169  11.152  68.063  1.00  0.00    -0.296 C  
HETATM    8  C   UNL     1     -10.470   9.782  67.944  1.00  0.00    -0.288 C  
HETATM    9  C   UNL     1      -9.132   9.893  67.191  1.00  0.00    -0.138 C  
HETATM   10  C   UNL     1     -10.272   9.130  69.308  1.00  0.00    -0.215 A  
HETATM   11  C   UNL     1     -10.844   7.878  69.577  1.00  0.00    -0.141 A  
HETATM   12  C   UNL     1      -9.541   9.766  70.325  1.00  0.00    -0.264 A  
HETATM   13  C   UNL     1      -9.405   9.175  71.582  1.00  0.00    -0.132 A  
HETATM   14  C   UNL     1     -10.704   7.287  70.836  1.00  0.00    -0.251 A  
HETATM   15  C   UNL     1      -9.990   7.938  71.839  1.00  0.00    -0.234 A  
BRANCH   9  16
HETATM   16  O   UNL     1      -9.339  10.423  65.869  1.00  0.00    -0.167 OA 
BRANCH  16  17
HETATM   17  C   UNL     1      -8.317  10.278  64.997  1.00  0.00    -0.168 C  
HETATM   18  H2  UNL     1      -9.645   9.146  63.815  1.00  0.00     0.000 HD 
HETATM   19  O   UNL     1      -7.195  10.743  65.105  1.00  0.00     0.000 OA 
HETATM   20  H1  UNL     1      -7.940   9.428  63.280  1.00  0.00     0.000 HD 
HETATM   21  N   UNL     1      -8.712   9.538  63.939  1.00  0.00    -0.212 N  
ENDBRANCH  16  17
ENDBRANCH   9  16
ENDBRANCH   6   7
ENDBRANCH   2   6
TORSDOF 4
ENDMDL
MODEL      170
REMARK 921   NORMALIZED FREE ENERGY PREDICTED BY IDOCK:   -2.96 KCAL/MOL
REMARK 922        TOTAL FREE ENERGY PREDICTED BY IDOCK:   -4.05 KCAL/MOL
REMARK 923 INTER-LIGAND FREE ENERGY PREDICTED BY IDOCK:   -3.69 KCAL/MOL
REMARK 924 INTRA-LIGAND FREE ENERGY PREDICTED BY IDOCK:   -0.36 KCAL/MOL
REMARK 927      BINDING AFFINITY PREDICTED BY RF-SCORE:    0.00 PKD
ROOT
HETATM    1  N   UNL     1     -11.034  14.333  70.387  1.00  0.00    -0.436 N  
HETATM    2  C   UNL     1     -11.524  15.525  69.987  1.00  0.00    -0.331 C  
HETATM    3  H2  UNL     1     -11.689  13.640  70.753  1.00  0.00     0.000 HD 
HETATM    4  H1  UNL     1     -10.046  14.086  70.344  1.00  0.00     0.000 HD 
HETATM    5  O   UNL     1     -12.707  15.820  70.039  1.00  0.00    -0.243 OA 
ENDROOT
BRANCH   2   6
HETATM    6  O   UNL     1     -10.523  16.296  69.515  1.00  0.00    -0.265 OA 
BRANCH   6   7
HETATM    7  C   UNL     1      -9.456  15.596  68.844  1.00  0.00    -0.228 C  
HETATM    8  C   UNL     1      -8.200  16.482  68.706  1.00  0.00    -0.248 C  
HETATM    9  C   UNL     1      -7.044  15.723  68.032  1.00  0.00    -0.123 C  
HETATM   10  C   UNL     1      -8.505  17.779  67.963  1.00  0.00    -0.253 A  
HETATM   11  C   UNL     1      -8.286  19.014  68.590  1.00  0.00    -0.397 A  
HETATM   12  C   UNL     1      -9.026  17.770  66.659  1.00  0.00    -0.283 A  
HETATM   13  C   UNL     1      -9.340  18.965  66.009  1.00  0.00    -0.063 A  
HETATM   14  C   UNL     1      -8.599  20.209  67.935  1.00  0.00    -0.267 A  
HETATM   15  C   UNL     1      -9.130  20.183  66.649  1.00  0.00    -0.439 A  
BRANCH   9  16
HETATM   16  O   UNL     1      -6.700  14.549  68.790  1.00  0.00    -0.082 OA 
BRANCH  16  17
HETATM   17  C   UNL     1      -6.353  13.455  68.078  1.00  0.00    -0.132 C  
HETATM   18  H2  UNL     1      -7.968  13.919  66.805  1.00  0.00     0.000 HD 
HETATM   19  O   UNL     1      -5.421  12.702  68.305  1.00  0.00    -0.055 OA 
HETATM   20  H1  UNL     1      -6.926  12.474  66.490  1.00  0.00     0.000 HD 
HETATM   21  N   UNL     1      -7.188  13.300  67.028  1.00  0.00     0.154 N  
ENDBRANCH  16  17
ENDBRANCH   9  16
ENDBRANCH   6   7
ENDBRANCH   2   6
TORSDOF 4
ENDMDL
MODEL      171
REMARK 921   NORMALIZED FREE ENERGY PREDICTED BY IDOCK:   -2.96 KCAL/MOL
REMARK 922        TOTAL FREE ENERGY PREDICTED BY IDOCK:   -4.04 KCAL/MOL
REMARK 923 INTER-LIGAND FREE ENERGY PREDICTED BY IDOCK:   -3.64 KCAL/MOL
REMARK 924 INTRA-LIGAND FREE ENERGY PREDICTED BY IDOCK:   -0.41 KCAL/MOL
REMARK 927      BINDING AFFINITY PREDICTED BY RF-SCORE:    0.00 PKD
ROOT
HETATM    1  N   UNL     1     -12.179   6.177  72.624  1.00  0.00    -0.527 N  
HETATM    2  C   UNL     1     -11.368   5.118  72.831  1.00  0.00    -0.282 C  
HETATM    3  H2  UNL     1     -12.686   6.560  73.422  1.00  0.00     0.000 HD 
HETATM    4  H1  UNL     1     -12.314   6.615  71.713  1.00  0.00     0.000 HD 
HETATM    5  O   UNL     1     -11.208   4.595  73.921  1.00  0.00    -0.257 OA 
ENDROOT
BRANCH   2   6
HETATM    6  O   UNL     1     -10.769   4.767  71.675  1.00  0.00    -0.088 OA 
BRANCH   6   7
HETATM    7  C   UNL     1      -9.356   5.041  71.593  1.00  0.00    -0.148 C  
HETATM    8  C   UNL     1      -9.068   6.244  70.670  1.00  0.00    -0.153 C  
HETATM    9  C   UNL     1      -7.564   6.567  70.615  1.00  0.00    -0.102 C  
HETATM   10  C   UNL     1      -9.626   6.024  69.268  1.00  0.00    -0.162 A  
HETATM   11  C   UNL     1     -10.573   6.915  68.742  1.00  0.00    -0.247 A  
HETATM   12  C   UNL     1      -9.230   4.927  68.485  1.00  0.00    -0.157 A  
HETATM   13  C   UNL     1      -9.783   4.716  67.220  1.00  0.00    -0.216 A  
HETATM   14  C   UNL     1     -11.123   6.703  67.475  1.00  0.00    -0.374 A  
HETATM   15  C   UNL     1     -10.732   5.602  66.718  1.00  0.00    -0.358 A  
BRANCH   9  16
HETATM   16  O   UNL     1      -7.064   6.865  71.932  1.00  0.00    -0.072 OA 
BRANCH  16  17
HETATM   17  C   UNL     1      -7.139   8.155  72.324  1.00  0.00    -0.091 C  
HETATM   18  H2  UNL     1      -6.277   8.646  70.465  1.00  0.00     0.000 HD 
HETATM   19  O   UNL     1      -7.589   8.572  73.378  1.00  0.00    -0.325 OA 
HETATM   20  H1  UNL     1      -6.706   9.938  71.656  1.00  0.00     0.000 HD 
HETATM   21  N   UNL     1      -6.649   8.963  71.359  1.00  0.00    -0.077 N  
ENDBRANCH  16  17
ENDBRANCH   9  16
ENDBRANCH   6   7
ENDBRANCH   2   6
TORSDOF 4
ENDMDL
MODEL      172
REMARK 921   NORMALIZED FREE ENERGY PREDICTED BY IDOCK:   -2.95 KCAL/MOL
REMARK 922        TOTAL FREE ENERGY PREDICTED BY IDOCK:   -4.04 KCAL/MOL
REMARK 923 INTER-LIGAND FREE ENERGY PREDICTED BY IDOCK:   -3.54 KCAL/MOL
REMARK 924 INTRA-LIGAND FREE ENERGY PREDICTED BY IDOCK:   -0.50 KCAL/MOL
REMARK 927      BINDING AFFINITY PREDICTED BY RF-SCORE:    0.00 PKD
ROOT
HETATM    1  N   UNL     1     -12.509   7.713  72.700  1.00  0.00    -0.536 N  
HETATM    2  C   UNL     1     -12.524   8.260  71.466  1.00  0.00    -0.312 C  
HETATM    3  H2  UNL     1     -13.047   8.169  73.437  1.00  0.00     0.000 HD 
HETATM    4  H1  UNL     1     -11.989   6.868  72.936  1.00  0.00     0.000 HD 
HETATM    5  O   UNL     1     -13.147   9.271  71.184  1.00  0.00    -0.286 OA 
ENDROOT
BRANCH   2   6
HETATM    6  O   UNL     1     -11.782   7.512  70.624  1.00  0.00    -0.281 OA 
BRANCH   6   7
HETATM    7  C   UNL     1     -10.685   8.193  69.982  1.00  0.00    -0.243 C  
HETATM    8  C   UNL     1      -9.370   7.397  70.118  1.00  0.00    -0.158 C  
HETATM    9  C   UNL     1      -8.207   8.098  69.396  1.00  0.00    -0.121 C  
HETATM   10  C   UNL     1      -9.021   7.132  71.579  1.00  0.00    -0.135 A  
HETATM   11  C   UNL     1      -8.891   5.814  72.042  1.00  0.00    -0.138 A  
HETATM   12  C   UNL     1      -8.844   8.184  72.493  1.00  0.00    -0.272 A  
HETATM   13  C   UNL     1      -8.567   7.924  73.835  1.00  0.00    -0.332 A  
HETATM   14  C   UNL     1      -8.610   5.556  73.386  1.00  0.00    -0.115 A  
HETATM   15  C   UNL     1      -8.454   6.610  74.282  1.00  0.00    -0.157 A  
BRANCH   9  16
HETATM   16  O   UNL     1      -8.506   8.261  67.997  1.00  0.00    -0.130 OA 
BRANCH  16  17
HETATM   17  C   UNL     1      -8.044   7.299  67.169  1.00  0.00    -0.114 C  
HETATM   18  H2  UNL     1     -10.059   6.914  66.687  1.00  0.00     0.000 HD 
HETATM   19  O   UNL     1      -6.877   7.008  66.968  1.00  0.00    -0.063 OA 
HETATM   20  H1  UNL     1      -8.726   5.959  65.923  1.00  0.00     0.000 HD 
HETATM   21  N   UNL     1      -9.075   6.685  66.549  1.00  0.00    -0.146 N  
ENDBRANCH  16  17
ENDBRANCH   9  16
ENDBRANCH   6   7
ENDBRANCH   2   6
TORSDOF 4
ENDMDL
MODEL      173
REMARK 921   NORMALIZED FREE ENERGY PREDICTED BY IDOCK:   -2.94 KCAL/MOL
REMARK 922        TOTAL FREE ENERGY PREDICTED BY IDOCK:   -4.02 KCAL/MOL
REMARK 923 INTER-LIGAND FREE ENERGY PREDICTED BY IDOCK:   -3.68 KCAL/MOL
REMARK 924 INTRA-LIGAND FREE ENERGY PREDICTED BY IDOCK:   -0.35 KCAL/MOL
REMARK 927      BINDING AFFINITY PREDICTED BY RF-SCORE:    0.00 PKD
ROOT
HETATM    1  N   UNL     1     -11.215   4.784  65.353  1.00  0.00    -0.970 N  
HETATM    2  C   UNL     1     -10.026   4.161  65.500  1.00  0.00    -0.203 C  
HETATM    3  H2  UNL     1     -11.796   4.533  64.553  1.00  0.00     0.000 HD 
HETATM    4  H1  UNL     1     -11.564   5.492  65.999  1.00  0.00     0.000 HD 
HETATM    5  O   UNL     1      -9.609   3.314  64.728  1.00  0.00    -0.153 OA 
ENDROOT
BRANCH   2   6
HETATM    6  O   UNL     1      -9.414   4.602  66.618  1.00  0.00    -0.141 OA 
BRANCH   6   7
HETATM    7  C   UNL     1      -8.973   5.974  66.593  1.00  0.00    -0.128 C  
HETATM    8  C   UNL     1      -8.329   6.384  67.933  1.00  0.00    -0.118 C  
HETATM    9  C   UNL     1      -7.816   7.834  67.895  1.00  0.00    -0.127 C  
HETATM   10  C   UNL     1      -9.285   6.178  69.104  1.00  0.00    -0.129 A  
HETATM   11  C   UNL     1      -8.933   5.318  70.155  1.00  0.00    -0.156 A  
HETATM   12  C   UNL     1     -10.535   6.817  69.149  1.00  0.00    -0.240 A  
HETATM   13  C   UNL     1     -11.417   6.584  70.206  1.00  0.00    -0.474 A  
HETATM   14  C   UNL     1      -9.817   5.089  71.213  1.00  0.00    -0.246 A  
HETATM   15  C   UNL     1     -11.059   5.718  71.235  1.00  0.00    -0.267 A  
BRANCH   9  16
HETATM   16  O   UNL     1      -6.843   7.998  66.846  1.00  0.00    -0.069 OA 
BRANCH  16  17
HETATM   17  C   UNL     1      -6.976   9.095  66.070  1.00  0.00    -0.085 C  
HETATM   18  H2  UNL     1      -8.315   9.818  67.529  1.00  0.00     0.000 HD 
HETATM   19  O   UNL     1      -6.410   9.313  65.012  1.00  0.00    -0.065 OA 
HETATM   20  H1  UNL     1      -7.937  10.795  66.055  1.00  0.00     0.000 HD 
HETATM   21  N   UNL     1      -7.836   9.966  66.641  1.00  0.00    -0.109 N  
ENDBRANCH  16  17
ENDBRANCH   9  16
ENDBRANCH   6   7
ENDBRANCH   2   6
TORSDOF 4
ENDMDL
MODEL      174
REMARK 921   NORMALIZED FREE ENERGY PREDICTED BY IDOCK:   -2.94 KCAL/MOL
REMARK 922        TOTAL FREE ENERGY PREDICTED BY IDOCK:   -4.02 KCAL/MOL
REMARK 923 INTER-LIGAND FREE ENERGY PREDICTED BY IDOCK:   -3.65 KCAL/MOL
REMARK 924 INTRA-LIGAND FREE ENERGY PREDICTED BY IDOCK:   -0.37 KCAL/MOL
REMARK 927      BINDING AFFINITY PREDICTED BY RF-SCORE:    0.00 PKD
ROOT
HETATM    1  N   UNL     1      -6.138   9.077  71.755  1.00  0.00    -0.080 N  
HETATM    2  C   UNL     1      -6.772   8.275  70.873  1.00  0.00    -0.040 C  
HETATM    3  H2  UNL     1      -5.489   8.648  72.416  1.00  0.00     0.000 HD 
HETATM    4  H1  UNL     1      -6.272  10.086  71.798  1.00  0.00     0.000 HD 
HETATM    5  O   UNL     1      -6.611   7.067  70.823  1.00  0.00    -0.050 OA 
ENDROOT
BRANCH   2   6
HETATM    6  O   UNL     1      -7.565   9.015  70.071  1.00  0.00    -0.059 OA 
BRANCH   6   7
HETATM    7  C   UNL     1      -8.770   9.524  70.677  1.00  0.00    -0.133 C  
HETATM    8  C   UNL     1     -10.029   8.989  69.964  1.00  0.00    -0.207 C  
HETATM    9  C   UNL     1     -11.317   9.494  70.636  1.00  0.00    -0.301 C  
HETATM   10  C   UNL     1     -10.023   9.331  68.477  1.00  0.00    -0.193 A  
HETATM   11  C   UNL     1     -10.064   8.306  67.521  1.00  0.00    -0.287 A  
HETATM   12  C   UNL     1      -9.953  10.661  68.032  1.00  0.00    -0.180 A  
HETATM   13  C   UNL     1      -9.904  10.955  66.668  1.00  0.00    -0.237 A  
HETATM   14  C   UNL     1     -10.018   8.603  66.156  1.00  0.00    -0.204 A  
HETATM   15  C   UNL     1      -9.933   9.926  65.731  1.00  0.00    -0.347 A  
BRANCH   9  16
HETATM   16  O   UNL     1     -11.361   9.087  72.016  1.00  0.00    -0.364 OA 
BRANCH  16  17
HETATM   17  C   UNL     1     -11.769   7.822  72.256  1.00  0.00    -0.340 C  
HETATM   18  H2  UNL     1     -13.424   8.249  71.023  1.00  0.00     0.000 HD 
HETATM   19  O   UNL     1     -11.196   6.988  72.937  1.00  0.00    -0.276 OA 
HETATM   20  H1  UNL     1     -13.236   6.622  71.789  1.00  0.00     0.000 HD 
HETATM   21  N   UNL     1     -12.928   7.577  71.608  1.00  0.00    -0.352 N  
ENDBRANCH  16  17
ENDBRANCH   9  16
ENDBRANCH   6   7
ENDBRANCH   2   6
TORSDOF 4
ENDMDL
MODEL      175
REMARK 921   NORMALIZED FREE ENERGY PREDICTED BY IDOCK:   -2.94 KCAL/MOL
REMARK 922        TOTAL FREE ENERGY PREDICTED BY IDOCK:   -4.02 KCAL/MOL
REMARK 923 INTER-LIGAND FREE ENERGY PREDICTED BY IDOCK:   -3.72 KCAL/MOL
REMARK 924 INTRA-LIGAND FREE ENERGY PREDICTED BY IDOCK:   -0.30 KCAL/MOL
REMARK 927      BINDING AFFINITY PREDICTED BY RF-SCORE:    0.00 PKD
ROOT
HETATM    1  N   UNL     1     -10.755  11.247  69.605  1.00  0.00    -0.454 N  
HETATM    2  C   UNL     1     -11.302  10.198  70.254  1.00  0.00    -0.315 C  
HETATM    3  H2  UNL     1     -10.961  12.186  69.947  1.00  0.00     0.000 HD 
HETATM    4  H1  UNL     1     -10.149  11.153  68.791  1.00  0.00     0.000 HD 
HETATM    5  O   UNL     1     -12.028  10.311  71.228  1.00  0.00    -0.364 OA 
ENDROOT
BRANCH   2   6
HETATM    6  O   UNL     1     -10.903   9.045  69.679  1.00  0.00    -0.231 OA 
BRANCH   6   7
HETATM    7  C   UNL     1     -10.630   7.955  70.582  1.00  0.00    -0.219 C  
HETATM    8  C   UNL     1      -9.328   7.221  70.201  1.00  0.00    -0.155 C  
HETATM    9  C   UNL     1      -9.009   6.085  71.189  1.00  0.00    -0.139 C  
HETATM   10  C   UNL     1      -9.374   6.697  68.770  1.00  0.00    -0.131 A  
HETATM   11  C   UNL     1      -8.421   7.125  67.834  1.00  0.00    -0.121 A  
HETATM   12  C   UNL     1     -10.371   5.801  68.349  1.00  0.00    -0.269 A  
HETATM   13  C   UNL     1     -10.425   5.365  67.024  1.00  0.00    -0.319 A  
HETATM   14  C   UNL     1      -8.475   6.685  66.509  1.00  0.00    -0.121 A  
HETATM   15  C   UNL     1      -9.480   5.810  66.104  1.00  0.00    -0.144 A  
BRANCH   9  16
HETATM   16  O   UNL     1      -8.875   6.601  72.526  1.00  0.00    -0.129 OA 
BRANCH  16  17
HETATM   17  C   UNL     1      -9.608   5.991  73.482  1.00  0.00    -0.142 C  
HETATM   18  H2  UNL     1      -8.812   4.176  72.766  1.00  0.00     0.000 HD 
HETATM   19  O   UNL     1     -10.333   6.530  74.301  1.00  0.00    -0.349 OA 
HETATM   20  H1  UNL     1      -9.973   4.194  74.152  1.00  0.00     0.000 HD 
HETATM   21  N   UNL     1      -9.419   4.655  73.430  1.00  0.00    -0.118 N  
ENDBRANCH  16  17
ENDBRANCH   9  16
ENDBRANCH   6   7
ENDBRANCH   2   6
TORSDOF 4
ENDMDL
MODEL      176
REMARK 921   NORMALIZED FREE ENERGY PREDICTED BY IDOCK:   -2.93 KCAL/MOL
REMARK 922        TOTAL FREE ENERGY PREDICTED BY IDOCK:   -4.01 KCAL/MOL
REMARK 923 INTER-LIGAND FREE ENERGY PREDICTED BY IDOCK:   -3.71 KCAL/MOL
REMARK 924 INTRA-LIGAND FREE ENERGY PREDICTED BY IDOCK:   -0.30 KCAL/MOL
REMARK 927      BINDING AFFINITY PREDICTED BY RF-SCORE:    0.00 PKD
ROOT
HETATM    1  N   UNL     1      -9.867  10.045  64.970  1.00  0.00    -0.323 N  
HETATM    2  C   UNL     1      -9.986   9.677  66.264  1.00  0.00    -0.264 C  
HETATM    3  H2  UNL     1      -9.774  11.039  64.758  1.00  0.00     0.000 HD 
HETATM    4  H1  UNL     1      -9.865   9.384  64.194  1.00  0.00     0.000 HD 
HETATM    5  O   UNL     1      -9.988  10.468  67.192  1.00  0.00    -0.180 OA 
ENDROOT
BRANCH   2   6
HETATM    6  O   UNL     1     -10.073   8.334  66.351  1.00  0.00    -0.256 OA 
BRANCH   6   7
HETATM    7  C   UNL     1     -10.886   7.827  67.429  1.00  0.00    -0.137 C  
HETATM    8  C   UNL     1     -10.050   6.986  68.416  1.00  0.00    -0.176 C  
HETATM    9  C   UNL     1     -10.905   6.481  69.592  1.00  0.00    -0.304 C  
HETATM   10  C   UNL     1      -9.352   5.825  67.716  1.00  0.00    -0.105 A  
HETATM   11  C   UNL     1      -7.953   5.725  67.748  1.00  0.00    -0.098 A  
HETATM   12  C   UNL     1     -10.078   4.850  67.012  1.00  0.00    -0.243 A  
HETATM   13  C   UNL     1      -9.421   3.818  66.340  1.00  0.00    -0.197 A  
HETATM   14  C   UNL     1      -7.298   4.689  67.077  1.00  0.00    -0.081 A  
HETATM   15  C   UNL     1      -8.031   3.741  66.369  1.00  0.00    -0.089 A  
BRANCH   9  16
HETATM   16  O   UNL     1     -11.486   7.588  70.306  1.00  0.00    -0.248 OA 
BRANCH  16  17
HETATM   17  C   UNL     1     -12.139   7.288  71.450  1.00  0.00    -0.335 C  
HETATM   18  H2  UNL     1     -12.913   9.247  71.380  1.00  0.00     0.000 HD 
HETATM   19  O   UNL     1     -12.117   6.224  72.045  1.00  0.00    -0.337 OA 
HETATM   20  H1  UNL     1     -13.359   8.123  72.726  1.00  0.00     0.000 HD 
HETATM   21  N   UNL     1     -12.865   8.350  71.862  1.00  0.00    -0.339 N  
ENDBRANCH  16  17
ENDBRANCH   9  16
ENDBRANCH   6   7
ENDBRANCH   2   6
TORSDOF 4
ENDMDL
MODEL      177
REMARK 921   NORMALIZED FREE ENERGY PREDICTED BY IDOCK:   -2.91 KCAL/MOL
REMARK 922        TOTAL FREE ENERGY PREDICTED BY IDOCK:   -3.99 KCAL/MOL
REMARK 923 INTER-LIGAND FREE ENERGY PREDICTED BY IDOCK:   -3.59 KCAL/MOL
REMARK 924 INTRA-LIGAND FREE ENERGY PREDICTED BY IDOCK:   -0.41 KCAL/MOL
REMARK 927      BINDING AFFINITY PREDICTED BY RF-SCORE:    0.00 PKD
ROOT
HETATM    1  N   UNL     1     -12.106  13.526  68.957  1.00  0.00    -0.330 N  
HETATM    2  C   UNL     1     -10.954  13.029  68.461  1.00  0.00    -0.263 C  
HETATM    3  H2  UNL     1     -12.051  14.277  69.646  1.00  0.00     0.000 HD 
HETATM    4  H1  UNL     1     -13.030  13.192  68.681  1.00  0.00     0.000 HD 
HETATM    5  O   UNL     1      -9.850  13.429  68.791  1.00  0.00    -0.152 OA 
ENDROOT
BRANCH   2   6
HETATM    6  O   UNL     1     -11.223  12.068  67.553  1.00  0.00    -0.256 OA 
BRANCH   6   7
HETATM    7  C   UNL     1     -11.383  10.735  68.079  1.00  0.00    -0.307 C  
HETATM    8  C   UNL     1     -10.018  10.065  68.340  1.00  0.00    -0.178 C  
HETATM    9  C   UNL     1     -10.184   8.660  68.944  1.00  0.00    -0.207 C  
HETATM   10  C   UNL     1      -9.164  10.015  67.077  1.00  0.00    -0.167 A  
HETATM   11  C   UNL     1      -7.911  10.644  67.052  1.00  0.00    -0.117 A  
HETATM   12  C   UNL     1      -9.613   9.367  65.915  1.00  0.00    -0.338 A  
HETATM   13  C   UNL     1      -8.839   9.367  64.754  1.00  0.00    -0.243 A  
HETATM   14  C   UNL     1      -7.136  10.640  65.889  1.00  0.00    -0.115 A  
HETATM   15  C   UNL     1      -7.603  10.007  64.740  1.00  0.00    -0.143 A  
BRANCH   9  16
HETATM   16  O   UNL     1     -10.911   8.726  70.185  1.00  0.00    -0.226 OA 
BRANCH  16  17
HETATM   17  C   UNL     1     -10.199   8.497  71.310  1.00  0.00    -0.223 C  
HETATM   18  H2  UNL     1      -9.112   7.080  70.190  1.00  0.00     0.000 HD 
HETATM   19  O   UNL     1     -10.339   9.050  72.388  1.00  0.00    -0.174 OA 
HETATM   20  H1  UNL     1      -8.724   7.378  71.932  1.00  0.00     0.000 HD 
HETATM   21  N   UNL     1      -9.262   7.552  71.082  1.00  0.00    -0.147 N  
ENDBRANCH  16  17
ENDBRANCH   9  16
ENDBRANCH   6   7
ENDBRANCH   2   6
TORSDOF 4
ENDMDL
MODEL      178
REMARK 921   NORMALIZED FREE ENERGY PREDICTED BY IDOCK:   -2.87 KCAL/MOL
REMARK 922        TOTAL FREE ENERGY PREDICTED BY IDOCK:   -3.94 KCAL/MOL
REMARK 923 INTER-LIGAND FREE ENERGY PREDICTED BY IDOCK:   -3.70 KCAL/MOL
REMARK 924 INTRA-LIGAND FREE ENERGY PREDICTED BY IDOCK:   -0.24 KCAL/MOL
REMARK 927      BINDING AFFINITY PREDICTED BY RF-SCORE:    0.00 PKD
ROOT
HETATM    1  N   UNL     1     -11.761  15.151  65.850  1.00  0.00    -0.103 N  
HETATM    2  C   UNL     1     -10.513  14.731  65.550  1.00  0.00    -0.359 C  
HETATM    3  H2  UNL     1     -11.958  16.150  65.800  1.00  0.00     0.000 HD 
HETATM    4  H1  UNL     1     -12.516  14.523  66.125  1.00  0.00     0.000 HD 
HETATM    5  O   UNL     1      -9.610  15.482  65.221  1.00  0.00    -0.244 OA 
ENDROOT
BRANCH   2   6
HETATM    6  O   UNL     1     -10.447  13.387  65.648  1.00  0.00    -0.279 OA 
BRANCH   6   7
HETATM    7  C   UNL     1      -9.329  12.867  66.396  1.00  0.00    -0.187 C  
HETATM    8  C   UNL     1      -9.779  12.299  67.758  1.00  0.00    -0.199 C  
HETATM    9  C   UNL     1      -8.596  11.702  68.540  1.00  0.00    -0.134 C  
HETATM   10  C   UNL     1     -10.508  13.346  68.593  1.00  0.00    -0.237 A  
HETATM   11  C   UNL     1     -11.830  13.121  69.004  1.00  0.00    -0.358 A  
HETATM   12  C   UNL     1      -9.892  14.558  68.948  1.00  0.00    -0.191 A  
HETATM   13  C   UNL     1     -10.588  15.525  69.676  1.00  0.00    -0.285 A  
HETATM   14  C   UNL     1     -12.523  14.089  69.736  1.00  0.00    -0.255 A  
HETATM   15  C   UNL     1     -11.904  15.292  70.065  1.00  0.00    -0.365 A  
BRANCH   9  16
HETATM   16  O   UNL     1      -7.970  10.649  67.784  1.00  0.00    -0.108 OA 
BRANCH  16  17
HETATM   17  C   UNL     1      -8.515   9.419  67.904  1.00  0.00    -0.116 C  
HETATM   18  H2  UNL     1      -9.266   9.692  65.954  1.00  0.00     0.000 HD 
HETATM   19  O   UNL     1      -8.425   8.672  68.864  1.00  0.00    -0.126 OA 
HETATM   20  H1  UNL     1      -9.595   8.165  66.868  1.00  0.00     0.000 HD 
HETATM   21  N   UNL     1      -9.184   9.095  66.777  1.00  0.00    -0.149 N  
ENDBRANCH  16  17
ENDBRANCH   9  16
ENDBRANCH   6   7
ENDBRANCH   2   6
TORSDOF 4
ENDMDL
MODEL      179
REMARK 921   NORMALIZED FREE ENERGY PREDICTED BY IDOCK:   -2.87 KCAL/MOL
REMARK 922        TOTAL FREE ENERGY PREDICTED BY IDOCK:   -3.93 KCAL/MOL
REMARK 923 INTER-LIGAND FREE ENERGY PREDICTED BY IDOCK:   -3.75 KCAL/MOL
REMARK 924 INTRA-LIGAND FREE ENERGY PREDICTED BY IDOCK:   -0.18 KCAL/MOL
REMARK 927      BINDING AFFINITY PREDICTED BY RF-SCORE:    0.00 PKD
ROOT
HETATM    1  N   UNL     1     -11.719  14.320  70.082  1.00  0.00    -0.320 N  
HETATM    2  C   UNL     1     -10.757  15.128  70.573  1.00  0.00    -0.149 C  
HETATM    3  H2  UNL     1     -12.511  14.092  70.683  1.00  0.00     0.000 HD 
HETATM    4  H1  UNL     1     -11.697  13.923  69.142  1.00  0.00     0.000 HD 
HETATM    5  O   UNL     1     -10.783  15.602  71.697  1.00  0.00     0.044 OA 
ENDROOT
BRANCH   2   6
HETATM    6  O   UNL     1      -9.810  15.335  69.635  1.00  0.00    -0.252 OA 
BRANCH   6   7
HETATM    7  C   UNL     1     -10.288  15.767  68.345  1.00  0.00    -0.233 C  
HETATM    8  C   UNL     1      -9.302  15.385  67.222  1.00  0.00    -0.218 C  
HETATM    9  C   UNL     1      -9.831  15.805  65.839  1.00  0.00    -0.349 C  
HETATM   10  C   UNL     1      -7.914  15.966  67.470  1.00  0.00    -0.166 A  
HETATM   11  C   UNL     1      -6.807  15.112  67.589  1.00  0.00    -0.204 A  
HETATM   12  C   UNL     1      -7.711  17.349  67.607  1.00  0.00    -0.203 A  
HETATM   13  C   UNL     1      -6.441  17.861  67.877  1.00  0.00    -0.183 A  
HETATM   14  C   UNL     1      -5.536  15.627  67.856  1.00  0.00    -0.152 A  
HETATM   15  C   UNL     1      -5.355  16.999  68.006  1.00  0.00    -0.123 A  
BRANCH   9  16
HETATM   16  O   UNL     1     -11.100  15.178  65.572  1.00  0.00    -0.336 OA 
BRANCH  16  17
HETATM   17  C   UNL     1     -11.086  13.836  65.420  1.00  0.00    -0.302 C  
HETATM   18  H2  UNL     1     -10.891  14.192  63.352  1.00  0.00     0.000 HD 
HETATM   19  O   UNL     1     -11.156  13.001  66.306  1.00  0.00    -0.281 OA 
HETATM   20  H1  UNL     1     -10.953  12.504  63.999  1.00  0.00     0.000 HD 
HETATM   21  N   UNL     1     -10.963  13.518  64.114  1.00  0.00    -0.326 N  
ENDBRANCH  16  17
ENDBRANCH   9  16
ENDBRANCH   6   7
ENDBRANCH   2   6
TORSDOF 4
ENDMDL
MODEL      180
REMARK 921   NORMALIZED FREE ENERGY PREDICTED BY IDOCK:   -2.85 KCAL/MOL
REMARK 922        TOTAL FREE ENERGY PREDICTED BY IDOCK:   -3.91 KCAL/MOL
REMARK 923 INTER-LIGAND FREE ENERGY PREDICTED BY IDOCK:   -3.60 KCAL/MOL
REMARK 924 INTRA-LIGAND FREE ENERGY PREDICTED BY IDOCK:   -0.32 KCAL/MOL
REMARK 927      BINDING AFFINITY PREDICTED BY RF-SCORE:    0.00 PKD
ROOT
HETATM    1  N   UNL     1      -7.983  10.452  69.252  1.00  0.00    -0.146 N  
HETATM    2  C   UNL     1      -9.245   9.973  69.279  1.00  0.00    -0.203 C  
HETATM    3  H2  UNL     1      -7.848  11.443  69.050  1.00  0.00     0.000 HD 
HETATM    4  H1  UNL     1      -7.158   9.877  69.421  1.00  0.00     0.000 HD 
HETATM    5  O   UNL     1     -10.232  10.660  69.077  1.00  0.00    -0.196 OA 
ENDROOT
BRANCH   2   6
HETATM    6  O   UNL     1      -9.228   8.658  69.583  1.00  0.00    -0.153 OA 
BRANCH   6   7
HETATM    7  C   UNL     1     -10.305   8.195  70.423  1.00  0.00    -0.206 C  
HETATM    8  C   UNL     1      -9.974   8.383  71.918  1.00  0.00    -0.331 C  
HETATM    9  C   UNL     1     -11.138   7.932  72.816  1.00  0.00    -0.400 C  
HETATM   10  C   UNL     1      -8.683   7.668  72.303  1.00  0.00    -0.160 A  
HETATM   11  C   UNL     1      -7.607   8.397  72.831  1.00  0.00    -0.120 A  
HETATM   12  C   UNL     1      -8.530   6.283  72.121  1.00  0.00    -0.112 A  
HETATM   13  C   UNL     1      -7.327   5.650  72.438  1.00  0.00    -0.095 A  
HETATM   14  C   UNL     1      -6.405   7.760  73.151  1.00  0.00    -0.066 A  
HETATM   15  C   UNL     1      -6.264   6.390  72.949  1.00  0.00    -0.055 A  
BRANCH   9  16
HETATM   16  O   UNL     1     -12.331   8.678  72.510  1.00  0.00    -0.390 OA 
BRANCH  16  17
HETATM   17  C   UNL     1     -13.347   7.984  71.955  1.00  0.00    -0.306 C  
HETATM   18  H2  UNL     1     -14.429   9.793  71.961  1.00  0.00     0.000 HD 
HETATM   19  O   UNL     1     -13.348   6.800  71.661  1.00  0.00    -0.293 OA 
HETATM   20  H1  UNL     1     -15.171   8.274  71.318  1.00  0.00     0.000 HD 
HETATM   21  N   UNL     1     -14.403   8.798  71.738  1.00  0.00    -0.366 N  
ENDBRANCH  16  17
ENDBRANCH   9  16
ENDBRANCH   6   7
ENDBRANCH   2   6
TORSDOF 4
ENDMDL
MODEL      181
REMARK 921   NORMALIZED FREE ENERGY PREDICTED BY IDOCK:   -2.85 KCAL/MOL
REMARK 922        TOTAL FREE ENERGY PREDICTED BY IDOCK:   -3.91 KCAL/MOL
REMARK 923 INTER-LIGAND FREE ENERGY PREDICTED BY IDOCK:   -3.57 KCAL/MOL
REMARK 924 INTRA-LIGAND FREE ENERGY PREDICTED BY IDOCK:   -0.34 KCAL/MOL
REMARK 927      BINDING AFFINITY PREDICTED BY RF-SCORE:    0.00 PKD
ROOT
HETATM    1  N   UNL     1      -7.264   9.443  68.253  1.00  0.00    -0.076 N  
HETATM    2  C   UNL     1      -8.575   9.157  68.397  1.00  0.00    -0.129 C  
HETATM    3  H2  UNL     1      -7.007  10.270  67.714  1.00  0.00     0.000 HD 
HETATM    4  H1  UNL     1      -6.516   8.877  68.653  1.00  0.00     0.000 HD 
HETATM    5  O   UNL     1      -9.470   9.835  67.918  1.00  0.00    -0.131 OA 
ENDROOT
BRANCH   2   6
HETATM    6  O   UNL     1      -8.722   8.051  69.154  1.00  0.00    -0.136 OA 
BRANCH   6   7
HETATM    7  C   UNL     1      -8.859   6.810  68.432  1.00  0.00    -0.122 C  
HETATM    8  C   UNL     1     -10.309   6.284  68.487  1.00  0.00    -0.238 C  
HETATM    9  C   UNL     1     -10.469   4.984  67.680  1.00  0.00    -0.005 C  
HETATM   10  C   UNL     1     -10.784   6.092  69.924  1.00  0.00    -0.393 A  
HETATM   11  C   UNL     1     -11.906   6.792  70.391  1.00  0.00    -0.395 A  
HETATM   12  C   UNL     1     -10.108   5.239  70.811  1.00  0.00    -0.294 A  
HETATM   13  C   UNL     1     -10.530   5.107  72.135  1.00  0.00    -0.281 A  
HETATM   14  C   UNL     1     -12.328   6.656  71.716  1.00  0.00    -0.385 A  
HETATM   15  C   UNL     1     -11.637   5.819  72.588  1.00  0.00    -0.304 A  
BRANCH   9  16
HETATM   16  O   UNL     1     -10.107   5.197  66.303  1.00  0.00    -0.191 OA 
BRANCH  16  17
HETATM   17  C   UNL     1      -9.540   4.151  65.663  1.00  0.00    -0.188 C  
HETATM   18  H2  UNL     1      -9.604   5.337  63.921  1.00  0.00     0.000 HD 
HETATM   19  O   UNL     1      -9.214   3.084  66.155  1.00  0.00    -0.148 OA 
HETATM   20  H1  UNL     1      -8.925   3.661  63.876  1.00  0.00     0.000 HD 
HETATM   21  N   UNL     1      -9.353   4.451  64.359  1.00  0.00    -0.152 N  
ENDBRANCH  16  17
ENDBRANCH   9  16
ENDBRANCH   6   7
ENDBRANCH   2   6
TORSDOF 4
ENDMDL
MODEL      182
REMARK 921   NORMALIZED FREE ENERGY PREDICTED BY IDOCK:   -2.84 KCAL/MOL
REMARK 922        TOTAL FREE ENERGY PREDICTED BY IDOCK:   -3.91 KCAL/MOL
REMARK 923 INTER-LIGAND FREE ENERGY PREDICTED BY IDOCK:   -3.56 KCAL/MOL
REMARK 924 INTRA-LIGAND FREE ENERGY PREDICTED BY IDOCK:   -0.34 KCAL/MOL
REMARK 927      BINDING AFFINITY PREDICTED BY RF-SCORE:    0.00 PKD
ROOT
HETATM    1  N   UNL     1      -7.788   6.470  67.151  1.00  0.00    -0.107 N  
HETATM    2  C   UNL     1      -8.711   7.296  66.613  1.00  0.00    -0.132 C  
HETATM    3  H2  UNL     1      -7.157   5.976  66.520  1.00  0.00     0.000 HD 
HETATM    4  H1  UNL     1      -7.687   6.313  68.153  1.00  0.00     0.000 HD 
HETATM    5  O   UNL     1      -8.831   7.483  65.414  1.00  0.00    -0.059 OA 
ENDROOT
BRANCH   2   6
HETATM    6  O   UNL     1      -9.434   7.875  67.594  1.00  0.00    -0.141 OA 
BRANCH   6   7
HETATM    7  C   UNL     1      -9.640   9.296  67.466  1.00  0.00    -0.149 C  
HETATM    8  C   UNL     1      -9.163  10.051  68.724  1.00  0.00    -0.159 C  
HETATM    9  C   UNL     1      -9.340  11.571  68.572  1.00  0.00    -0.170 C  
HETATM   10  C   UNL     1      -9.863   9.546  69.982  1.00  0.00    -0.269 A  
HETATM   11  C   UNL     1      -9.111   9.011  71.037  1.00  0.00    -0.322 A  
HETATM   12  C   UNL     1     -11.262   9.583  70.106  1.00  0.00    -0.275 A  
HETATM   13  C   UNL     1     -11.890   9.077  71.246  1.00  0.00    -0.379 A  
HETATM   14  C   UNL     1      -9.742   8.508  72.179  1.00  0.00    -0.387 A  
HETATM   15  C   UNL     1     -11.130   8.537  72.279  1.00  0.00    -0.430 A  
BRANCH   9  16
HETATM   16  O   UNL     1      -8.600  12.055  67.437  1.00  0.00    -0.156 OA 
BRANCH  16  17
HETATM   17  C   UNL     1      -7.450  12.711  67.705  1.00  0.00    -0.143 C  
HETATM   18  H2  UNL     1      -8.609  14.012  68.891  1.00  0.00     0.000 HD 
HETATM   19  O   UNL     1      -6.335  12.427  67.299  1.00  0.00    -0.149 OA 
HETATM   20  H1  UNL     1      -6.824  14.251  68.729  1.00  0.00     0.000 HD 
HETATM   21  N   UNL     1      -7.692  13.755  68.526  1.00  0.00    -0.136 N  
ENDBRANCH  16  17
ENDBRANCH   9  16
ENDBRANCH   6   7
ENDBRANCH   2   6
TORSDOF 4
ENDMDL
MODEL      183
REMARK 921   NORMALIZED FREE ENERGY PREDICTED BY IDOCK:   -2.84 KCAL/MOL
REMARK 922        TOTAL FREE ENERGY PREDICTED BY IDOCK:   -3.91 KCAL/MOL
REMARK 923 INTER-LIGAND FREE ENERGY PREDICTED BY IDOCK:   -3.43 KCAL/MOL
REMARK 924 INTRA-LIGAND FREE ENERGY PREDICTED BY IDOCK:   -0.48 KCAL/MOL
REMARK 927      BINDING AFFINITY PREDICTED BY RF-SCORE:    0.00 PKD
ROOT
HETATM    1  N   UNL     1     -11.383  11.796  69.697  1.00  0.00    -0.427 N  
HETATM    2  C   UNL     1     -11.765  10.675  70.344  1.00  0.00    -0.353 C  
HETATM    3  H2  UNL     1     -11.677  12.696  70.076  1.00  0.00     0.000 HD 
HETATM    4  H1  UNL     1     -10.816  11.792  68.850  1.00  0.00     0.000 HD 
HETATM    5  O   UNL     1     -12.443  10.679  71.358  1.00  0.00    -0.368 OA 
ENDROOT
BRANCH   2   6
HETATM    6  O   UNL     1     -11.266   9.591  69.716  1.00  0.00    -0.223 OA 
BRANCH   6   7
HETATM    7  C   UNL     1     -10.649   8.602  70.565  1.00  0.00    -0.217 C  
HETATM    8  C   UNL     1      -9.218   9.016  70.965  1.00  0.00    -0.331 C  
HETATM    9  C   UNL     1      -8.574   7.985  71.908  1.00  0.00    -0.137 C  
HETATM   10  C   UNL     1      -8.339   9.257  69.743  1.00  0.00    -0.143 A  
HETATM   11  C   UNL     1      -7.749  10.513  69.539  1.00  0.00    -0.141 A  
HETATM   12  C   UNL     1      -8.117   8.249  68.789  1.00  0.00    -0.115 A  
HETATM   13  C   UNL     1      -7.345   8.499  67.654  1.00  0.00    -0.089 A  
HETATM   14  C   UNL     1      -6.974  10.760  68.403  1.00  0.00    -0.070 A  
HETATM   15  C   UNL     1      -6.777   9.755  67.459  1.00  0.00    -0.070 A  
BRANCH   9  16
HETATM   16  O   UNL     1      -9.362   7.831  73.103  1.00  0.00    -0.201 OA 
BRANCH  16  17
HETATM   17  C   UNL     1      -9.600   6.564  73.507  1.00  0.00    -0.158 C  
HETATM   18  H2  UNL     1     -11.583   6.857  72.855  1.00  0.00     0.000 HD 
HETATM   19  O   UNL     1      -8.794   5.791  73.997  1.00  0.00    -0.123 OA 
HETATM   20  H1  UNL     1     -11.069   5.280  73.579  1.00  0.00     0.000 HD 
HETATM   21  N   UNL     1     -10.889   6.237  73.274  1.00  0.00    -0.260 N  
ENDBRANCH  16  17
ENDBRANCH   9  16
ENDBRANCH   6   7
ENDBRANCH   2   6
TORSDOF 4
ENDMDL
MODEL      184
REMARK 921   NORMALIZED FREE ENERGY PREDICTED BY IDOCK:   -2.83 KCAL/MOL
REMARK 922        TOTAL FREE ENERGY PREDICTED BY IDOCK:   -3.89 KCAL/MOL
REMARK 923 INTER-LIGAND FREE ENERGY PREDICTED BY IDOCK:   -3.52 KCAL/MOL
REMARK 924 INTRA-LIGAND FREE ENERGY PREDICTED BY IDOCK:   -0.37 KCAL/MOL
REMARK 927      BINDING AFFINITY PREDICTED BY RF-SCORE:    0.00 PKD
ROOT
HETATM    1  N   UNL     1      -8.138   4.914  67.414  1.00  0.00    -0.105 N  
HETATM    2  C   UNL     1      -8.031   6.123  68.004  1.00  0.00    -0.110 C  
HETATM    3  H2  UNL     1      -7.281   4.402  67.205  1.00  0.00     0.000 HD 
HETATM    4  H1  UNL     1      -9.029   4.484  67.166  1.00  0.00     0.000 HD 
HETATM    5  O   UNL     1      -6.966   6.637  68.301  1.00  0.00    -0.071 OA 
ENDROOT
BRANCH   2   6
HETATM    6  O   UNL     1      -9.260   6.636  68.223  1.00  0.00    -0.124 OA 
BRANCH   6   7
HETATM    7  C   UNL     1      -9.422   7.372  69.452  1.00  0.00    -0.155 C  
HETATM    8  C   UNL     1     -10.405   8.548  69.279  1.00  0.00    -0.227 C  
HETATM    9  C   UNL     1     -10.616   9.309  70.600  1.00  0.00    -0.262 C  
HETATM   10  C   UNL     1      -9.958   9.497  68.172  1.00  0.00    -0.191 A  
HETATM   11  C   UNL     1     -10.791   9.729  67.067  1.00  0.00    -0.165 A  
HETATM   12  C   UNL     1      -8.709  10.138  68.217  1.00  0.00    -0.120 A  
HETATM   13  C   UNL     1      -8.296  10.970  67.175  1.00  0.00    -0.132 A  
HETATM   14  C   UNL     1     -10.376  10.565  66.026  1.00  0.00    -0.279 A  
HETATM   15  C   UNL     1      -9.128  11.180  66.078  1.00  0.00    -0.217 A  
BRANCH   9  16
HETATM   16  O   UNL     1     -11.127   8.426  71.615  1.00  0.00    -0.248 OA 
BRANCH  16  17
HETATM   17  C   UNL     1     -12.472   8.352  71.725  1.00  0.00    -0.335 C  
HETATM   18  H2  UNL     1     -12.323   6.458  70.812  1.00  0.00     0.000 HD 
HETATM   19  O   UNL     1     -13.210   9.189  72.217  1.00  0.00    -0.408 OA 
HETATM   20  H1  UNL     1     -13.931   7.126  71.302  1.00  0.00     0.000 HD 
HETATM   21  N   UNL     1     -12.916   7.182  71.218  1.00  0.00    -0.371 N  
ENDBRANCH  16  17
ENDBRANCH   9  16
ENDBRANCH   6   7
ENDBRANCH   2   6
TORSDOF 4
ENDMDL
MODEL      185
REMARK 921   NORMALIZED FREE ENERGY PREDICTED BY IDOCK:   -2.81 KCAL/MOL
REMARK 922        TOTAL FREE ENERGY PREDICTED BY IDOCK:   -3.87 KCAL/MOL
REMARK 923 INTER-LIGAND FREE ENERGY PREDICTED BY IDOCK:   -3.50 KCAL/MOL
REMARK 924 INTRA-LIGAND FREE ENERGY PREDICTED BY IDOCK:   -0.37 KCAL/MOL
REMARK 927      BINDING AFFINITY PREDICTED BY RF-SCORE:    0.00 PKD
ROOT
HETATM    1  N   UNL     1      -6.553   6.380  69.401  1.00  0.00    -0.042 N  
HETATM    2  C   UNL     1      -7.000   6.470  68.131  1.00  0.00    -0.077 C  
HETATM    3  H2  UNL     1      -6.315   5.457  69.764  1.00  0.00     0.000 HD 
HETATM    4  H1  UNL     1      -6.441   7.184  70.018  1.00  0.00     0.000 HD 
HETATM    5  O   UNL     1      -7.134   5.508  67.393  1.00  0.00    -0.070 OA 
ENDROOT
BRANCH   2   6
HETATM    6  O   UNL     1      -7.239   7.761  67.820  1.00  0.00    -0.088 OA 
BRANCH   6   7
HETATM    7  C   UNL     1      -8.269   7.989  66.837  1.00  0.00    -0.115 C  
HETATM    8  C   UNL     1      -9.398   8.876  67.398  1.00  0.00    -0.165 C  
HETATM    9  C   UNL     1     -10.476   9.159  66.337  1.00  0.00    -0.071 C  
HETATM   10  C   UNL     1     -10.019   8.271  68.654  1.00  0.00    -0.203 A  
HETATM   11  C   UNL     1      -9.994   8.983  69.862  1.00  0.00    -0.203 A  
HETATM   12  C   UNL     1     -10.603   6.993  68.639  1.00  0.00    -0.238 A  
HETATM   13  C   UNL     1     -11.127   6.436  69.806  1.00  0.00    -0.459 A  
HETATM   14  C   UNL     1     -10.523   8.423  71.028  1.00  0.00    -0.251 A  
HETATM   15  C   UNL     1     -11.084   7.149  71.001  1.00  0.00    -0.287 A  
BRANCH   9  16
HETATM   16  O   UNL     1      -9.899   9.815  65.194  1.00  0.00    -0.315 OA 
BRANCH  16  17
HETATM   17  C   UNL     1     -10.215  11.118  65.027  1.00  0.00    -0.296 C  
HETATM   18  H2  UNL     1     -11.144  10.537  63.226  1.00  0.00     0.000 HD 
HETATM   19  O   UNL     1      -9.954  12.035  65.786  1.00  0.00    -0.232 OA 
HETATM   20  H1  UNL     1     -11.140  12.269  63.749  1.00  0.00     0.000 HD 
HETATM   21  N   UNL     1     -10.901  11.285  63.875  1.00  0.00    -0.383 N  
ENDBRANCH  16  17
ENDBRANCH   9  16
ENDBRANCH   6   7
ENDBRANCH   2   6
TORSDOF 4
ENDMDL
MODEL      186
REMARK 921   NORMALIZED FREE ENERGY PREDICTED BY IDOCK:   -2.81 KCAL/MOL
REMARK 922        TOTAL FREE ENERGY PREDICTED BY IDOCK:   -3.86 KCAL/MOL
REMARK 923 INTER-LIGAND FREE ENERGY PREDICTED BY IDOCK:   -3.49 KCAL/MOL
REMARK 924 INTRA-LIGAND FREE ENERGY PREDICTED BY IDOCK:   -0.37 KCAL/MOL
REMARK 927      BINDING AFFINITY PREDICTED BY RF-SCORE:    0.00 PKD
ROOT
HETATM    1  N   UNL     1     -10.447   5.031  71.523  1.00  0.00    -0.189 N  
HETATM    2  C   UNL     1      -9.950   5.163  70.275  1.00  0.00    -0.250 C  
HETATM    3  H2  UNL     1      -9.862   4.586  72.231  1.00  0.00     0.000 HD 
HETATM    4  H1  UNL     1     -11.375   5.352  71.797  1.00  0.00     0.000 HD 
HETATM    5  O   UNL     1      -8.839   4.779  69.947  1.00  0.00    -0.087 OA 
ENDROOT
BRANCH   2   6
HETATM    6  O   UNL     1     -10.848   5.791  69.489  1.00  0.00    -0.325 OA 
BRANCH   6   7
HETATM    7  C   UNL     1     -10.409   7.035  68.906  1.00  0.00    -0.190 C  
HETATM    8  C   UNL     1     -10.706   7.084  67.393  1.00  0.00    -0.383 C  
HETATM    9  C   UNL     1     -10.281   8.428  66.776  1.00  0.00    -0.306 C  
HETATM   10  C   UNL     1     -10.058   5.918  66.653  1.00  0.00    -0.229 A  
HETATM   11  C   UNL     1     -10.853   5.015  65.932  1.00  0.00    -0.123 A  
HETATM   12  C   UNL     1      -8.670   5.707  66.692  1.00  0.00    -0.118 A  
HETATM   13  C   UNL     1      -8.096   4.611  66.046  1.00  0.00    -0.103 A  
HETATM   14  C   UNL     1     -10.276   3.920  65.284  1.00  0.00    -0.080 A  
HETATM   15  C   UNL     1      -8.900   3.715  65.346  1.00  0.00    -0.123 A  
BRANCH   9  16
HETATM   16  O   UNL     1     -10.968   9.518  67.417  1.00  0.00    -0.232 OA 
BRANCH  16  17
HETATM   17  C   UNL     1     -10.595  10.763  67.047  1.00  0.00    -0.260 C  
HETATM   18  H2  UNL     1     -12.214  11.461  68.203  1.00  0.00     0.000 HD 
HETATM   19  O   UNL     1      -9.648  11.060  66.338  1.00  0.00    -0.189 OA 
HETATM   20  H1  UNL     1     -11.140  12.618  67.318  1.00  0.00     0.000 HD 
HETATM   21  N   UNL     1     -11.422  11.678  67.597  1.00  0.00    -0.305 N  
ENDBRANCH  16  17
ENDBRANCH   9  16
ENDBRANCH   6   7
ENDBRANCH   2   6
TORSDOF 4
ENDMDL
MODEL      187
REMARK 921   NORMALIZED FREE ENERGY PREDICTED BY IDOCK:   -2.79 KCAL/MOL
REMARK 922        TOTAL FREE ENERGY PREDICTED BY IDOCK:   -3.84 KCAL/MOL
REMARK 923 INTER-LIGAND FREE ENERGY PREDICTED BY IDOCK:   -3.47 KCAL/MOL
REMARK 924 INTRA-LIGAND FREE ENERGY PREDICTED BY IDOCK:   -0.37 KCAL/MOL
REMARK 927      BINDING AFFINITY PREDICTED BY RF-SCORE:    0.00 PKD
ROOT
HETATM    1  N   UNL     1      -6.044   9.259  70.182  1.00  0.00    -0.034 N  
HETATM    2  C   UNL     1      -6.366   9.412  68.880  1.00  0.00    -0.043 C  
HETATM    3  H2  UNL     1      -5.305   8.598  70.422  1.00  0.00     0.000 HD 
HETATM    4  H1  UNL     1      -6.498   9.769  70.939  1.00  0.00     0.000 HD 
HETATM    5  O   UNL     1      -5.822   8.801  67.975  1.00  0.00    -0.044 OA 
ENDROOT
BRANCH   2   6
HETATM    6  O   UNL     1      -7.339  10.338  68.755  1.00  0.00    -0.078 OA 
BRANCH   6   7
HETATM    7  C   UNL     1      -8.493  10.153  69.599  1.00  0.00    -0.157 C  
HETATM    8  C   UNL     1      -9.641   9.458  68.839  1.00  0.00    -0.155 C  
HETATM    9  C   UNL     1     -10.858   9.219  69.750  1.00  0.00    -0.224 C  
HETATM   10  C   UNL     1     -10.043  10.236  67.591  1.00  0.00    -0.229 A  
HETATM   11  C   UNL     1      -9.958   9.631  66.329  1.00  0.00    -0.335 A  
HETATM   12  C   UNL     1     -10.481  11.569  67.667  1.00  0.00    -0.218 A  
HETATM   13  C   UNL     1     -10.803  12.282  66.511  1.00  0.00    -0.297 A  
HETATM   14  C   UNL     1     -10.284  10.346  65.173  1.00  0.00    -0.326 A  
HETATM   15  C   UNL     1     -10.701  11.671  65.265  1.00  0.00    -0.346 A  
BRANCH   9  16
HETATM   16  O   UNL     1     -10.492   8.404  70.879  1.00  0.00    -0.190 OA 
BRANCH  16  17
HETATM   17  C   UNL     1     -11.104   7.203  70.976  1.00  0.00    -0.260 C  
HETATM   18  H2  UNL     1      -9.216   6.345  70.598  1.00  0.00     0.000 HD 
HETATM   19  O   UNL     1     -12.283   7.002  71.214  1.00  0.00    -0.339 OA 
HETATM   20  H1  UNL     1     -10.671   5.303  70.861  1.00  0.00     0.000 HD 
HETATM   21  N   UNL     1     -10.209   6.210  70.787  1.00  0.00    -0.192 N  
ENDBRANCH  16  17
ENDBRANCH   9  16
ENDBRANCH   6   7
ENDBRANCH   2   6
TORSDOF 4
ENDMDL
MODEL      188
REMARK 921   NORMALIZED FREE ENERGY PREDICTED BY IDOCK:   -2.76 KCAL/MOL
REMARK 922        TOTAL FREE ENERGY PREDICTED BY IDOCK:   -3.80 KCAL/MOL
REMARK 923 INTER-LIGAND FREE ENERGY PREDICTED BY IDOCK:   -3.52 KCAL/MOL
REMARK 924 INTRA-LIGAND FREE ENERGY PREDICTED BY IDOCK:   -0.28 KCAL/MOL
REMARK 927      BINDING AFFINITY PREDICTED BY RF-SCORE:    0.00 PKD
ROOT
HETATM    1  N   UNL     1     -12.085  12.133  64.557  1.00  0.00    -0.361 N  
HETATM    2  C   UNL     1     -12.248  13.420  64.931  1.00  0.00    -0.408 C  
HETATM    3  H2  UNL     1     -12.915  11.593  64.310  1.00  0.00     0.000 HD 
HETATM    4  H1  UNL     1     -11.177  11.671  64.509  1.00  0.00     0.000 HD 
HETATM    5  O   UNL     1     -13.334  13.973  64.988  1.00  0.00    -0.578 OA 
ENDROOT
BRANCH   2   6
HETATM    6  O   UNL     1     -11.048  13.976  65.195  1.00  0.00    -0.314 OA 
BRANCH   6   7
HETATM    7  C   UNL     1     -11.079  15.214  65.933  1.00  0.00    -0.319 C  
HETATM    8  C   UNL     1      -9.670  15.620  66.412  1.00  0.00    -0.302 C  
HETATM    9  C   UNL     1      -9.693  16.964  67.160  1.00  0.00    -0.253 C  
HETATM   10  C   UNL     1      -9.031  14.533  67.269  1.00  0.00    -0.220 A  
HETATM   11  C   UNL     1      -7.819  13.949  66.874  1.00  0.00     0.275 A  
HETATM   12  C   UNL     1      -9.643  14.076  68.449  1.00  0.00    -0.222 A  
HETATM   13  C   UNL     1      -9.067  13.050  69.200  1.00  0.00     0.689 A  
HETATM   14  C   UNL     1      -7.243  12.924  67.629  1.00  0.00    -0.147 A  
HETATM   15  C   UNL     1      -7.870  12.472  68.787  1.00  0.00     0.031 A  
BRANCH   9  16
HETATM   16  O   UNL     1     -10.211  18.006  66.312  1.00  0.00    -0.363 OA 
BRANCH  16  17
HETATM   17  C   UNL     1     -10.450  19.197  66.903  1.00  0.00    -0.437 C  
HETATM   18  H2  UNL     1     -11.000  19.898  64.993  1.00  0.00     0.000 HD 
HETATM   19  O   UNL     1     -10.328  19.462  68.087  1.00  0.00    -0.408 OA 
HETATM   20  H1  UNL     1     -11.058  20.992  66.432  1.00  0.00     0.000 HD 
HETATM   21  N   UNL     1     -10.877  20.093  65.986  1.00  0.00    -0.184 N  
ENDBRANCH  16  17
ENDBRANCH   9  16
ENDBRANCH   6   7
ENDBRANCH   2   6
TORSDOF 4
ENDMDL
MODEL      189
REMARK 921   NORMALIZED FREE ENERGY PREDICTED BY IDOCK:   -2.75 KCAL/MOL
REMARK 922        TOTAL FREE ENERGY PREDICTED BY IDOCK:   -3.79 KCAL/MOL
REMARK 923 INTER-LIGAND FREE ENERGY PREDICTED BY IDOCK:   -3.51 KCAL/MOL
REMARK 924 INTRA-LIGAND FREE ENERGY PREDICTED BY IDOCK:   -0.27 KCAL/MOL
REMARK 927      BINDING AFFINITY PREDICTED BY RF-SCORE:    0.00 PKD
ROOT
HETATM    1  N   UNL     1      -7.629  16.443  67.650  1.00  0.00    -0.136 N  
HETATM    2  C   UNL     1      -8.074  15.404  68.387  1.00  0.00    -0.140 C  
HETATM    3  H2  UNL     1      -7.208  17.235  68.136  1.00  0.00     0.000 HD 
HETATM    4  H1  UNL     1      -7.689  16.480  66.632  1.00  0.00     0.000 HD 
HETATM    5  O   UNL     1      -8.002  15.361  69.604  1.00  0.00    -0.222 OA 
ENDROOT
BRANCH   2   6
HETATM    6  O   UNL     1      -8.572  14.448  67.576  1.00  0.00    -0.168 OA 
BRANCH   6   7
HETATM    7  C   UNL     1      -9.326  13.405  68.226  1.00  0.00    -0.205 C  
HETATM    8  C   UNL     1      -9.652  12.254  67.251  1.00  0.00    -0.187 C  
HETATM    9  C   UNL     1     -10.417  11.118  67.953  1.00  0.00    -0.190 C  
HETATM   10  C   UNL     1     -10.419  12.751  66.031  1.00  0.00    -0.291 A  
HETATM   11  C   UNL     1      -9.886  12.574  64.746  1.00  0.00    -0.084 A  
HETATM   12  C   UNL     1     -11.653  13.412  66.159  1.00  0.00    -0.378 A  
HETATM   13  C   UNL     1     -12.322  13.899  65.035  1.00  0.00    -0.452 A  
HETATM   14  C   UNL     1     -10.559  13.060  63.622  1.00  0.00    -0.024 A  
HETATM   15  C   UNL     1     -11.772  13.727  63.768  1.00  0.00    -0.219 A  
BRANCH   9  16
HETATM   16  O   UNL     1      -9.645  10.591  69.047  1.00  0.00    -0.187 OA 
BRANCH  16  17
HETATM   17  C   UNL     1     -10.111   9.459  69.620  1.00  0.00    -0.206 C  
HETATM   18  H2  UNL     1      -9.471   8.458  67.879  1.00  0.00     0.000 HD 
HETATM   19  O   UNL     1     -10.628   9.357  70.719  1.00  0.00    -0.254 OA 
HETATM   20  H1  UNL     1     -10.262   7.552  69.230  1.00  0.00     0.000 HD 
HETATM   21  N   UNL     1      -9.910   8.407  68.798  1.00  0.00    -0.169 N  
ENDBRANCH  16  17
ENDBRANCH   9  16
ENDBRANCH   6   7
ENDBRANCH   2   6
TORSDOF 4
ENDMDL
MODEL      190
REMARK 921   NORMALIZED FREE ENERGY PREDICTED BY IDOCK:   -2.72 KCAL/MOL
REMARK 922        TOTAL FREE ENERGY PREDICTED BY IDOCK:   -3.76 KCAL/MOL
REMARK 923 INTER-LIGAND FREE ENERGY PREDICTED BY IDOCK:   -3.42 KCAL/MOL
REMARK 924 INTRA-LIGAND FREE ENERGY PREDICTED BY IDOCK:   -0.33 KCAL/MOL
REMARK 927      BINDING AFFINITY PREDICTED BY RF-SCORE:    0.00 PKD
ROOT
HETATM    1  N   UNL     1      -7.805   9.673  68.201  1.00  0.00    -0.086 N  
HETATM    2  C   UNL     1      -9.055   9.178  68.079  1.00  0.00    -0.131 C  
HETATM    3  H2  UNL     1      -7.586  10.552  67.731  1.00  0.00     0.000 HD 
HETATM    4  H1  UNL     1      -7.068   9.217  68.738  1.00  0.00     0.000 HD 
HETATM    5  O   UNL     1      -9.937   9.724  67.436  1.00  0.00    -0.172 OA 
ENDROOT
BRANCH   2   6
HETATM    6  O   UNL     1      -9.164   8.032  68.782  1.00  0.00    -0.144 OA 
BRANCH   6   7
HETATM    7  C   UNL     1      -8.455   7.997  70.037  1.00  0.00    -0.129 C  
HETATM    8  C   UNL     1      -9.229   7.187  71.099  1.00  0.00    -0.157 C  
HETATM    9  C   UNL     1      -8.454   7.110  72.426  1.00  0.00    -0.112 C  
HETATM   10  C   UNL     1     -10.631   7.745  71.321  1.00  0.00    -0.241 A  
HETATM   11  C   UNL     1     -11.753   6.934  71.094  1.00  0.00    -0.381 A  
HETATM   12  C   UNL     1     -10.835   9.073  71.731  1.00  0.00    -0.437 A  
HETATM   13  C   UNL     1     -12.126   9.580  71.889  1.00  0.00    -0.409 A  
HETATM   14  C   UNL     1     -13.044   7.444  71.255  1.00  0.00    -0.349 A  
HETATM   15  C   UNL     1     -13.229   8.767  71.646  1.00  0.00    -0.399 A  
BRANCH   9  16
HETATM   16  O   UNL     1      -7.167   6.497  72.225  1.00  0.00    -0.083 OA 
BRANCH  16  17
HETATM   17  C   UNL     1      -7.066   5.192  72.558  1.00  0.00    -0.086 C  
HETATM   18  H2  UNL     1      -5.367   5.734  73.681  1.00  0.00     0.000 HD 
HETATM   19  O   UNL     1      -7.812   4.291  72.214  1.00  0.00    -0.082 OA 
HETATM   20  H1  UNL     1      -5.925   4.015  73.619  1.00  0.00     0.000 HD 
HETATM   21  N   UNL     1      -6.002   5.000  73.367  1.00  0.00    -0.025 N  
ENDBRANCH  16  17
ENDBRANCH   9  16
ENDBRANCH   6   7
ENDBRANCH   2   6
TORSDOF 4
ENDMDL
MODEL      191
REMARK 921   NORMALIZED FREE ENERGY PREDICTED BY IDOCK:   -2.72 KCAL/MOL
REMARK 922        TOTAL FREE ENERGY PREDICTED BY IDOCK:   -3.75 KCAL/MOL
REMARK 923 INTER-LIGAND FREE ENERGY PREDICTED BY IDOCK:   -3.41 KCAL/MOL
REMARK 924 INTRA-LIGAND FREE ENERGY PREDICTED BY IDOCK:   -0.34 KCAL/MOL
REMARK 927      BINDING AFFINITY PREDICTED BY RF-SCORE:    0.00 PKD
ROOT
HETATM    1  N   UNL     1      -8.591   6.213  74.091  1.00  0.00    -0.115 N  
HETATM    2  C   UNL     1      -8.024   6.046  72.877  1.00  0.00    -0.106 C  
HETATM    3  H2  UNL     1      -7.989   6.175  74.914  1.00  0.00     0.000 HD 
HETATM    4  H1  UNL     1      -9.588   6.376  74.230  1.00  0.00     0.000 HD 
HETATM    5  O   UNL     1      -6.832   5.851  72.711  1.00  0.00    -0.072 OA 
ENDROOT
BRANCH   2   6
HETATM    6  O   UNL     1      -8.964   6.152  71.915  1.00  0.00    -0.140 OA 
BRANCH   6   7
HETATM    7  C   UNL     1      -9.885   7.251  72.057  1.00  0.00    -0.161 C  
HETATM    8  C   UNL     1     -10.176   7.922  70.698  1.00  0.00    -0.199 C  
HETATM    9  C   UNL     1     -11.194   9.067  70.839  1.00  0.00    -0.287 C  
HETATM   10  C   UNL     1      -8.898   8.412  70.027  1.00  0.00    -0.137 A  
HETATM   11  C   UNL     1      -8.535   7.922  68.764  1.00  0.00    -0.128 A  
HETATM   12  C   UNL     1      -8.048   9.337  70.656  1.00  0.00    -0.207 A  
HETATM   13  C   UNL     1      -6.860   9.743  70.047  1.00  0.00    -0.097 A  
HETATM   14  C   UNL     1      -7.346   8.333  68.155  1.00  0.00    -0.096 A  
HETATM   15  C   UNL     1      -6.507   9.238  68.799  1.00  0.00    -0.048 A  
BRANCH   9  16
HETATM   16  O   UNL     1     -12.432   8.578  71.387  1.00  0.00    -0.308 OA 
BRANCH  16  17
HETATM   17  C   UNL     1     -13.278   9.507  71.882  1.00  0.00    -0.439 C  
HETATM   18  H2  UNL     1     -14.568   7.908  72.353  1.00  0.00     0.000 HD 
HETATM   19  O   UNL     1     -13.095  10.712  71.923  1.00  0.00    -0.469 OA 
HETATM   20  H1  UNL     1     -15.030   9.615  72.737  1.00  0.00     0.000 HD 
HETATM   21  N   UNL     1     -14.391   8.913  72.362  1.00  0.00    -0.403 N  
ENDBRANCH  16  17
ENDBRANCH   9  16
ENDBRANCH   6   7
ENDBRANCH   2   6
TORSDOF 4
ENDMDL
MODEL      192
REMARK 921   NORMALIZED FREE ENERGY PREDICTED BY IDOCK:   -2.67 KCAL/MOL
REMARK 922        TOTAL FREE ENERGY PREDICTED BY IDOCK:   -3.69 KCAL/MOL
REMARK 923 INTER-LIGAND FREE ENERGY PREDICTED BY IDOCK:   -3.37 KCAL/MOL
REMARK 924 INTRA-LIGAND FREE ENERGY PREDICTED BY IDOCK:   -0.32 KCAL/MOL
REMARK 927      BINDING AFFINITY PREDICTED BY RF-SCORE:    0.00 PKD
ROOT
HETATM    1  N   UNL     1      -8.128   5.637  67.164  1.00  0.00    -0.102 N  
HETATM    2  C   UNL     1      -8.054   6.805  67.837  1.00  0.00    -0.114 C  
HETATM    3  H2  UNL     1      -7.518   4.873  67.455  1.00  0.00     0.000 HD 
HETATM    4  H1  UNL     1      -8.761   5.476  66.381  1.00  0.00     0.000 HD 
HETATM    5  O   UNL     1      -7.297   6.996  68.774  1.00  0.00    -0.088 OA 
ENDROOT
BRANCH   2   6
HETATM    6  O   UNL     1      -8.945   7.682  67.330  1.00  0.00    -0.126 OA 
BRANCH   6   7
HETATM    7  C   UNL     1      -8.900   9.012  67.885  1.00  0.00    -0.129 C  
HETATM    8  C   UNL     1      -9.453  10.055  66.892  1.00  0.00    -0.203 C  
HETATM    9  C   UNL     1      -9.448  11.470  67.497  1.00  0.00    -0.169 C  
HETATM   10  C   UNL     1      -8.695  10.030  65.568  1.00  0.00    -0.171 A  
HETATM   11  C   UNL     1      -9.379   9.760  64.374  1.00  0.00    -0.278 A  
HETATM   12  C   UNL     1      -7.309  10.250  65.513  1.00  0.00    -0.149 A  
HETATM   13  C   UNL     1      -6.624  10.180  64.299  1.00  0.00    -0.114 A  
HETATM   14  C   UNL     1      -8.691   9.694  63.159  1.00  0.00    -0.236 A  
HETATM   15  C   UNL     1      -7.314   9.898  63.123  1.00  0.00    -0.130 A  
BRANCH   9  16
HETATM   16  O   UNL     1     -10.243  11.508  68.697  1.00  0.00    -0.204 OA 
BRANCH  16  17
HETATM   17  C   UNL     1     -11.476  12.047  68.583  1.00  0.00    -0.297 C  
HETATM   18  H2  UNL     1     -11.380  12.407  70.658  1.00  0.00     0.000 HD 
HETATM   19  O   UNL     1     -12.131  12.161  67.561  1.00  0.00    -0.534 OA 
HETATM   20  H1  UNL     1     -12.839  12.885  69.702  1.00  0.00     0.000 HD 
HETATM   21  N   UNL     1     -11.908  12.478  69.788  1.00  0.00    -0.328 N  
ENDBRANCH  16  17
ENDBRANCH   9  16
ENDBRANCH   6   7
ENDBRANCH   2   6
TORSDOF 4
ENDMDL
MODEL      193
REMARK 921   NORMALIZED FREE ENERGY PREDICTED BY IDOCK:   -2.63 KCAL/MOL
REMARK 922        TOTAL FREE ENERGY PREDICTED BY IDOCK:   -3.64 KCAL/MOL
REMARK 923 INTER-LIGAND FREE ENERGY PREDICTED BY IDOCK:   -3.24 KCAL/MOL
REMARK 924 INTRA-LIGAND FREE ENERGY PREDICTED BY IDOCK:   -0.40 KCAL/MOL
REMARK 927      BINDING AFFINITY PREDICTED BY RF-SCORE:    0.00 PKD
ROOT
HETATM    1  N   UNL     1      -8.793   3.630  70.681  1.00  0.00    -0.074 N  
HETATM    2  C   UNL     1      -7.575   4.013  70.242  1.00  0.00    -0.045 C  
HETATM    3  H2  UNL     1      -8.841   2.919  71.411  1.00  0.00     0.000 HD 
HETATM    4  H1  UNL     1      -9.668   4.013  70.323  1.00  0.00     0.000 HD 
HETATM    5  O   UNL     1      -6.529   3.555  70.671  1.00  0.00    -0.029 OA 
ENDROOT
BRANCH   2   6
HETATM    6  O   UNL     1      -7.708   4.971  69.302  1.00  0.00    -0.073 OA 
BRANCH   6   7
HETATM    7  C   UNL     1      -8.653   4.690  68.250  1.00  0.00    -0.098 C  
HETATM    8  C   UNL     1      -9.382   5.969  67.790  1.00  0.00    -0.106 C  
HETATM    9  C   UNL     1     -10.359   5.681  66.637  1.00  0.00    -0.256 C  
HETATM   10  C   UNL     1     -10.099   6.656  68.949  1.00  0.00    -0.178 A  
HETATM   11  C   UNL     1      -9.767   7.973  69.298  1.00  0.00    -0.167 A  
HETATM   12  C   UNL     1     -11.081   5.990  69.701  1.00  0.00    -0.474 A  
HETATM   13  C   UNL     1     -11.696   6.617  70.785  1.00  0.00    -0.445 A  
HETATM   14  C   UNL     1     -10.387   8.600  70.382  1.00  0.00    -0.225 A  
HETATM   15  C   UNL     1     -11.346   7.920  71.128  1.00  0.00    -0.289 A  
BRANCH   9  16
HETATM   16  O   UNL     1      -9.659   5.119  65.511  1.00  0.00    -0.136 OA 
BRANCH  16  17
HETATM   17  C   UNL     1     -10.232   4.047  64.923  1.00  0.00    -0.200 C  
HETATM   18  H2  UNL     1      -8.399   3.052  65.225  1.00  0.00     0.000 HD 
HETATM   19  O   UNL     1     -11.374   3.969  64.502  1.00  0.00    -0.295 OA 
HETATM   20  H1  UNL     1      -9.787   2.211  64.427  1.00  0.00     0.000 HD 
HETATM   21  N   UNL     1      -9.355   3.021  64.872  1.00  0.00    -0.148 N  
ENDBRANCH  16  17
ENDBRANCH   9  16
ENDBRANCH   6   7
ENDBRANCH   2   6
TORSDOF 4
ENDMDL
MODEL      194
REMARK 921   NORMALIZED FREE ENERGY PREDICTED BY IDOCK:   -2.54 KCAL/MOL
REMARK 922        TOTAL FREE ENERGY PREDICTED BY IDOCK:   -3.53 KCAL/MOL
REMARK 923 INTER-LIGAND FREE ENERGY PREDICTED BY IDOCK:   -3.12 KCAL/MOL
REMARK 924 INTRA-LIGAND FREE ENERGY PREDICTED BY IDOCK:   -0.41 KCAL/MOL
REMARK 927      BINDING AFFINITY PREDICTED BY RF-SCORE:    0.00 PKD
ROOT
HETATM    1  N   UNL     1      -8.277   8.300  69.790  1.00  0.00    -0.118 N  
HETATM    2  C   UNL     1      -9.502   8.524  70.311  1.00  0.00    -0.166 C  
HETATM    3  H2  UNL     1      -7.570   9.029  69.889  1.00  0.00     0.000 HD 
HETATM    4  H1  UNL     1      -8.020   7.443  69.301  1.00  0.00     0.000 HD 
HETATM    5  O   UNL     1      -9.809   9.550  70.895  1.00  0.00    -0.275 OA 
ENDROOT
BRANCH   2   6
HETATM    6  O   UNL     1     -10.290   7.449  70.106  1.00  0.00    -0.206 OA 
BRANCH   6   7
HETATM    7  C   UNL     1      -9.640   6.294  69.538  1.00  0.00    -0.147 C  
HETATM    8  C   UNL     1     -10.092   4.994  70.236  1.00  0.00    -0.339 C  
HETATM    9  C   UNL     1      -9.434   3.755  69.603  1.00  0.00    -0.188 C  
HETATM   10  C   UNL     1      -9.829   5.040  71.737  1.00  0.00    -0.234 A  
HETATM   11  C   UNL     1     -10.893   4.908  72.641  1.00  0.00    -0.264 A  
HETATM   12  C   UNL     1      -8.535   5.236  72.249  1.00  0.00    -0.125 A  
HETATM   13  C   UNL     1      -8.317   5.319  73.625  1.00  0.00    -0.112 A  
HETATM   14  C   UNL     1     -10.672   4.988  74.018  1.00  0.00    -0.341 A  
HETATM   15  C   UNL     1      -9.386   5.200  74.509  1.00  0.00    -0.132 A  
BRANCH   9  16
HETATM   16  O   UNL     1      -9.764   3.667  68.205  1.00  0.00    -0.137 OA 
BRANCH  16  17
HETATM   17  C   UNL     1      -8.811   3.158  67.394  1.00  0.00    -0.137 C  
HETATM   18  H2  UNL     1      -9.984   1.408  67.315  1.00  0.00     0.000 HD 
HETATM   19  O   UNL     1      -7.798   3.721  67.015  1.00  0.00    -0.083 OA 
HETATM   20  H1  UNL     1      -8.420   1.516  66.412  1.00  0.00     0.000 HD 
HETATM   21  N   UNL     1      -9.140   1.901  67.025  1.00  0.00    -0.114 N  
ENDBRANCH  16  17
ENDBRANCH   9  16
ENDBRANCH   6   7
ENDBRANCH   2   6
TORSDOF 4
ENDMDL
MODEL      195
REMARK 921   NORMALIZED FREE ENERGY PREDICTED BY IDOCK:   -2.51 KCAL/MOL
REMARK 922        TOTAL FREE ENERGY PREDICTED BY IDOCK:   -3.49 KCAL/MOL
REMARK 923 INTER-LIGAND FREE ENERGY PREDICTED BY IDOCK:   -3.10 KCAL/MOL
REMARK 924 INTRA-LIGAND FREE ENERGY PREDICTED BY IDOCK:   -0.39 KCAL/MOL
REMARK 927      BINDING AFFINITY PREDICTED BY RF-SCORE:    0.00 PKD
ROOT
HETATM    1  N   UNL     1      -9.826   9.663  70.797  1.00  0.00    -0.317 N  
HETATM    2  C   UNL     1      -9.773   8.328  70.989  1.00  0.00    -0.163 C  
HETATM    3  H2  UNL     1     -10.305  10.233  71.496  1.00  0.00     0.000 HD 
HETATM    4  H1  UNL     1      -9.415  10.134  69.992  1.00  0.00     0.000 HD 
HETATM    5  O   UNL     1     -10.266   7.765  71.953  1.00  0.00    -0.191 OA 
ENDROOT
BRANCH   2   6
HETATM    6  O   UNL     1      -9.086   7.748  69.983  1.00  0.00    -0.149 OA 
BRANCH   6   7
HETATM    7  C   UNL     1      -9.882   7.079  68.985  1.00  0.00    -0.154 C  
HETATM    8  C   UNL     1      -9.413   7.435  67.559  1.00  0.00    -0.162 C  
HETATM    9  C   UNL     1     -10.231   6.688  66.491  1.00  0.00    -0.059 C  
HETATM   10  C   UNL     1      -9.448   8.940  67.314  1.00  0.00    -0.195 A  
HETATM   11  C   UNL     1      -8.271   9.623  66.972  1.00  0.00    -0.117 A  
HETATM   12  C   UNL     1     -10.637   9.677  67.444  1.00  0.00    -0.333 A  
HETATM   13  C   UNL     1     -10.643  11.060  67.258  1.00  0.00    -0.287 A  
HETATM   14  C   UNL     1      -8.280  11.008  66.784  1.00  0.00    -0.149 A  
HETATM   15  C   UNL     1      -9.464  11.725  66.933  1.00  0.00    -0.200 A  
BRANCH   9  16
HETATM   16  O   UNL     1     -10.117   5.265  66.673  1.00  0.00    -0.179 OA 
BRANCH  16  17
HETATM   17  C   UNL     1      -9.687   4.556  65.606  1.00  0.00    -0.199 C  
HETATM   18  H2  UNL     1     -11.632   4.778  64.825  1.00  0.00     0.000 HD 
HETATM   19  O   UNL     1      -8.565   4.112  65.430  1.00  0.00    -0.115 OA 
HETATM   20  H1  UNL     1     -10.363   3.874  63.906  1.00  0.00     0.000 HD 
HETATM   21  N   UNL     1     -10.688   4.409  64.712  1.00  0.00    -0.131 N  
ENDBRANCH  16  17
ENDBRANCH   9  16
ENDBRANCH   6   7
ENDBRANCH   2   6
TORSDOF 4
ENDMDL
MODEL      196
REMARK 921   NORMALIZED FREE ENERGY PREDICTED BY IDOCK:   -2.50 KCAL/MOL
REMARK 922        TOTAL FREE ENERGY PREDICTED BY IDOCK:   -3.49 KCAL/MOL
REMARK 923 INTER-LIGAND FREE ENERGY PREDICTED BY IDOCK:   -3.40 KCAL/MOL
REMARK 924 INTRA-LIGAND FREE ENERGY PREDICTED BY IDOCK:   -0.09 KCAL/MOL
REMARK 927      BINDING AFFINITY PREDICTED BY RF-SCORE:    0.00 PKD
ROOT
HETATM    1  N   UNL     1      -9.657  10.616  65.021  1.00  0.00    -0.241 N  
HETATM    2  C   UNL     1     -10.068  10.366  66.282  1.00  0.00    -0.231 C  
HETATM    3  H2  UNL     1      -9.302  11.548  64.805  1.00  0.00     0.000 HD 
HETATM    4  H1  UNL     1      -9.683   9.926  64.271  1.00  0.00     0.000 HD 
HETATM    5  O   UNL     1     -10.037  11.192  67.178  1.00  0.00    -0.183 OA 
ENDROOT
BRANCH   2   6
HETATM    6  O   UNL     1     -10.479   9.085  66.383  1.00  0.00    -0.215 OA 
BRANCH   6   7
HETATM    7  C   UNL     1     -10.876   8.656  67.701  1.00  0.00    -0.010 C  
HETATM    8  C   UNL     1      -9.812   7.741  68.340  1.00  0.00    -0.180 C  
HETATM    9  C   UNL     1     -10.212   7.318  69.764  1.00  0.00    -0.210 C  
HETATM   10  C   UNL     1      -9.523   6.520  67.473  1.00  0.00    -0.131 A  
HETATM   11  C   UNL     1      -8.226   6.291  66.991  1.00  0.00    -0.109 A  
HETATM   12  C   UNL     1     -10.539   5.617  67.118  1.00  0.00    -0.344 A  
HETATM   13  C   UNL     1     -10.268   4.528  66.288  1.00  0.00    -0.270 A  
HETATM   14  C   UNL     1      -7.956   5.199  66.162  1.00  0.00    -0.104 A  
HETATM   15  C   UNL     1      -8.978   4.322  65.807  1.00  0.00    -0.129 A  
BRANCH   9  16
HETATM   16  O   UNL     1     -10.391   8.474  70.603  1.00  0.00    -0.192 OA 
BRANCH  16  17
HETATM   17  C   UNL     1      -9.290   8.930  71.239  1.00  0.00    -0.266 C  
HETATM   18  H2  UNL     1      -8.780   9.874  69.425  1.00  0.00     0.000 HD 
HETATM   19  O   UNL     1      -8.985   8.731  72.403  1.00  0.00    -0.379 OA 
HETATM   20  H1  UNL     1      -7.714  10.025  70.879  1.00  0.00     0.000 HD 
HETATM   21  N   UNL     1      -8.546   9.680  70.399  1.00  0.00    -0.202 N  
ENDBRANCH  16  17
ENDBRANCH   9  16
ENDBRANCH   6   7
ENDBRANCH   2   6
TORSDOF 4
ENDMDL
MODEL      197
REMARK 921   NORMALIZED FREE ENERGY PREDICTED BY IDOCK:   -2.48 KCAL/MOL
REMARK 922        TOTAL FREE ENERGY PREDICTED BY IDOCK:   -3.46 KCAL/MOL
REMARK 923 INTER-LIGAND FREE ENERGY PREDICTED BY IDOCK:   -3.13 KCAL/MOL
REMARK 924 INTRA-LIGAND FREE ENERGY PREDICTED BY IDOCK:   -0.33 KCAL/MOL
REMARK 927      BINDING AFFINITY PREDICTED BY RF-SCORE:    0.00 PKD
ROOT
HETATM    1  N   UNL     1      -8.885   6.871  74.533  1.00  0.00    -0.185 N  
HETATM    2  C   UNL     1      -8.466   6.636  73.271  1.00  0.00    -0.119 C  
HETATM    3  H2  UNL     1      -8.184   6.922  75.272  1.00  0.00     0.000 HD 
HETATM    4  H1  UNL     1      -9.864   6.999  74.787  1.00  0.00     0.000 HD 
HETATM    5  O   UNL     1      -7.295   6.482  72.967  1.00  0.00    -0.085 OA 
ENDROOT
BRANCH   2   6
HETATM    6  O   UNL     1      -9.523   6.626  72.433  1.00  0.00    -0.149 OA 
BRANCH   6   7
HETATM    7  C   UNL     1      -9.779   7.860  71.733  1.00  0.00    -0.170 C  
HETATM    8  C   UNL     1     -10.504   7.609  70.394  1.00  0.00    -0.221 C  
HETATM    9  C   UNL     1     -10.819   8.927  69.665  1.00  0.00    -0.178 C  
HETATM   10  C   UNL     1      -9.712   6.667  69.493  1.00  0.00    -0.156 A  
HETATM   11  C   UNL     1     -10.281   5.456  69.070  1.00  0.00    -0.291 A  
HETATM   12  C   UNL     1      -8.402   6.970  69.086  1.00  0.00    -0.125 A  
HETATM   13  C   UNL     1      -7.676   6.077  68.297  1.00  0.00    -0.102 A  
HETATM   14  C   UNL     1      -9.553   4.565  68.278  1.00  0.00    -0.203 A  
HETATM   15  C   UNL     1      -8.249   4.874  67.897  1.00  0.00    -0.100 A  
BRANCH   9  16
HETATM   16  O   UNL     1     -11.645   9.773  70.486  1.00  0.00    -0.268 OA 
BRANCH  16  17
HETATM   17  C   UNL     1     -11.831  11.037  70.049  1.00  0.00    -0.355 C  
HETATM   18  H2  UNL     1     -12.102  10.206  68.131  1.00  0.00     0.000 HD 
HETATM   19  O   UNL     1     -11.812  12.053  70.723  1.00  0.00    -0.186 OA 
HETATM   20  H1  UNL     1     -12.209  11.993  68.389  1.00  0.00     0.000 HD 
HETATM   21  N   UNL     1     -12.068  11.038  68.719  1.00  0.00    -0.235 N  
ENDBRANCH  16  17
ENDBRANCH   9  16
ENDBRANCH   6   7
ENDBRANCH   2   6
TORSDOF 4
ENDMDL
MODEL      198
REMARK 921   NORMALIZED FREE ENERGY PREDICTED BY IDOCK:   -2.46 KCAL/MOL
REMARK 922        TOTAL FREE ENERGY PREDICTED BY IDOCK:   -3.43 KCAL/MOL
REMARK 923 INTER-LIGAND FREE ENERGY PREDICTED BY IDOCK:   -3.12 KCAL/MOL
REMARK 924 INTRA-LIGAND FREE ENERGY PREDICTED BY IDOCK:   -0.31 KCAL/MOL
REMARK 927      BINDING AFFINITY PREDICTED BY RF-SCORE:    0.00 PKD
ROOT
HETATM    1  N   UNL     1      -9.297   9.160  64.721  1.00  0.00    -0.434 N  
HETATM    2  C   UNL     1      -8.119   8.505  64.799  1.00  0.00    -0.151 C  
HETATM    3  H2  UNL     1      -9.346   9.999  64.142  1.00  0.00     0.000 HD 
HETATM    4  H1  UNL     1     -10.141   8.863  65.210  1.00  0.00     0.000 HD 
HETATM    5  O   UNL     1      -7.110   8.861  64.214  1.00  0.00    -0.088 OA 
ENDROOT
BRANCH   2   6
HETATM    6  O   UNL     1      -8.252   7.417  65.584  1.00  0.00    -0.125 OA 
BRANCH   6   7
HETATM    7  C   UNL     1      -9.479   7.332  66.336  1.00  0.00    -0.127 C  
HETATM    8  C   UNL     1      -9.525   6.052  67.197  1.00  0.00    -0.125 C  
HETATM    9  C   UNL     1     -10.813   5.981  68.035  1.00  0.00    -0.287 C  
HETATM   10  C   UNL     1      -9.359   4.796  66.348  1.00  0.00    -0.146 A  
HETATM   11  C   UNL     1      -8.292   3.919  66.592  1.00  0.00    -0.104 A  
HETATM   12  C   UNL     1     -10.245   4.499  65.299  1.00  0.00    -0.186 A  
HETATM   13  C   UNL     1     -10.055   3.368  64.504  1.00  0.00    -0.121 A  
HETATM   14  C   UNL     1      -8.106   2.786  65.796  1.00  0.00    -0.087 A  
HETATM   15  C   UNL     1      -8.983   2.514  64.750  1.00  0.00    -0.125 A  
BRANCH   9  16
HETATM   16  O   UNL     1     -10.915   7.125  68.903  1.00  0.00    -0.170 OA 
BRANCH  16  17
HETATM   17  C   UNL     1     -11.126   6.868  70.212  1.00  0.00    -0.297 C  
HETATM   18  H2  UNL     1     -11.335   8.950  70.464  1.00  0.00     0.000 HD 
HETATM   19  O   UNL     1     -11.149   5.772  70.747  1.00  0.00    -0.275 OA 
HETATM   20  H1  UNL     1     -11.495   7.827  71.873  1.00  0.00     0.000 HD 
HETATM   21  N   UNL     1     -11.336   8.021  70.884  1.00  0.00    -0.275 N  
ENDBRANCH  16  17
ENDBRANCH   9  16
ENDBRANCH   6   7
ENDBRANCH   2   6
TORSDOF 4
ENDMDL
MODEL      199
REMARK 921   NORMALIZED FREE ENERGY PREDICTED BY IDOCK:   -2.41 KCAL/MOL
REMARK 922        TOTAL FREE ENERGY PREDICTED BY IDOCK:   -3.37 KCAL/MOL
REMARK 923 INTER-LIGAND FREE ENERGY PREDICTED BY IDOCK:   -2.95 KCAL/MOL
REMARK 924 INTRA-LIGAND FREE ENERGY PREDICTED BY IDOCK:   -0.43 KCAL/MOL
REMARK 927      BINDING AFFINITY PREDICTED BY RF-SCORE:    0.00 PKD
ROOT
HETATM    1  N   UNL     1      -9.972   4.804  72.464  1.00  0.00    -0.160 N  
HETATM    2  C   UNL     1      -8.949   4.714  71.588  1.00  0.00    -0.133 C  
HETATM    3  H2  UNL     1     -10.041   4.100  73.200  1.00  0.00     0.000 HD 
HETATM    4  H1  UNL     1     -10.681   5.536  72.431  1.00  0.00     0.000 HD 
HETATM    5  O   UNL     1      -8.102   3.838  71.629  1.00  0.00    -0.064 OA 
ENDROOT
BRANCH   2   6
HETATM    6  O   UNL     1      -9.008   5.736  70.710  1.00  0.00    -0.144 OA 
BRANCH   6   7
HETATM    7  C   UNL     1      -7.867   6.616  70.694  1.00  0.00    -0.106 C  
HETATM    8  C   UNL     1      -8.106   7.865  71.567  1.00  0.00    -0.117 C  
HETATM    9  C   UNL     1      -6.873   8.785  71.589  1.00  0.00    -0.078 C  
HETATM   10  C   UNL     1      -9.348   8.633  71.123  1.00  0.00    -0.274 A  
HETATM   11  C   UNL     1     -10.409   8.830  72.019  1.00  0.00    -0.411 A  
HETATM   12  C   UNL     1      -9.470   9.136  69.817  1.00  0.00    -0.191 A  
HETATM   13  C   UNL     1     -10.630   9.799  69.414  1.00  0.00    -0.248 A  
HETATM   14  C   UNL     1     -11.568   9.496  71.614  1.00  0.00    -0.451 A  
HETATM   15  C   UNL     1     -11.680   9.975  70.311  1.00  0.00    -0.327 A  
BRANCH   9  16
HETATM   16  O   UNL     1      -5.726   8.080  72.097  1.00  0.00    -0.036 OA 
BRANCH  16  17
HETATM   17  C   UNL     1      -5.588   8.048  73.441  1.00  0.00    -0.048 C  
HETATM   18  H2  UNL     1      -5.896   5.968  73.303  1.00  0.00     0.000 HD 
HETATM   19  O   UNL     1      -5.361   8.997  74.173  1.00  0.00    -0.105 OA 
HETATM   20  H1  UNL     1      -5.614   6.758  74.906  1.00  0.00     0.000 HD 
HETATM   21  N   UNL     1      -5.719   6.782  73.891  1.00  0.00    -0.054 N  
ENDBRANCH  16  17
ENDBRANCH   9  16
ENDBRANCH   6   7
ENDBRANCH   2   6
TORSDOF 4
ENDMDL
MODEL      200
REMARK 921   NORMALIZED FREE ENERGY PREDICTED BY IDOCK:   -2.36 KCAL/MOL
REMARK 922        TOTAL FREE ENERGY PREDICTED BY IDOCK:   -3.31 KCAL/MOL
REMARK 923 INTER-LIGAND FREE ENERGY PREDICTED BY IDOCK:   -3.04 KCAL/MOL
REMARK 924 INTRA-LIGAND FREE ENERGY PREDICTED BY IDOCK:   -0.27 KCAL/MOL
REMARK 927      BINDING AFFINITY PREDICTED BY RF-SCORE:    0.00 PKD
ROOT
HETATM    1  N   UNL     1     -11.161  16.254  64.244  1.00  0.00    -0.622 N  
HETATM    2  C   UNL     1     -10.966  16.457  65.564  1.00  0.00    -0.119 C  
HETATM    3  H2  UNL     1     -10.674  16.863  63.585  1.00  0.00     0.000 HD 
HETATM    4  H1  UNL     1     -11.769  15.527  63.868  1.00  0.00     0.000 HD 
HETATM    5  O   UNL     1     -10.239  17.327  66.013  1.00  0.00    -0.397 OA 
ENDROOT
BRANCH   2   6
HETATM    6  O   UNL     1     -11.668  15.549  66.274  1.00  0.00     0.079 OA 
BRANCH   6   7
HETATM    7  C   UNL     1     -10.937  14.865  67.312  1.00  0.00    -0.323 C  
HETATM    8  C   UNL     1      -9.753  14.063  66.732  1.00  0.00    -0.283 C  
HETATM    9  C   UNL     1      -8.945  13.367  67.841  1.00  0.00    -0.201 C  
HETATM   10  C   UNL     1     -10.215  13.055  65.684  1.00  0.00    -0.296 A  
HETATM   11  C   UNL     1      -9.722  13.131  64.373  1.00  0.00     0.279 A  
HETATM   12  C   UNL     1     -11.149  12.053  65.993  1.00  0.00    -0.364 A  
HETATM   13  C   UNL     1     -11.594  11.166  65.012  1.00  0.00     0.355 A  
HETATM   14  C   UNL     1     -10.167  12.239  63.393  1.00  0.00    -0.360 A  
HETATM   15  C   UNL     1     -11.106  11.262  63.712  1.00  0.00    -0.313 A  
BRANCH   9  16
HETATM   16  O   UNL     1      -8.433  14.335  68.776  1.00  0.00    -0.155 OA 
BRANCH  16  17
HETATM   17  C   UNL     1      -7.108  14.281  69.030  1.00  0.00    -0.116 C  
HETATM   18  H2  UNL     1      -6.978  16.179  68.123  1.00  0.00     0.000 HD 
HETATM   19  O   UNL     1      -6.508  13.380  69.592  1.00  0.00    -0.110 OA 
HETATM   20  H1  UNL     1      -5.502  15.364  68.777  1.00  0.00     0.000 HD 
HETATM   21  N   UNL     1      -6.503  15.404  68.585  1.00  0.00    -0.093 N  
ENDBRANCH  16  17
ENDBRANCH   9  16
ENDBRANCH   6   7
ENDBRANCH   2   6
TORSDOF 4
ENDMDL
MODEL      201
REMARK 921   NORMALIZED FREE ENERGY PREDICTED BY IDOCK:   -2.35 KCAL/MOL
REMARK 922        TOTAL FREE ENERGY PREDICTED BY IDOCK:   -3.30 KCAL/MOL
REMARK 923 INTER-LIGAND FREE ENERGY PREDICTED BY IDOCK:   -2.99 KCAL/MOL
REMARK 924 INTRA-LIGAND FREE ENERGY PREDICTED BY IDOCK:   -0.31 KCAL/MOL
REMARK 927      BINDING AFFINITY PREDICTED BY RF-SCORE:    0.00 PKD
ROOT
HETATM    1  N   UNL     1      -8.023  11.871  69.232  1.00  0.00    -0.316 N  
HETATM    2  C   UNL     1      -8.982  12.145  68.323  1.00  0.00    -0.186 C  
HETATM    3  H2  UNL     1      -7.357  11.126  69.022  1.00  0.00     0.000 HD 
HETATM    4  H1  UNL     1      -7.927  12.366  70.118  1.00  0.00     0.000 HD 
HETATM    5  O   UNL     1      -9.096  11.552  67.263  1.00  0.00    -0.160 OA 
ENDROOT
BRANCH   2   6
HETATM    6  O   UNL     1      -9.747  13.166  68.759  1.00  0.00    -0.103 OA 
BRANCH   6   7
HETATM    7  C   UNL     1      -9.409  14.470  68.243  1.00  0.00    -0.203 C  
HETATM    8  C   UNL     1      -9.459  15.544  69.349  1.00  0.00    -0.278 C  
HETATM    9  C   UNL     1      -9.055  16.928  68.812  1.00  0.00    -0.254 C  
HETATM   10  C   UNL     1     -10.830  15.601  70.017  1.00  0.00    -0.340 A  
HETATM   11  C   UNL     1     -10.949  15.370  71.395  1.00  0.00    -0.200 A  
HETATM   12  C   UNL     1     -11.995  15.859  69.277  1.00  0.00    -0.254 A  
HETATM   13  C   UNL     1     -13.246  15.865  69.895  1.00  0.00     1.127 A  
HETATM   14  C   UNL     1     -12.203  15.380  72.013  1.00  0.00    -0.460 A  
HETATM   15  C   UNL     1     -13.350  15.621  71.262  1.00  0.00    -0.485 A  
BRANCH   9  16
HETATM   16  O   UNL     1      -7.723  16.888  68.268  1.00  0.00    -0.189 OA 
BRANCH  16  17
HETATM   17  C   UNL     1      -7.107  18.079  68.101  1.00  0.00    -0.230 C  
HETATM   18  H2  UNL     1      -6.799  18.077  70.186  1.00  0.00     0.000 HD 
HETATM   19  O   UNL     1      -6.930  18.668  67.048  1.00  0.00    -0.197 OA 
HETATM   20  H1  UNL     1      -6.212  19.450  69.165  1.00  0.00     0.000 HD 
HETATM   21  N   UNL     1      -6.677  18.550  69.291  1.00  0.00    -0.262 N  
ENDBRANCH  16  17
ENDBRANCH   9  16
ENDBRANCH   6   7
ENDBRANCH   2   6
TORSDOF 4
ENDMDL
MODEL      202
REMARK 921   NORMALIZED FREE ENERGY PREDICTED BY IDOCK:   -2.31 KCAL/MOL
REMARK 922        TOTAL FREE ENERGY PREDICTED BY IDOCK:   -3.25 KCAL/MOL
REMARK 923 INTER-LIGAND FREE ENERGY PREDICTED BY IDOCK:   -2.96 KCAL/MOL
REMARK 924 INTRA-LIGAND FREE ENERGY PREDICTED BY IDOCK:   -0.29 KCAL/MOL
REMARK 927      BINDING AFFINITY PREDICTED BY RF-SCORE:    0.00 PKD
ROOT
HETATM    1  N   UNL     1     -11.823   7.072  69.896  1.00  0.00    -0.600 N  
HETATM    2  C   UNL     1     -11.148   6.106  69.240  1.00  0.00    -0.393 C  
HETATM    3  H2  UNL     1     -12.321   7.773  69.346  1.00  0.00     0.000 HD 
HETATM    4  H1  UNL     1     -11.863   7.142  70.913  1.00  0.00     0.000 HD 
HETATM    5  O   UNL     1     -11.100   6.023  68.023  1.00  0.00    -0.304 OA 
ENDROOT
BRANCH   2   6
HETATM    6  O   UNL     1     -10.577   5.264  70.125  1.00  0.00    -0.290 OA 
BRANCH   6   7
HETATM    7  C   UNL     1      -9.538   4.412  69.602  1.00  0.00    -0.205 C  
HETATM    8  C   UNL     1      -9.243   3.234  70.553  1.00  0.00    -0.213 C  
HETATM    9  C   UNL     1      -8.166   2.298  69.976  1.00  0.00    -0.041 C  
HETATM   10  C   UNL     1      -8.850   3.718  71.945  1.00  0.00    -0.134 A  
HETATM   11  C   UNL     1      -9.611   3.339  73.060  1.00  0.00    -0.149 A  
HETATM   12  C   UNL     1      -7.746   4.564  72.142  1.00  0.00    -0.090 A  
HETATM   13  C   UNL     1      -7.426   5.033  73.417  1.00  0.00    -0.088 A  
HETATM   14  C   UNL     1      -9.287   3.808  74.336  1.00  0.00    -0.118 A  
HETATM   15  C   UNL     1      -8.199   4.659  74.512  1.00  0.00    -0.094 A  
BRANCH   9  16
HETATM   16  O   UNL     1      -8.585   1.771  68.703  1.00  0.00    -0.056 OA 
BRANCH  16  17
HETATM   17  C   UNL     1      -7.749   1.979  67.663  1.00  0.00    -0.059 C  
HETATM   18  H2  UNL     1      -9.444   2.619  66.585  1.00  0.00     0.000 HD 
HETATM   19  O   UNL     1      -6.543   1.800  67.649  1.00  0.00    -0.028 OA 
HETATM   20  H1  UNL     1      -7.807   2.605  65.814  1.00  0.00     0.000 HD 
HETATM   21  N   UNL     1      -8.439   2.447  66.600  1.00  0.00    -0.093 N  
ENDBRANCH  16  17
ENDBRANCH   9  16
ENDBRANCH   6   7
ENDBRANCH   2   6
TORSDOF 4
ENDMDL
MODEL      203
REMARK 921   NORMALIZED FREE ENERGY PREDICTED BY IDOCK:   -2.29 KCAL/MOL
REMARK 922        TOTAL FREE ENERGY PREDICTED BY IDOCK:   -3.22 KCAL/MOL
REMARK 923 INTER-LIGAND FREE ENERGY PREDICTED BY IDOCK:   -2.76 KCAL/MOL
REMARK 924 INTRA-LIGAND FREE ENERGY PREDICTED BY IDOCK:   -0.46 KCAL/MOL
REMARK 927      BINDING AFFINITY PREDICTED BY RF-SCORE:    0.00 PKD
ROOT
HETATM    1  N   UNL     1     -10.193   8.411  69.607  1.00  0.00    -0.204 N  
HETATM    2  C   UNL     1      -9.357   9.416  69.947  1.00  0.00    -0.214 C  
HETATM    3  H2  UNL     1     -10.051   7.498  70.042  1.00  0.00     0.000 HD 
HETATM    4  H1  UNL     1     -10.957   8.514  68.940  1.00  0.00     0.000 HD 
HETATM    5  O   UNL     1      -8.443   9.292  70.745  1.00  0.00    -0.197 OA 
ENDROOT
BRANCH   2   6
HETATM    6  O   UNL     1      -9.710  10.543  69.295  1.00  0.00    -0.214 OA 
BRANCH   6   7
HETATM    7  C   UNL     1      -9.448  10.556  67.877  1.00  0.00    -0.147 C  
HETATM    8  C   UNL     1      -7.947  10.757  67.583  1.00  0.00    -0.110 C  
HETATM    9  C   UNL     1      -7.658  10.727  66.073  1.00  0.00    -0.130 C  
HETATM   10  C   UNL     1      -7.417  12.043  68.211  1.00  0.00    -0.106 A  
HETATM   11  C   UNL     1      -6.373  11.989  69.145  1.00  0.00    -0.093 A  
HETATM   12  C   UNL     1      -7.969  13.295  67.892  1.00  0.00    -0.159 A  
HETATM   13  C   UNL     1      -7.502  14.457  68.508  1.00  0.00    -0.122 A  
HETATM   14  C   UNL     1      -5.905  13.155  69.758  1.00  0.00    -0.124 A  
HETATM   15  C   UNL     1      -6.473  14.386  69.443  1.00  0.00    -0.132 A  
BRANCH   9  16
HETATM   16  O   UNL     1      -8.075   9.472  65.504  1.00  0.00    -0.111 OA 
BRANCH  16  17
HETATM   17  C   UNL     1      -8.686   9.532  64.300  1.00  0.00    -0.207 C  
HETATM   18  H2  UNL     1     -10.101  10.798  65.215  1.00  0.00     0.000 HD 
HETATM   19  O   UNL     1      -8.325   8.986  63.271  1.00  0.00    -0.178 OA 
HETATM   20  H1  UNL     1     -10.242  10.365  63.465  1.00  0.00     0.000 HD 
HETATM   21  N   UNL     1      -9.781  10.319  64.374  1.00  0.00    -0.316 N  
ENDBRANCH  16  17
ENDBRANCH   9  16
ENDBRANCH   6   7
ENDBRANCH   2   6
TORSDOF 4
ENDMDL
MODEL      204
REMARK 921   NORMALIZED FREE ENERGY PREDICTED BY IDOCK:   -2.28 KCAL/MOL
REMARK 922        TOTAL FREE ENERGY PREDICTED BY IDOCK:   -3.21 KCAL/MOL
REMARK 923 INTER-LIGAND FREE ENERGY PREDICTED BY IDOCK:   -2.89 KCAL/MOL
REMARK 924 INTRA-LIGAND FREE ENERGY PREDICTED BY IDOCK:   -0.32 KCAL/MOL
REMARK 927      BINDING AFFINITY PREDICTED BY RF-SCORE:    0.00 PKD
ROOT
HETATM    1  N   UNL     1     -11.345   4.582  65.076  1.00  0.00    -0.920 N  
HETATM    2  C   UNL     1     -10.069   4.184  64.886  1.00  0.00    -0.202 C  
HETATM    3  H2  UNL     1     -12.069   4.178  64.482  1.00  0.00     0.000 HD 
HETATM    4  H1  UNL     1     -11.624   5.264  65.780  1.00  0.00     0.000 HD 
HETATM    5  O   UNL     1      -9.735   3.369  64.042  1.00  0.00    -0.139 OA 
ENDROOT
BRANCH   2   6
HETATM    6  O   UNL     1      -9.260   4.802  65.771  1.00  0.00    -0.137 OA 
BRANCH   6   7
HETATM    7  C   UNL     1      -8.520   5.931  65.264  1.00  0.00    -0.144 C  
HETATM    8  C   UNL     1      -7.612   6.543  66.350  1.00  0.00    -0.090 C  
HETATM    9  C   UNL     1      -6.788   7.720  65.800  1.00  0.00    -0.053 C  
HETATM   10  C   UNL     1      -8.411   6.968  67.578  1.00  0.00    -0.119 A  
HETATM   11  C   UNL     1      -8.121   6.410  68.832  1.00  0.00    -0.111 A  
HETATM   12  C   UNL     1      -9.458   7.900  67.485  1.00  0.00    -0.175 A  
HETATM   13  C   UNL     1     -10.208   8.245  68.611  1.00  0.00    -0.223 A  
HETATM   14  C   UNL     1      -8.871   6.760  69.958  1.00  0.00    -0.142 A  
HETATM   15  C   UNL     1      -9.917   7.672  69.845  1.00  0.00    -0.190 A  
BRANCH   9  16
HETATM   16  O   UNL     1      -5.965   7.290  64.700  1.00  0.00    -0.036 OA 
BRANCH  16  17
HETATM   17  C   UNL     1      -5.898   8.123  63.639  1.00  0.00    -0.066 C  
HETATM   18  H2  UNL     1      -6.129   9.702  65.017  1.00  0.00     0.000 HD 
HETATM   19  O   UNL     1      -5.743   7.807  62.471  1.00  0.00    -0.064 OA 
HETATM   20  H1  UNL     1      -5.960  10.035  63.247  1.00  0.00     0.000 HD 
HETATM   21  N   UNL     1      -6.011   9.406  64.048  1.00  0.00    -0.079 N  
ENDBRANCH  16  17
ENDBRANCH   9  16
ENDBRANCH   6   7
ENDBRANCH   2   6
TORSDOF 4
ENDMDL
MODEL      205
REMARK 921   NORMALIZED FREE ENERGY PREDICTED BY IDOCK:   -2.20 KCAL/MOL
REMARK 922        TOTAL FREE ENERGY PREDICTED BY IDOCK:   -3.11 KCAL/MOL
REMARK 923 INTER-LIGAND FREE ENERGY PREDICTED BY IDOCK:   -2.69 KCAL/MOL
REMARK 924 INTRA-LIGAND FREE ENERGY PREDICTED BY IDOCK:   -0.42 KCAL/MOL
REMARK 927      BINDING AFFINITY PREDICTED BY RF-SCORE:    0.00 PKD
ROOT
HETATM    1  N   UNL     1      -9.557   5.631  71.581  1.00  0.00    -0.153 N  
HETATM    2  C   UNL     1      -8.861   5.884  70.453  1.00  0.00    -0.143 C  
HETATM    3  H2  UNL     1      -9.172   4.956  72.244  1.00  0.00     0.000 HD 
HETATM    4  H1  UNL     1     -10.446   6.076  71.808  1.00  0.00     0.000 HD 
HETATM    5  O   UNL     1      -7.798   5.352  70.182  1.00  0.00    -0.078 OA 
ENDROOT
BRANCH   2   6
HETATM    6  O   UNL     1      -9.507   6.812  69.716  1.00  0.00    -0.146 OA 
BRANCH   6   7
HETATM    7  C   UNL     1      -8.749   7.995  69.393  1.00  0.00    -0.137 C  
HETATM    8  C   UNL     1      -8.937   9.093  70.461  1.00  0.00    -0.274 C  
HETATM    9  C   UNL     1      -8.094  10.340  70.143  1.00  0.00     0.169 C  
HETATM   10  C   UNL     1     -10.406   9.462  70.638  1.00  0.00    -0.349 A  
HETATM   11  C   UNL     1     -11.022   9.309  71.888  1.00  0.00    -0.284 A  
HETATM   12  C   UNL     1     -11.177   9.936  69.563  1.00  0.00    -0.220 A  
HETATM   13  C   UNL     1     -12.531  10.227  69.731  1.00  0.00     0.032 A  
HETATM   14  C   UNL     1     -12.378   9.604  72.055  1.00  0.00    -0.376 A  
HETATM   15  C   UNL     1     -13.132  10.058  70.976  1.00  0.00    -0.435 A  
BRANCH   9  16
HETATM   16  O   UNL     1      -6.697  10.001  70.070  1.00  0.00    -0.079 OA 
BRANCH  16  17
HETATM   17  C   UNL     1      -5.859  10.744  70.825  1.00  0.00    -0.081 C  
HETATM   18  H2  UNL     1      -5.773   9.095  72.136  1.00  0.00     0.000 HD 
HETATM   19  O   UNL     1      -5.469  11.874  70.587  1.00  0.00    -0.134 OA 
HETATM   20  H1  UNL     1      -4.841  10.605  72.486  1.00  0.00     0.000 HD 
HETATM   21  N   UNL     1      -5.474  10.045  71.915  1.00  0.00    -0.001 N  
ENDBRANCH  16  17
ENDBRANCH   9  16
ENDBRANCH   6   7
ENDBRANCH   2   6
TORSDOF 4
ENDMDL
MODEL      206
REMARK 921   NORMALIZED FREE ENERGY PREDICTED BY IDOCK:   -2.18 KCAL/MOL
REMARK 922        TOTAL FREE ENERGY PREDICTED BY IDOCK:   -3.09 KCAL/MOL
REMARK 923 INTER-LIGAND FREE ENERGY PREDICTED BY IDOCK:   -2.76 KCAL/MOL
REMARK 924 INTRA-LIGAND FREE ENERGY PREDICTED BY IDOCK:   -0.32 KCAL/MOL
REMARK 927      BINDING AFFINITY PREDICTED BY RF-SCORE:    0.00 PKD
ROOT
HETATM    1  N   UNL     1     -11.957   7.088  69.594  1.00  0.00    -0.428 N  
HETATM    2  C   UNL     1     -11.145   6.385  68.777  1.00  0.00    -0.326 C  
HETATM    3  H2  UNL     1     -12.723   7.617  69.175  1.00  0.00     0.000 HD 
HETATM    4  H1  UNL     1     -11.848   7.120  70.607  1.00  0.00     0.000 HD 
HETATM    5  O   UNL     1     -11.276   6.346  67.565  1.00  0.00    -0.347 OA 
ENDROOT
BRANCH   2   6
HETATM    6  O   UNL     1     -10.214   5.736  69.506  1.00  0.00    -0.195 OA 
BRANCH   6   7
HETATM    7  C   UNL     1      -9.247   6.571  70.175  1.00  0.00    -0.158 C  
HETATM    8  C   UNL     1      -8.059   5.743  70.707  1.00  0.00    -0.118 C  
HETATM    9  C   UNL     1      -7.004   6.636  71.382  1.00  0.00    -0.075 C  
HETATM   10  C   UNL     1      -8.521   4.639  71.653  1.00  0.00    -0.117 A  
HETATM   11  C   UNL     1      -8.243   3.297  71.355  1.00  0.00    -0.074 A  
HETATM   12  C   UNL     1      -9.246   4.930  72.820  1.00  0.00    -0.145 A  
HETATM   13  C   UNL     1      -9.699   3.906  73.653  1.00  0.00    -0.140 A  
HETATM   14  C   UNL     1      -8.695   2.273  72.192  1.00  0.00    -0.094 A  
HETATM   15  C   UNL     1      -9.426   2.578  73.336  1.00  0.00    -0.115 A  
BRANCH   9  16
HETATM   16  O   UNL     1      -6.505   7.617  70.455  1.00  0.00    -0.037 OA 
BRANCH  16  17
HETATM   17  C   UNL     1      -6.328   8.866  70.939  1.00  0.00    -0.054 C  
HETATM   18  H2  UNL     1      -4.710   9.028  69.597  1.00  0.00     0.000 HD 
HETATM   19  O   UNL     1      -7.000   9.419  71.793  1.00  0.00    -0.314 OA 
HETATM   20  H1  UNL     1      -5.150  10.402  70.688  1.00  0.00     0.000 HD 
HETATM   21  N   UNL     1      -5.283   9.459  70.322  1.00  0.00    -0.027 N  
ENDBRANCH  16  17
ENDBRANCH   9  16
ENDBRANCH   6   7
ENDBRANCH   2   6
TORSDOF 4
ENDMDL
MODEL      207
REMARK 921   NORMALIZED FREE ENERGY PREDICTED BY IDOCK:   -2.17 KCAL/MOL
REMARK 922        TOTAL FREE ENERGY PREDICTED BY IDOCK:   -3.08 KCAL/MOL
REMARK 923 INTER-LIGAND FREE ENERGY PREDICTED BY IDOCK:   -2.68 KCAL/MOL
REMARK 924 INTRA-LIGAND FREE ENERGY PREDICTED BY IDOCK:   -0.40 KCAL/MOL
REMARK 927      BINDING AFFINITY PREDICTED BY RF-SCORE:    0.00 PKD
ROOT
HETATM    1  N   UNL     1      -9.531   9.645  70.758  1.00  0.00    -0.308 N  
HETATM    2  C   UNL     1      -9.870   8.463  70.202  1.00  0.00    -0.181 C  
HETATM    3  H2  UNL     1     -10.193  10.084  71.398  1.00  0.00     0.000 HD 
HETATM    4  H1  UNL     1      -8.650  10.123  70.573  1.00  0.00     0.000 HD 
HETATM    5  O   UNL     1     -10.925   7.891  70.423  1.00  0.00    -0.246 OA 
ENDROOT
BRANCH   2   6
HETATM    6  O   UNL     1      -8.870   8.026  69.409  1.00  0.00    -0.142 OA 
BRANCH   6   7
HETATM    7  C   UNL     1      -9.242   7.691  68.057  1.00  0.00    -0.137 C  
HETATM    8  C   UNL     1      -8.471   8.548  67.031  1.00  0.00    -0.114 C  
HETATM    9  C   UNL     1      -8.833   8.163  65.586  1.00  0.00    -0.120 C  
HETATM   10  C   UNL     1      -8.691  10.039  67.265  1.00  0.00    -0.127 A  
HETATM   11  C   UNL     1      -7.598  10.876  67.535  1.00  0.00    -0.101 A  
HETATM   12  C   UNL     1      -9.977  10.604  67.240  1.00  0.00    -0.224 A  
HETATM   13  C   UNL     1     -10.165  11.962  67.499  1.00  0.00    -0.212 A  
HETATM   14  C   UNL     1      -7.789  12.236  67.791  1.00  0.00    -0.151 A  
HETATM   15  C   UNL     1      -9.072  12.777  67.779  1.00  0.00    -0.197 A  
BRANCH   9  16
HETATM   16  O   UNL     1      -8.535   6.775  65.345  1.00  0.00    -0.145 OA 
BRANCH  16  17
HETATM   17  C   UNL     1      -7.811   6.500  64.238  1.00  0.00    -0.113 C  
HETATM   18  H2  UNL     1      -6.195   7.446  65.207  1.00  0.00     0.000 HD 
HETATM   19  O   UNL     1      -8.195   5.912  63.242  1.00  0.00    -0.116 OA 
HETATM   20  H1  UNL     1      -6.002   6.754  63.547  1.00  0.00     0.000 HD 
HETATM   21  N   UNL     1      -6.549   6.961  64.383  1.00  0.00    -0.041 N  
ENDBRANCH  16  17
ENDBRANCH   9  16
ENDBRANCH   6   7
ENDBRANCH   2   6
TORSDOF 4
ENDMDL
MODEL      208
REMARK 921   NORMALIZED FREE ENERGY PREDICTED BY IDOCK:   -2.13 KCAL/MOL
REMARK 922        TOTAL FREE ENERGY PREDICTED BY IDOCK:   -3.02 KCAL/MOL
REMARK 923 INTER-LIGAND FREE ENERGY PREDICTED BY IDOCK:   -2.62 KCAL/MOL
REMARK 924 INTRA-LIGAND FREE ENERGY PREDICTED BY IDOCK:   -0.40 KCAL/MOL
REMARK 927      BINDING AFFINITY PREDICTED BY RF-SCORE:    0.00 PKD
ROOT
HETATM    1  N   UNL     1      -8.183   7.939  73.222  1.00  0.00    -0.163 N  
HETATM    2  C   UNL     1      -7.340   8.342  72.248  1.00  0.00    -0.093 C  
HETATM    3  H2  UNL     1      -7.802   7.393  73.995  1.00  0.00     0.000 HD 
HETATM    4  H1  UNL     1      -9.181   8.149  73.227  1.00  0.00     0.000 HD 
HETATM    5  O   UNL     1      -6.146   8.090  72.242  1.00  0.00    -0.040 OA 
ENDROOT
BRANCH   2   6
HETATM    6  O   UNL     1      -8.013   9.066  71.331  1.00  0.00    -0.264 OA 
BRANCH   6   7
HETATM    7  C   UNL     1      -7.854   8.646  69.960  1.00  0.00    -0.103 C  
HETATM    8  C   UNL     1      -9.216   8.352  69.299  1.00  0.00    -0.154 C  
HETATM    9  C   UNL     1      -9.053   7.947  67.824  1.00  0.00    -0.134 C  
HETATM   10  C   UNL     1      -9.999   7.293  70.068  1.00  0.00    -0.184 A  
HETATM   11  C   UNL     1     -11.262   7.599  70.595  1.00  0.00    -0.280 A  
HETATM   12  C   UNL     1      -9.474   6.009  70.287  1.00  0.00    -0.186 A  
HETATM   13  C   UNL     1     -10.185   5.065  71.030  1.00  0.00    -0.283 A  
HETATM   14  C   UNL     1     -11.973   6.651  71.336  1.00  0.00    -0.405 A  
HETATM   15  C   UNL     1     -11.432   5.388  71.558  1.00  0.00     0.230 A  
BRANCH   9  16
HETATM   16  O   UNL     1      -8.396   8.992  67.083  1.00  0.00    -0.109 OA 
BRANCH  16  17
HETATM   17  C   UNL     1      -8.338   8.833  65.743  1.00  0.00    -0.134 C  
HETATM   18  H2  UNL     1     -10.206   9.806  65.667  1.00  0.00     0.000 HD 
HETATM   19  O   UNL     1      -7.435   8.315  65.108  1.00  0.00    -0.078 OA 
HETATM   20  H1  UNL     1      -9.398   9.236  64.153  1.00  0.00     0.000 HD 
HETATM   21  N   UNL     1      -9.441   9.356  65.165  1.00  0.00    -0.239 N  
ENDBRANCH  16  17
ENDBRANCH   9  16
ENDBRANCH   6   7
ENDBRANCH   2   6
TORSDOF 4
ENDMDL
MODEL      209
REMARK 921   NORMALIZED FREE ENERGY PREDICTED BY IDOCK:   -2.11 KCAL/MOL
REMARK 922        TOTAL FREE ENERGY PREDICTED BY IDOCK:   -3.01 KCAL/MOL
REMARK 923 INTER-LIGAND FREE ENERGY PREDICTED BY IDOCK:   -2.59 KCAL/MOL
REMARK 924 INTRA-LIGAND FREE ENERGY PREDICTED BY IDOCK:   -0.42 KCAL/MOL
REMARK 927      BINDING AFFINITY PREDICTED BY RF-SCORE:    0.00 PKD
ROOT
HETATM    1  N   UNL     1      -7.911   8.205  69.967  1.00  0.00    -0.100 N  
HETATM    2  C   UNL     1      -9.220   8.377  69.686  1.00  0.00    -0.160 C  
HETATM    3  H2  UNL     1      -7.323   9.034  70.055  1.00  0.00     0.000 HD 
HETATM    4  H1  UNL     1      -7.477   7.291  70.095  1.00  0.00     0.000 HD 
HETATM    5  O   UNL     1      -9.738   9.470  69.533  1.00  0.00    -0.170 OA 
ENDROOT
BRANCH   2   6
HETATM    6  O   UNL     1      -9.837   7.179  69.632  1.00  0.00    -0.161 OA 
BRANCH   6   7
HETATM    7  C   UNL     1      -9.487   6.343  68.511  1.00  0.00    -0.120 C  
HETATM    8  C   UNL     1      -9.800   4.859  68.794  1.00  0.00    -0.231 C  
HETATM    9  C   UNL     1      -9.469   3.970  67.583  1.00  0.00    -0.183 C  
HETATM   10  C   UNL     1      -9.083   4.361  70.045  1.00  0.00    -0.168 A  
HETATM   11  C   UNL     1      -9.823   3.860  71.126  1.00  0.00    -0.223 A  
HETATM   12  C   UNL     1      -7.684   4.412  70.156  1.00  0.00    -0.049 A  
HETATM   13  C   UNL     1      -7.046   3.992  71.324  1.00  0.00    -0.032 A  
HETATM   14  C   UNL     1      -9.182   3.437  72.293  1.00  0.00    -0.159 A  
HETATM   15  C   UNL     1      -7.795   3.509  72.394  1.00  0.00    -0.067 A  
BRANCH   9  16
HETATM   16  O   UNL     1     -10.221   4.388  66.429  1.00  0.00    -0.240 OA 
BRANCH  16  17
HETATM   17  C   UNL     1      -9.547   4.440  65.260  1.00  0.00    -0.182 C  
HETATM   18  H2  UNL     1     -11.020   3.143  64.491  1.00  0.00     0.000 HD 
HETATM   19  O   UNL     1      -8.534   5.079  65.029  1.00  0.00    -0.133 OA 
HETATM   20  H1  UNL     1      -9.657   3.718  63.449  1.00  0.00     0.000 HD 
HETATM   21  N   UNL     1     -10.167   3.679  64.332  1.00  0.00    -0.208 N  
ENDBRANCH  16  17
ENDBRANCH   9  16
ENDBRANCH   6   7
ENDBRANCH   2   6
TORSDOF 4
ENDMDL
MODEL      210
REMARK 921   NORMALIZED FREE ENERGY PREDICTED BY IDOCK:   -2.08 KCAL/MOL
REMARK 922        TOTAL FREE ENERGY PREDICTED BY IDOCK:   -2.96 KCAL/MOL
REMARK 923 INTER-LIGAND FREE ENERGY PREDICTED BY IDOCK:   -2.63 KCAL/MOL
REMARK 924 INTRA-LIGAND FREE ENERGY PREDICTED BY IDOCK:   -0.33 KCAL/MOL
REMARK 927      BINDING AFFINITY PREDICTED BY RF-SCORE:    0.00 PKD
ROOT
HETATM    1  N   UNL     1      -8.102   4.071  70.940  1.00  0.00    -0.066 N  
HETATM    2  C   UNL     1      -7.331   4.293  69.855  1.00  0.00    -0.049 C  
HETATM    3  H2  UNL     1      -7.883   3.269  71.532  1.00  0.00     0.000 HD 
HETATM    4  H1  UNL     1      -8.891   4.661  71.202  1.00  0.00     0.000 HD 
HETATM    5  O   UNL     1      -6.387   3.586  69.542  1.00  0.00    -0.028 OA 
ENDROOT
BRANCH   2   6
HETATM    6  O   UNL     1      -7.752   5.402  69.213  1.00  0.00    -0.082 OA 
BRANCH   6   7
HETATM    7  C   UNL     1      -8.874   6.083  69.810  1.00  0.00    -0.134 C  
HETATM    8  C   UNL     1      -9.759   6.756  68.740  1.00  0.00    -0.132 C  
HETATM    9  C   UNL     1     -10.982   7.446  69.369  1.00  0.00    -0.108 C  
HETATM   10  C   UNL     1      -8.963   7.737  67.886  1.00  0.00    -0.125 A  
HETATM   11  C   UNL     1      -8.876   7.550  66.498  1.00  0.00    -0.167 A  
HETATM   12  C   UNL     1      -8.285   8.825  68.460  1.00  0.00    -0.117 A  
HETATM   13  C   UNL     1      -7.525   9.689  67.670  1.00  0.00    -0.091 A  
HETATM   14  C   UNL     1      -8.117   8.418  65.709  1.00  0.00    -0.117 A  
HETATM   15  C   UNL     1      -7.438   9.483  66.296  1.00  0.00    -0.097 A  
BRANCH   9  16
HETATM   16  O   UNL     1     -11.780   6.494  70.096  1.00  0.00    -0.418 OA 
BRANCH  16  17
HETATM   17  C   UNL     1     -12.245   6.895  71.300  1.00  0.00    -0.380 C  
HETATM   18  H2  UNL     1     -12.311   8.841  70.491  1.00  0.00     0.000 HD 
HETATM   19  O   UNL     1     -12.459   6.190  72.271  1.00  0.00    -0.236 OA 
HETATM   20  H1  UNL     1     -12.821   8.530  72.198  1.00  0.00     0.000 HD 
HETATM   21  N   UNL     1     -12.469   8.227  71.290  1.00  0.00    -0.282 N  
ENDBRANCH  16  17
ENDBRANCH   9  16
ENDBRANCH   6   7
ENDBRANCH   2   6
TORSDOF 4
ENDMDL
MODEL      211
REMARK 921   NORMALIZED FREE ENERGY PREDICTED BY IDOCK:   -2.05 KCAL/MOL
REMARK 922        TOTAL FREE ENERGY PREDICTED BY IDOCK:   -2.93 KCAL/MOL
REMARK 923 INTER-LIGAND FREE ENERGY PREDICTED BY IDOCK:   -2.51 KCAL/MOL
REMARK 924 INTRA-LIGAND FREE ENERGY PREDICTED BY IDOCK:   -0.42 KCAL/MOL
REMARK 927      BINDING AFFINITY PREDICTED BY RF-SCORE:    0.00 PKD
ROOT
HETATM    1  N   UNL     1      -9.514   5.629  71.700  1.00  0.00    -0.149 N  
HETATM    2  C   UNL     1      -8.829   6.065  70.622  1.00  0.00    -0.142 C  
HETATM    3  H2  UNL     1      -9.023   5.051  72.383  1.00  0.00     0.000 HD 
HETATM    4  H1  UNL     1     -10.496   5.845  71.870  1.00  0.00     0.000 HD 
HETATM    5  O   UNL     1      -7.654   5.806  70.420  1.00  0.00    -0.085 OA 
ENDROOT
BRANCH   2   6
HETATM    6  O   UNL     1      -9.629   6.828  69.850  1.00  0.00    -0.156 OA 
BRANCH   6   7
HETATM    7  C   UNL     1      -9.218   8.200  69.686  1.00  0.00    -0.155 C  
HETATM    8  C   UNL     1      -9.334   8.651  68.215  1.00  0.00    -0.143 C  
HETATM    9  C   UNL     1      -8.940  10.128  68.043  1.00  0.00    -0.125 C  
HETATM   10  C   UNL     1      -8.515   7.760  67.286  1.00  0.00    -0.118 A  
HETATM   11  C   UNL     1      -9.146   7.059  66.249  1.00  0.00    -0.178 A  
HETATM   12  C   UNL     1      -7.129   7.602  67.457  1.00  0.00    -0.086 A  
HETATM   13  C   UNL     1      -6.401   6.750  66.626  1.00  0.00    -0.042 A  
HETATM   14  C   UNL     1      -8.414   6.208  65.416  1.00  0.00    -0.138 A  
HETATM   15  C   UNL     1      -7.044   6.050  65.609  1.00  0.00    -0.073 A  
BRANCH   9  16
HETATM   16  O   UNL     1      -9.780  10.972  68.852  1.00  0.00    -0.197 OA 
BRANCH  16  17
HETATM   17  C   UNL     1     -10.370  12.012  68.223  1.00  0.00    -0.204 C  
HETATM   18  H2  UNL     1     -12.096  10.809  68.107  1.00  0.00     0.000 HD 
HETATM   19  O   UNL     1      -9.867  13.095  67.976  1.00  0.00    -0.217 OA 
HETATM   20  H1  UNL     1     -12.089  12.485  67.428  1.00  0.00     0.000 HD 
HETATM   21  N   UNL     1     -11.644  11.700  67.903  1.00  0.00    -0.307 N  
ENDBRANCH  16  17
ENDBRANCH   9  16
ENDBRANCH   6   7
ENDBRANCH   2   6
TORSDOF 4
ENDMDL
MODEL      212
REMARK 921   NORMALIZED FREE ENERGY PREDICTED BY IDOCK:   -2.02 KCAL/MOL
REMARK 922        TOTAL FREE ENERGY PREDICTED BY IDOCK:   -2.89 KCAL/MOL
REMARK 923 INTER-LIGAND FREE ENERGY PREDICTED BY IDOCK:   -2.52 KCAL/MOL
REMARK 924 INTRA-LIGAND FREE ENERGY PREDICTED BY IDOCK:   -0.37 KCAL/MOL
REMARK 927      BINDING AFFINITY PREDICTED BY RF-SCORE:    0.00 PKD
ROOT
HETATM    1  N   UNL     1      -7.269   6.503  73.339  1.00  0.00    -0.081 N  
HETATM    2  C   UNL     1      -8.436   7.178  73.407  1.00  0.00    -0.131 C  
HETATM    3  H2  UNL     1      -6.477   6.853  73.881  1.00  0.00     0.000 HD 
HETATM    4  H1  UNL     1      -7.133   5.664  72.777  1.00  0.00     0.000 HD 
HETATM    5  O   UNL     1      -8.597   8.182  74.080  1.00  0.00    -0.256 OA 
ENDROOT
BRANCH   2   6
HETATM    6  O   UNL     1      -9.366   6.559  72.650  1.00  0.00    -0.142 OA 
BRANCH   6   7
HETATM    7  C   UNL     1      -9.060   6.450  71.245  1.00  0.00    -0.148 C  
HETATM    8  C   UNL     1      -9.675   5.176  70.632  1.00  0.00    -0.257 C  
HETATM    9  C   UNL     1      -9.389   5.079  69.123  1.00  0.00    -0.122 C  
HETATM   10  C   UNL     1      -9.203   3.918  71.354  1.00  0.00    -0.189 A  
HETATM   11  C   UNL     1     -10.136   3.068  71.966  1.00  0.00    -0.180 A  
HETATM   12  C   UNL     1      -7.839   3.594  71.446  1.00  0.00    -0.060 A  
HETATM   13  C   UNL     1      -7.420   2.463  72.148  1.00  0.00    -0.044 A  
HETATM   14  C   UNL     1      -9.714   1.934  72.666  1.00  0.00    -0.157 A  
HETATM   15  C   UNL     1      -8.358   1.636  72.761  1.00  0.00    -0.053 A  
BRANCH   9  16
HETATM   16  O   UNL     1      -9.920   6.226  68.434  1.00  0.00    -0.130 OA 
BRANCH  16  17
HETATM   17  C   UNL     1     -10.536   5.986  67.255  1.00  0.00    -0.257 C  
HETATM   18  H2  UNL     1     -11.191   7.988  67.327  1.00  0.00     0.000 HD 
HETATM   19  O   UNL     1     -10.526   4.941  66.627  1.00  0.00    -0.262 OA 
HETATM   20  H1  UNL     1     -11.640   6.917  65.941  1.00  0.00     0.000 HD 
HETATM   21  N   UNL     1     -11.175   7.098  66.831  1.00  0.00    -0.047 N  
ENDBRANCH  16  17
ENDBRANCH   9  16
ENDBRANCH   6   7
ENDBRANCH   2   6
TORSDOF 4
ENDMDL
MODEL      213
REMARK 921   NORMALIZED FREE ENERGY PREDICTED BY IDOCK:   -2.01 KCAL/MOL
REMARK 922        TOTAL FREE ENERGY PREDICTED BY IDOCK:   -2.88 KCAL/MOL
REMARK 923 INTER-LIGAND FREE ENERGY PREDICTED BY IDOCK:   -2.67 KCAL/MOL
REMARK 924 INTRA-LIGAND FREE ENERGY PREDICTED BY IDOCK:   -0.21 KCAL/MOL
REMARK 927      BINDING AFFINITY PREDICTED BY RF-SCORE:    0.00 PKD
ROOT
HETATM    1  N   UNL     1     -11.027   5.893  68.651  1.00  0.00    -0.272 N  
HETATM    2  C   UNL     1     -10.044   5.093  69.115  1.00  0.00    -0.204 C  
HETATM    3  H2  UNL     1     -11.001   6.169  67.669  1.00  0.00     0.000 HD 
HETATM    4  H1  UNL     1     -11.795   6.237  69.228  1.00  0.00     0.000 HD 
HETATM    5  O   UNL     1      -9.126   4.682  68.425  1.00  0.00    -0.109 OA 
ENDROOT
BRANCH   2   6
HETATM    6  O   UNL     1     -10.257   4.816  70.418  1.00  0.00    -0.243 OA 
BRANCH   6   7
HETATM    7  C   UNL     1      -9.080   4.768  71.249  1.00  0.00    -0.138 C  
HETATM    8  C   UNL     1      -9.057   5.931  72.262  1.00  0.00    -0.142 C  
HETATM    9  C   UNL     1      -7.825   5.857  73.181  1.00  0.00    -0.102 C  
HETATM   10  C   UNL     1      -9.134   7.286  71.566  1.00  0.00    -0.145 A  
HETATM   11  C   UNL     1     -10.192   8.162  71.850  1.00  0.00    -0.289 A  
HETATM   12  C   UNL     1      -8.174   7.678  70.618  1.00  0.00    -0.113 A  
HETATM   13  C   UNL     1      -8.282   8.903  69.958  1.00  0.00    -0.122 A  
HETATM   14  C   UNL     1     -10.297   9.389  71.189  1.00  0.00    -0.377 A  
HETATM   15  C   UNL     1      -9.346   9.756  70.241  1.00  0.00    -0.236 A  
BRANCH   9  16
HETATM   16  O   UNL     1      -7.810   4.614  73.906  1.00  0.00    -0.098 OA 
BRANCH  16  17
HETATM   17  C   UNL     1      -6.862   3.721  73.545  1.00  0.00    -0.045 C  
HETATM   18  H2  UNL     1      -5.636   5.379  73.109  1.00  0.00     0.000 HD 
HETATM   19  O   UNL     1      -6.954   2.505  73.581  1.00  0.00    -0.026 OA 
HETATM   20  H1  UNL     1      -5.031   3.691  72.867  1.00  0.00     0.000 HD 
HETATM   21  N   UNL     1      -5.747   4.365  73.139  1.00  0.00    -0.008 N  
ENDBRANCH  16  17
ENDBRANCH   9  16
ENDBRANCH   6   7
ENDBRANCH   2   6
TORSDOF 4
ENDMDL
MODEL      214
REMARK 921   NORMALIZED FREE ENERGY PREDICTED BY IDOCK:   -1.96 KCAL/MOL
REMARK 922        TOTAL FREE ENERGY PREDICTED BY IDOCK:   -2.82 KCAL/MOL
REMARK 923 INTER-LIGAND FREE ENERGY PREDICTED BY IDOCK:   -2.52 KCAL/MOL
REMARK 924 INTRA-LIGAND FREE ENERGY PREDICTED BY IDOCK:   -0.30 KCAL/MOL
REMARK 927      BINDING AFFINITY PREDICTED BY RF-SCORE:    0.00 PKD
ROOT
HETATM    1  N   UNL     1      -9.851   9.793  70.964  1.00  0.00    -0.266 N  
HETATM    2  C   UNL     1     -10.364   8.546  71.033  1.00  0.00    -0.209 C  
HETATM    3  H2  UNL     1     -10.429  10.570  71.286  1.00  0.00     0.000 HD 
HETATM    4  H1  UNL     1      -8.919  10.001  70.607  1.00  0.00     0.000 HD 
HETATM    5  O   UNL     1     -11.479   8.297  71.460  1.00  0.00    -0.256 OA 
ENDROOT
BRANCH   2   6
HETATM    6  O   UNL     1      -9.455   7.653  70.590  1.00  0.00    -0.163 OA 
BRANCH   6   7
HETATM    7  C   UNL     1      -9.991   6.483  69.939  1.00  0.00    -0.167 C  
HETATM    8  C   UNL     1      -9.011   5.925  68.887  1.00  0.00    -0.118 C  
HETATM    9  C   UNL     1      -9.561   4.650  68.222  1.00  0.00    -0.149 C  
HETATM   10  C   UNL     1      -8.653   6.972  67.838  1.00  0.00    -0.126 A  
HETATM   11  C   UNL     1      -7.317   7.359  67.659  1.00  0.00    -0.092 A  
HETATM   12  C   UNL     1      -9.641   7.587  67.050  1.00  0.00    -0.221 A  
HETATM   13  C   UNL     1      -9.302   8.575  66.124  1.00  0.00    -0.279 A  
HETATM   14  C   UNL     1      -6.980   8.346  66.729  1.00  0.00    -0.073 A  
HETATM   15  C   UNL     1      -7.972   8.957  65.967  1.00  0.00    -0.106 A  
BRANCH   9  16
HETATM   16  O   UNL     1      -9.808   3.632  69.209  1.00  0.00    -0.090 OA 
BRANCH  16  17
HETATM   17  C   UNL     1      -8.723   3.127  69.835  1.00  0.00    -0.075 C  
HETATM   18  H2  UNL     1      -9.948   2.924  71.538  1.00  0.00     0.000 HD 
HETATM   19  O   UNL     1      -7.616   2.956  69.353  1.00  0.00    -0.044 OA 
HETATM   20  H1  UNL     1      -8.211   2.423  71.583  1.00  0.00     0.000 HD 
HETATM   21  N   UNL     1      -9.030   2.805  71.110  1.00  0.00    -0.087 N  
ENDBRANCH  16  17
ENDBRANCH   9  16
ENDBRANCH   6   7
ENDBRANCH   2   6
TORSDOF 4
ENDMDL
MODEL      215
REMARK 921   NORMALIZED FREE ENERGY PREDICTED BY IDOCK:   -1.92 KCAL/MOL
REMARK 922        TOTAL FREE ENERGY PREDICTED BY IDOCK:   -2.77 KCAL/MOL
REMARK 923 INTER-LIGAND FREE ENERGY PREDICTED BY IDOCK:   -2.40 KCAL/MOL
REMARK 924 INTRA-LIGAND FREE ENERGY PREDICTED BY IDOCK:   -0.37 KCAL/MOL
REMARK 927      BINDING AFFINITY PREDICTED BY RF-SCORE:    0.00 PKD
ROOT
HETATM    1  N   UNL     1      -7.783   6.760  74.518  1.00  0.00    -0.113 N  
HETATM    2  C   UNL     1      -6.935   7.238  73.583  1.00  0.00    -0.075 C  
HETATM    3  H2  UNL     1      -7.410   6.140  75.237  1.00  0.00     0.000 HD 
HETATM    4  H1  UNL     1      -8.778   6.984  74.545  1.00  0.00     0.000 HD 
HETATM    5  O   UNL     1      -5.746   6.970  73.552  1.00  0.00    -0.049 OA 
ENDROOT
BRANCH   2   6
HETATM    6  O   UNL     1      -7.598   8.053  72.738  1.00  0.00    -0.108 OA 
BRANCH   6   7
HETATM    7  C   UNL     1      -6.986   8.251  71.447  1.00  0.00    -0.065 C  
HETATM    8  C   UNL     1      -7.987   8.840  70.432  1.00  0.00    -0.113 C  
HETATM    9  C   UNL     1      -7.325   9.094  69.067  1.00  0.00    -0.073 C  
HETATM   10  C   UNL     1      -9.221   7.956  70.281  1.00  0.00    -0.152 A  
HETATM   11  C   UNL     1     -10.493   8.470  70.571  1.00  0.00    -0.230 A  
HETATM   12  C   UNL     1      -9.116   6.615  69.874  1.00  0.00    -0.143 A  
HETATM   13  C   UNL     1     -10.251   5.807  69.782  1.00  0.00    -0.303 A  
HETATM   14  C   UNL     1     -11.628   7.660  70.475  1.00  0.00    -0.195 A  
HETATM   15  C   UNL     1     -11.505   6.329  70.086  1.00  0.00    -0.452 A  
BRANCH   9  16
HETATM   16  O   UNL     1      -6.218  10.003  69.204  1.00  0.00    -0.040 OA 
BRANCH  16  17
HETATM   17  C   UNL     1      -6.515  11.320  69.165  1.00  0.00    -0.081 C  
HETATM   18  H2  UNL     1      -7.247  10.975  67.219  1.00  0.00     0.000 HD 
HETATM   19  O   UNL     1      -6.337  12.135  70.055  1.00  0.00    -0.128 OA 
HETATM   20  H1  UNL     1      -7.299  12.630  67.947  1.00  0.00     0.000 HD 
HETATM   21  N   UNL     1      -7.074  11.635  67.977  1.00  0.00    -0.076 N  
ENDBRANCH  16  17
ENDBRANCH   9  16
ENDBRANCH   6   7
ENDBRANCH   2   6
TORSDOF 4
ENDMDL
MODEL      216
REMARK 921   NORMALIZED FREE ENERGY PREDICTED BY IDOCK:   -1.86 KCAL/MOL
REMARK 922        TOTAL FREE ENERGY PREDICTED BY IDOCK:   -2.70 KCAL/MOL
REMARK 923 INTER-LIGAND FREE ENERGY PREDICTED BY IDOCK:   -2.36 KCAL/MOL
REMARK 924 INTRA-LIGAND FREE ENERGY PREDICTED BY IDOCK:   -0.34 KCAL/MOL
REMARK 927      BINDING AFFINITY PREDICTED BY RF-SCORE:    0.00 PKD
ROOT
HETATM    1  N   UNL     1     -10.905  10.120  69.754  1.00  0.00    -0.259 N  
HETATM    2  C   UNL     1     -11.229   9.102  70.579  1.00  0.00    -0.264 C  
HETATM    3  H2  UNL     1     -11.257  11.052  69.975  1.00  0.00     0.000 HD 
HETATM    4  H1  UNL     1     -10.327  10.009  68.921  1.00  0.00     0.000 HD 
HETATM    5  O   UNL     1     -11.920   9.236  71.575  1.00  0.00    -0.317 OA 
ENDROOT
BRANCH   2   6
HETATM    6  O   UNL     1     -10.659   7.960  70.143  1.00  0.00    -0.228 OA 
BRANCH   6   7
HETATM    7  C   UNL     1      -9.539   7.484  70.917  1.00  0.00    -0.165 C  
HETATM    8  C   UNL     1      -8.197   7.870  70.262  1.00  0.00    -0.124 C  
HETATM    9  C   UNL     1      -7.000   7.403  71.107  1.00  0.00    -0.058 C  
HETATM   10  C   UNL     1      -8.093   7.340  68.835  1.00  0.00    -0.128 A  
HETATM   11  C   UNL     1      -7.915   8.231  67.767  1.00  0.00    -0.122 A  
HETATM   12  C   UNL     1      -8.194   5.968  68.554  1.00  0.00    -0.110 A  
HETATM   13  C   UNL     1      -8.140   5.503  67.239  1.00  0.00    -0.101 A  
HETATM   14  C   UNL     1      -7.859   7.763  66.451  1.00  0.00    -0.094 A  
HETATM   15  C   UNL     1      -7.977   6.401  66.188  1.00  0.00    -0.112 A  
BRANCH   9  16
HETATM   16  O   UNL     1      -7.054   7.982  72.424  1.00  0.00    -0.077 OA 
BRANCH  16  17
HETATM   17  C   UNL     1      -6.311   9.092  72.623  1.00  0.00     0.115 C  
HETATM   18  H2  UNL     1      -6.270   8.554  74.661  1.00  0.00     0.000 HD 
HETATM   19  O   UNL     1      -5.946   9.888  71.774  1.00  0.00    -0.286 OA 
HETATM   20  H1  UNL     1      -5.429  10.047  74.080  1.00  0.00     0.000 HD 
HETATM   21  N   UNL     1      -5.991   9.208  73.930  1.00  0.00    -0.025 N  
ENDBRANCH  16  17
ENDBRANCH   9  16
ENDBRANCH   6   7
ENDBRANCH   2   6
TORSDOF 4
ENDMDL
MODEL      217
REMARK 921   NORMALIZED FREE ENERGY PREDICTED BY IDOCK:   -1.74 KCAL/MOL
REMARK 922        TOTAL FREE ENERGY PREDICTED BY IDOCK:   -2.54 KCAL/MOL
REMARK 923 INTER-LIGAND FREE ENERGY PREDICTED BY IDOCK:   -2.49 KCAL/MOL
REMARK 924 INTRA-LIGAND FREE ENERGY PREDICTED BY IDOCK:   -0.05 KCAL/MOL
REMARK 927      BINDING AFFINITY PREDICTED BY RF-SCORE:    0.00 PKD
ROOT
HETATM    1  N   UNL     1     -11.921   7.042  69.604  1.00  0.00    -0.428 N  
HETATM    2  C   UNL     1     -11.286   6.161  68.803  1.00  0.00    -0.224 C  
HETATM    3  H2  UNL     1     -12.363   7.855  69.173  1.00  0.00     0.000 HD 
HETATM    4  H1  UNL     1     -11.985   6.940  70.617  1.00  0.00     0.000 HD 
HETATM    5  O   UNL     1     -11.210   6.283  67.591  1.00  0.00    -0.327 OA 
ENDROOT
BRANCH   2   6
HETATM    6  O   UNL     1     -10.789   5.147  69.541  1.00  0.00    -0.103 OA 
BRANCH   6   7
HETATM    7  C   UNL     1      -9.477   4.681  69.164  1.00  0.00    -0.157 C  
HETATM    8  C   UNL     1      -8.382   5.292  70.063  1.00  0.00    -0.098 C  
HETATM    9  C   UNL     1      -6.986   4.763  69.692  1.00  0.00    -0.053 C  
HETATM   10  C   UNL     1      -8.411   6.817  70.027  1.00  0.00    -0.135 A  
HETATM   11  C   UNL     1      -8.615   7.543  71.210  1.00  0.00    -0.122 A  
HETATM   12  C   UNL     1      -8.258   7.525  68.824  1.00  0.00    -0.129 A  
HETATM   13  C   UNL     1      -8.330   8.919  68.802  1.00  0.00    -0.123 A  
HETATM   14  C   UNL     1      -8.683   8.938  71.186  1.00  0.00    -0.280 A  
HETATM   15  C   UNL     1      -8.547   9.624  69.982  1.00  0.00    -0.237 A  
BRANCH   9  16
HETATM   16  O   UNL     1      -6.940   3.330  69.818  1.00  0.00    -0.040 OA 
BRANCH  16  17
HETATM   17  C   UNL     1      -5.986   2.829  70.634  1.00  0.00    -0.018 C  
HETATM   18  H2  UNL     1      -5.290   4.808  70.836  1.00  0.00     0.000 HD 
HETATM   19  O   UNL     1      -5.842   1.662  70.958  1.00  0.00    -0.012 OA 
HETATM   20  H1  UNL     1      -4.467   3.446  71.695  1.00  0.00     0.000 HD 
HETATM   21  N   UNL     1      -5.188   3.823  71.079  1.00  0.00    -0.003 N  
ENDBRANCH  16  17
ENDBRANCH   9  16
ENDBRANCH   6   7
ENDBRANCH   2   6
TORSDOF 4
ENDMDL
MODEL      218
REMARK 921   NORMALIZED FREE ENERGY PREDICTED BY IDOCK:   -1.53 KCAL/MOL
REMARK 922        TOTAL FREE ENERGY PREDICTED BY IDOCK:   -2.29 KCAL/MOL
REMARK 923 INTER-LIGAND FREE ENERGY PREDICTED BY IDOCK:   -1.98 KCAL/MOL
REMARK 924 INTRA-LIGAND FREE ENERGY PREDICTED BY IDOCK:   -0.30 KCAL/MOL
REMARK 927      BINDING AFFINITY PREDICTED BY RF-SCORE:    0.00 PKD
ROOT
HETATM    1  N   UNL     1      -7.282  11.792  69.514  1.00  0.00    -0.342 N  
HETATM    2  C   UNL     1      -6.878  11.272  68.336  1.00  0.00    -0.063 C  
HETATM    3  H2  UNL     1      -6.793  12.614  69.871  1.00  0.00     0.000 HD 
HETATM    4  H1  UNL     1      -8.049  11.410  70.067  1.00  0.00     0.000 HD 
HETATM    5  O   UNL     1      -5.961  11.730  67.675  1.00  0.00    -0.055 OA 
ENDROOT
BRANCH   2   6
HETATM    6  O   UNL     1      -7.650  10.213  68.015  1.00  0.00    -0.087 OA 
BRANCH   6   7
HETATM    7  C   UNL     1      -7.418   9.640  66.712  1.00  0.00    -0.094 C  
HETATM    8  C   UNL     1      -8.346   8.435  66.454  1.00  0.00    -0.116 C  
HETATM    9  C   UNL     1      -8.133   7.849  65.047  1.00  0.00    -0.144 C  
HETATM   10  C   UNL     1      -8.180   7.358  67.521  1.00  0.00    -0.113 A  
HETATM   11  C   UNL     1      -9.278   6.970  68.304  1.00  0.00    -0.128 A  
HETATM   12  C   UNL     1      -6.937   6.750  67.761  1.00  0.00    -0.083 A  
HETATM   13  C   UNL     1      -6.792   5.797  68.771  1.00  0.00    -0.066 A  
HETATM   14  C   UNL     1      -9.131   6.014  69.312  1.00  0.00    -0.126 A  
HETATM   15  C   UNL     1      -7.888   5.432  69.548  1.00  0.00    -0.085 A  
BRANCH   9  16
HETATM   16  O   UNL     1      -8.382   8.847  64.041  1.00  0.00    -0.170 OA 
BRANCH  16  17
HETATM   17  C   UNL     1      -7.460   8.954  63.059  1.00  0.00    -0.100 C  
HETATM   18  H2  UNL     1      -8.390  10.774  62.547  1.00  0.00     0.000 HD 
HETATM   19  O   UNL     1      -6.559   8.168  62.817  1.00  0.00    -0.085 OA 
HETATM   20  H1  UNL     1      -6.958  10.174  61.620  1.00  0.00     0.000 HD 
HETATM   21  N   UNL     1      -7.655  10.093  62.361  1.00  0.00    -0.124 N  
ENDBRANCH  16  17
ENDBRANCH   9  16
ENDBRANCH   6   7
ENDBRANCH   2   6
TORSDOF 4
ENDMDL
MODEL      219
REMARK 921   NORMALIZED FREE ENERGY PREDICTED BY IDOCK:   -0.04 KCAL/MOL
REMARK 922        TOTAL FREE ENERGY PREDICTED BY IDOCK:   -0.44 KCAL/MOL
REMARK 923 INTER-LIGAND FREE ENERGY PREDICTED BY IDOCK:   -2.05 KCAL/MOL
REMARK 924 INTRA-LIGAND FREE ENERGY PREDICTED BY IDOCK:    1.60 KCAL/MOL
REMARK 927      BINDING AFFINITY PREDICTED BY RF-SCORE:    0.00 PKD
ROOT
HETATM    1  N   UNL     1     -10.132  20.489  70.629  1.00  0.00     0.271 N  
HETATM    2  C   UNL     1     -10.248  19.824  69.461  1.00  0.00     0.060 C  
HETATM    3  H2  UNL     1     -10.410  21.471  70.655  1.00  0.00     0.000 HD 
HETATM    4  H1  UNL     1      -9.781  20.065  71.488  1.00  0.00     0.000 HD 
HETATM    5  O   UNL     1     -10.668  20.331  68.434  1.00  0.00    -0.157 OA 
ENDROOT
BRANCH   2   6
HETATM    6  O   UNL     1      -9.859  18.542  69.623  1.00  0.00     0.113 OA 
BRANCH   6   7
HETATM    7  C   UNL     1      -8.934  18.038  68.639  1.00  0.00    -0.268 C  
HETATM    8  C   UNL     1      -9.654  17.189  67.571  1.00  0.00    -0.254 C  
HETATM    9  C   UNL     1      -8.677  16.686  66.494  1.00  0.00    -0.282 C  
HETATM   10  C   UNL     1     -10.416  16.025  68.197  1.00  0.00    -0.269 A  
HETATM   11  C   UNL     1     -11.803  15.916  68.018  1.00  0.00     0.078 A  
HETATM   12  C   UNL     1      -9.763  15.057  68.978  1.00  0.00    -0.229 A  
HETATM   13  C   UNL     1     -10.481  14.023  69.580  1.00  0.00     0.245 A  
HETATM   14  C   UNL     1     -12.519  14.878  68.619  1.00  0.00     0.179 A  
HETATM   15  C   UNL     1     -11.859  13.936  69.404  1.00  0.00    -0.384 A  
BRANCH   9  16
HETATM   16  O   UNL     1      -8.030  17.795  65.843  1.00  0.00    -0.523 OA 
BRANCH  16  17
HETATM   17  C   UNL     1      -7.337  18.638  66.639  1.00  0.00    -0.229 C  
HETATM   18  H2  UNL     1      -6.008  17.037  66.974  1.00  0.00     0.000 HD 
HETATM   19  O   UNL     1      -7.600  19.806  66.869  1.00  0.00    -0.243 OA 
HETATM   20  H1  UNL     1      -5.737  18.644  67.758  1.00  0.00     0.000 HD 
HETATM   21  N   UNL     1      -6.261  18.008  67.157  1.00  0.00    -0.153 N  
ENDBRANCH  16  17
ENDBRANCH   9  16
ENDBRANCH   6   7
ENDBRANCH   2   6
TORSDOF 4
ENDMDL
MODEL      220
REMARK 921   NORMALIZED FREE ENERGY PREDICTED BY IDOCK:    0.20 KCAL/MOL
REMARK 922        TOTAL FREE ENERGY PREDICTED BY IDOCK:   -0.15 KCAL/MOL
REMARK 923 INTER-LIGAND FREE ENERGY PREDICTED BY IDOCK:   -2.02 KCAL/MOL
REMARK 924 INTRA-LIGAND FREE ENERGY PREDICTED BY IDOCK:    1.87 KCAL/MOL
REMARK 927      BINDING AFFINITY PREDICTED BY RF-SCORE:    0.00 PKD
ROOT
HETATM    1  N   UNL     1      -8.467   9.727  65.604  1.00  0.00    -0.134 N  
HETATM    2  C   UNL     1      -7.251   9.192  65.371  1.00  0.00    -0.085 C  
HETATM    3  H2  UNL     1      -9.097   9.857  64.812  1.00  0.00     0.000 HD 
HETATM    4  H1  UNL     1      -8.792  10.010  66.528  1.00  0.00     0.000 HD 
HETATM    5  O   UNL     1      -6.863   8.853  64.265  1.00  0.00    -0.081 OA 
ENDROOT
BRANCH   2   6
HETATM    6  O   UNL     1      -6.572   9.075  66.531  1.00  0.00    -0.066 OA 
BRANCH   6   7
HETATM    7  C   UNL     1      -7.354   8.685  67.678  1.00  0.00    -0.089 C  
HETATM    8  C   UNL     1      -8.452   9.722  67.991  1.00  0.00    -0.118 C  
HETATM    9  C   UNL     1      -9.317   9.287  69.187  1.00  0.00    -0.157 C  
HETATM   10  C   UNL     1      -7.866  11.111  68.223  1.00  0.00    -0.123 A  
HETATM   11  C   UNL     1      -8.255  12.182  67.405  1.00  0.00    -0.175 A  
HETATM   12  C   UNL     1      -6.918  11.347  69.232  1.00  0.00    -0.115 A  
HETATM   13  C   UNL     1      -6.359  12.614  69.403  1.00  0.00    -0.112 A  
HETATM   14  C   UNL     1      -7.696  13.451  67.581  1.00  0.00    -0.179 A  
HETATM   15  C   UNL     1      -6.745  13.664  68.575  1.00  0.00    -0.095 A  
BRANCH   9  16
HETATM   16  O   UNL     1      -9.942   8.017  68.922  1.00  0.00    -0.183 OA 
BRANCH  16  17
HETATM   17  C   UNL     1     -11.121   7.788  69.542  1.00  0.00     0.006 C  
HETATM   18  H2  UNL     1     -10.809   9.613  70.549  1.00  0.00     0.000 HD 
HETATM   19  O   UNL     1     -11.860   6.833  69.373  1.00  0.00    -0.079 OA 
HETATM   20  H1  UNL     1     -12.291   8.624  70.862  1.00  0.00     0.000 HD 
HETATM   21  N   UNL     1     -11.401   8.797  70.395  1.00  0.00    -0.233 N  
ENDBRANCH  16  17
ENDBRANCH   9  16
ENDBRANCH   6   7
ENDBRANCH   2   6
TORSDOF 4
ENDMDL
MODEL      221
REMARK 921   NORMALIZED FREE ENERGY PREDICTED BY IDOCK:    3.16 KCAL/MOL
REMARK 922        TOTAL FREE ENERGY PREDICTED BY IDOCK:    3.50 KCAL/MOL
REMARK 923 INTER-LIGAND FREE ENERGY PREDICTED BY IDOCK:    3.03 KCAL/MOL
REMARK 924 INTRA-LIGAND FREE ENERGY PREDICTED BY IDOCK:    0.47 KCAL/MOL
REMARK 927      BINDING AFFINITY PREDICTED BY RF-SCORE:    0.00 PKD
ROOT
HETATM    1  N   UNL     1      -9.902  14.815  71.495  1.00  0.00     1.836 N  
HETATM    2  C   UNL     1      -9.598  15.531  70.392  1.00  0.00     0.609 C  
HETATM    3  H2  UNL     1      -9.169  14.666  72.190  1.00  0.00     0.000 HD 
HETATM    4  H1  UNL     1     -10.822  14.414  71.672  1.00  0.00     0.000 HD 
HETATM    5  O   UNL     1      -8.497  16.010  70.180  1.00  0.00     0.602 OA 
ENDROOT
BRANCH   2   6
HETATM    6  O   UNL     1     -10.688  15.643  69.605  1.00  0.00    -0.232 OA 
BRANCH   6   7
HETATM    7  C   UNL     1     -10.432  15.924  68.214  1.00  0.00    -0.257 C  
HETATM    8  C   UNL     1     -11.040  14.842  67.299  1.00  0.00    -0.336 C  
HETATM    9  C   UNL     1     -10.807  15.163  65.812  1.00  0.00    -0.353 C  
HETATM   10  C   UNL     1     -10.514  13.452  67.642  1.00  0.00    -0.242 A  
HETATM   11  C   UNL     1     -11.405  12.441  68.029  1.00  0.00    -0.340 A  
HETATM   12  C   UNL     1      -9.141  13.159  67.603  1.00  0.00    -0.201 A  
HETATM   13  C   UNL     1      -8.672  11.894  67.963  1.00  0.00    -0.173 A  
HETATM   14  C   UNL     1     -10.933  11.175  68.386  1.00  0.00    -0.277 A  
HETATM   15  C   UNL     1      -9.567  10.904  68.358  1.00  0.00    -0.177 A  
BRANCH   9  16
HETATM   16  O   UNL     1     -11.389  16.435  65.473  1.00  0.00     0.083 OA 
BRANCH  16  17
HETATM   17  C   UNL     1     -10.543  17.487  65.422  1.00  0.00     0.003 C  
HETATM   18  H2  UNL     1     -11.720  18.203  63.827  1.00  0.00     0.000 HD 
HETATM   19  O   UNL     1      -9.583  17.687  66.147  1.00  0.00    -0.440 OA 
HETATM   20  H1  UNL     1     -10.279  19.132  64.402  1.00  0.00     0.000 HD 
HETATM   21  N   UNL     1     -10.917  18.337  64.440  1.00  0.00     2.926 N  
ENDBRANCH  16  17
ENDBRANCH   9  16
ENDBRANCH   6   7
ENDBRANCH   2   6
TORSDOF 4
ENDMDL
MODEL      222
REMARK 921   NORMALIZED FREE ENERGY PREDICTED BY IDOCK:    5.17 KCAL/MOL
REMARK 922        TOTAL FREE ENERGY PREDICTED BY IDOCK:    5.98 KCAL/MOL
REMARK 923 INTER-LIGAND FREE ENERGY PREDICTED BY IDOCK:    6.30 KCAL/MOL
REMARK 924 INTRA-LIGAND FREE ENERGY PREDICTED BY IDOCK:   -0.32 KCAL/MOL
REMARK 927      BINDING AFFINITY PREDICTED BY RF-SCORE:    0.00 PKD
ROOT
HETATM    1  N   UNL     1     -12.720  11.485  67.306  1.00  0.00     2.661 N  
HETATM    2  C   UNL     1     -11.746  10.587  67.048  1.00  0.00     1.127 C  
HETATM    3  H2  UNL     1     -13.684  11.226  67.094  1.00  0.00     0.000 HD 
HETATM    4  H1  UNL     1     -12.545  12.409  67.700  1.00  0.00     0.000 HD 
HETATM    5  O   UNL     1     -11.956   9.482  66.576  1.00  0.00     3.048 OA 
ENDROOT
BRANCH   2   6
HETATM    6  O   UNL     1     -10.549  11.092  67.411  1.00  0.00    -0.208 OA 
BRANCH   6   7
HETATM    7  C   UNL     1      -9.516  11.041  66.407  1.00  0.00    -0.193 C  
HETATM    8  C   UNL     1      -8.425  12.100  66.667  1.00  0.00    -0.088 C  
HETATM    9  C   UNL     1      -7.298  12.019  65.623  1.00  0.00     1.827 C  
HETATM   10  C   UNL     1      -9.008  13.508  66.726  1.00  0.00    -0.188 A  
HETATM   11  C   UNL     1      -8.860  14.281  67.887  1.00  0.00    -0.179 A  
HETATM   12  C   UNL     1      -9.720  14.052  65.644  1.00  0.00    -0.181 A  
HETATM   13  C   UNL     1     -10.285  15.326  65.731  1.00  0.00    -0.372 A  
HETATM   14  C   UNL     1      -9.424  15.557  67.970  1.00  0.00    -0.194 A  
HETATM   15  C   UNL     1     -10.140  16.075  66.895  1.00  0.00    -0.266 A  
BRANCH   9  16
HETATM   16  O   UNL     1      -6.689  10.714  65.637  1.00  0.00    -0.124 OA 
BRANCH  16  17
HETATM   17  C   UNL     1      -6.030  10.347  64.517  1.00  0.00    -0.110 C  
HETATM   18  H2  UNL     1      -7.179   8.580  64.565  1.00  0.00     0.000 HD 
HETATM   19  O   UNL     1      -5.178  10.990  63.927  1.00  0.00    -0.173 OA 
HETATM   20  H1  UNL     1      -5.964   8.859  63.254  1.00  0.00     0.000 HD 
HETATM   21  N   UNL     1      -6.461   9.136  64.101  1.00  0.00    -0.083 N  
ENDBRANCH  16  17
ENDBRANCH   9  16
ENDBRANCH   6   7
ENDBRANCH   2   6
TORSDOF 4
ENDMDL
MODEL      223
REMARK 921   NORMALIZED FREE ENERGY PREDICTED BY IDOCK:    8.01 KCAL/MOL
REMARK 922        TOTAL FREE ENERGY PREDICTED BY IDOCK:    9.48 KCAL/MOL
REMARK 923 INTER-LIGAND FREE ENERGY PREDICTED BY IDOCK:    3.73 KCAL/MOL
REMARK 924 INTRA-LIGAND FREE ENERGY PREDICTED BY IDOCK:    5.75 KCAL/MOL
REMARK 927      BINDING AFFINITY PREDICTED BY RF-SCORE:    0.00 PKD
ROOT
HETATM    1  N   UNL     1      -9.935  17.751  70.382  1.00  0.00     1.450 N  
HETATM    2  C   UNL     1      -9.726  16.929  69.332  1.00  0.00    -0.012 C  
HETATM    3  H2  UNL     1      -9.343  17.642  71.206  1.00  0.00     0.000 HD 
HETATM    4  H1  UNL     1     -10.654  18.475  70.398  1.00  0.00     0.000 HD 
HETATM    5  O   UNL     1      -8.867  16.064  69.314  1.00  0.00    -0.248 OA 
ENDROOT
BRANCH   2   6
HETATM    6  O   UNL     1     -10.581  17.235  68.335  1.00  0.00    -0.360 OA 
BRANCH   6   7
HETATM    7  C   UNL     1     -10.163  18.295  67.452  1.00  0.00    -0.371 C  
HETATM    8  C   UNL     1      -8.971  17.861  66.574  1.00  0.00    -0.278 C  
HETATM    9  C   UNL     1      -8.550  18.975  65.600  1.00  0.00     0.589 C  
HETATM   10  C   UNL     1      -7.786  17.404  67.419  1.00  0.00    -0.212 A  
HETATM   11  C   UNL     1      -7.287  16.100  67.281  1.00  0.00    -0.226 A  
HETATM   12  C   UNL     1      -7.186  18.255  68.361  1.00  0.00    -0.276 A  
HETATM   13  C   UNL     1      -6.130  17.808  69.157  1.00  0.00    -0.224 A  
HETATM   14  C   UNL     1      -6.228  15.655  68.077  1.00  0.00    -0.149 A  
HETATM   15  C   UNL     1      -5.655  16.507  69.018  1.00  0.00    -0.130 A  
BRANCH   9  16
HETATM   16  O   UNL     1      -9.648  19.336  64.742  1.00  0.00     1.949 OA 
BRANCH  16  17
HETATM   17  C   UNL     1     -10.735  19.862  65.348  1.00  0.00    -0.076 C  
HETATM   18  H2  UNL     1      -9.436  21.312  66.155  1.00  0.00     0.000 HD 
HETATM   19  O   UNL     1     -11.883  19.460  65.263  1.00  0.00     1.572 OA 
HETATM   20  H1  UNL     1     -11.205  21.342  66.532  1.00  0.00     0.000 HD 
HETATM   21  N   UNL     1     -10.384  20.945  66.074  1.00  0.00     0.735 N  
ENDBRANCH  16  17
ENDBRANCH   9  16
ENDBRANCH   6   7
ENDBRANCH   2   6
TORSDOF 4
ENDMDL
MODEL      224
REMARK 921   NORMALIZED FREE ENERGY PREDICTED BY IDOCK:   17.15 KCAL/MOL
REMARK 922        TOTAL FREE ENERGY PREDICTED BY IDOCK:   20.76 KCAL/MOL
REMARK 923 INTER-LIGAND FREE ENERGY PREDICTED BY IDOCK:   15.08 KCAL/MOL
REMARK 924 INTRA-LIGAND FREE ENERGY PREDICTED BY IDOCK:    5.68 KCAL/MOL
REMARK 927      BINDING AFFINITY PREDICTED BY RF-SCORE:    0.00 PKD
ROOT
HETATM    1  N   UNL     1     -11.205  17.731  70.126  1.00  0.00     1.146 N  
HETATM    2  C   UNL     1     -10.750  17.919  68.869  1.00  0.00     0.167 C  
HETATM    3  H2  UNL     1     -10.866  16.921  70.646  1.00  0.00     0.000 HD 
HETATM    4  H1  UNL     1     -11.870  18.353  70.584  1.00  0.00     0.000 HD 
HETATM    5  O   UNL     1      -9.954  17.174  68.321  1.00  0.00    -0.270 OA 
ENDROOT
BRANCH   2   6
HETATM    6  O   UNL     1     -11.286  19.044  68.352  1.00  0.00     0.759 OA 
BRANCH   6   7
HETATM    7  C   UNL     1     -10.570  19.629  67.246  1.00  0.00    -0.472 C  
HETATM    8  C   UNL     1      -9.180  18.983  67.070  1.00  0.00    -0.330 C  
HETATM    9  C   UNL     1      -8.431  19.574  65.863  1.00  0.00    -0.101 C  
HETATM   10  C   UNL     1      -8.341  19.100  68.339  1.00  0.00    -0.384 A  
HETATM   11  C   UNL     1      -7.874  17.943  68.980  1.00  0.00    -0.095 A  
HETATM   12  C   UNL     1      -8.036  20.350  68.904  1.00  0.00     0.511 A  
HETATM   13  C   UNL     1      -7.304  20.437  70.089  1.00  0.00     0.800 A  
HETATM   14  C   UNL     1      -7.138  18.034  70.165  1.00  0.00     1.158 A  
HETATM   15  C   UNL     1      -6.859  19.279  70.721  1.00  0.00     0.850 A  
BRANCH   9  16
HETATM   16  O   UNL     1      -9.187  19.377  64.654  1.00  0.00     2.539 OA 
BRANCH  16  17
HETATM   17  C   UNL     1      -9.954  20.413  64.250  1.00  0.00     3.993 C  
HETATM   18  H2  UNL     1      -8.321  20.998  63.052  1.00  0.00     0.000 HD 
HETATM   19  O   UNL     1     -11.099  20.650  64.594  1.00  0.00     0.506 OA 
HETATM   20  H1  UNL     1      -9.854  21.959  63.062  1.00  0.00     0.000 HD 
HETATM   21  N   UNL     1      -9.274  21.177  63.367  1.00  0.00     4.301 N  
ENDBRANCH  16  17
ENDBRANCH   9  16
ENDBRANCH   6   7
ENDBRANCH   2   6
TORSDOF 4
ENDMDL
MODEL      225
REMARK 921   NORMALIZED FREE ENERGY PREDICTED BY IDOCK:   20.17 KCAL/MOL
REMARK 922        TOTAL FREE ENERGY PREDICTED BY IDOCK:   24.49 KCAL/MOL
REMARK 923 INTER-LIGAND FREE ENERGY PREDICTED BY IDOCK:   24.82 KCAL/MOL
REMARK 924 INTRA-LIGAND FREE ENERGY PREDICTED BY IDOCK:   -0.33 KCAL/MOL
REMARK 927      BINDING AFFINITY PREDICTED BY RF-SCORE:    0.00 PKD
ROOT
HETATM    1  N   UNL     1     -10.383  20.512  68.342  1.00  0.00    -0.066 N  
HETATM    2  C   UNL     1      -9.113  20.569  67.891  1.00  0.00    -0.052 C  
HETATM    3  H2  UNL     1     -11.068  21.152  67.938  1.00  0.00     0.000 HD 
HETATM    4  H1  UNL     1     -10.697  19.864  69.064  1.00  0.00     0.000 HD 
HETATM    5  O   UNL     1      -8.738  21.343  67.026  1.00  0.00     0.264 OA 
ENDROOT
BRANCH   2   6
HETATM    6  O   UNL     1      -8.362  19.640  68.519  1.00  0.00    -0.339 OA 
BRANCH   6   7
HETATM    7  C   UNL     1      -7.175  19.216  67.820  1.00  0.00    -0.240 C  
HETATM    8  C   UNL     1      -6.752  17.792  68.239  1.00  0.00    -0.206 C  
HETATM    9  C   UNL     1      -5.512  17.319  67.462  1.00  0.00    -0.128 C  
HETATM   10  C   UNL     1      -6.521  17.693  69.743  1.00  0.00    -0.057 A  
HETATM   11  C   UNL     1      -7.275  16.795  70.512  1.00  0.00     2.276 A  
HETATM   12  C   UNL     1      -5.575  18.504  70.393  1.00  0.00    -0.212 A  
HETATM   13  C   UNL     1      -5.406  18.432  71.777  1.00  0.00     0.038 A  
HETATM   14  C   UNL     1      -7.101  16.723  71.897  1.00  0.00     7.084 A  
HETATM   15  C   UNL     1      -6.171  17.545  72.528  1.00  0.00     3.678 A  
BRANCH   9  16
HETATM   16  O   UNL     1      -5.770  17.326  66.046  1.00  0.00    -0.269 OA 
BRANCH  16  17
HETATM   17  C   UNL     1      -6.562  16.338  65.575  1.00  0.00     4.071 C  
HETATM   18  H2  UNL     1      -7.889  17.857  64.964  1.00  0.00     0.000 HD 
HETATM   19  O   UNL     1      -6.334  15.141  65.611  1.00  0.00     5.691 OA 
HETATM   20  H1  UNL     1      -8.274  16.115  64.664  1.00  0.00     0.000 HD 
HETATM   21  N   UNL     1      -7.676  16.861  65.020  1.00  0.00     3.286 N  
ENDBRANCH  16  17
ENDBRANCH   9  16
ENDBRANCH   6   7
ENDBRANCH   2   6
TORSDOF 4
ENDMDL
MODEL      226
REMARK 921   NORMALIZED FREE ENERGY PREDICTED BY IDOCK:   20.19 KCAL/MOL
REMARK 922        TOTAL FREE ENERGY PREDICTED BY IDOCK:   24.52 KCAL/MOL
REMARK 923 INTER-LIGAND FREE ENERGY PREDICTED BY IDOCK:   19.00 KCAL/MOL
REMARK 924 INTRA-LIGAND FREE ENERGY PREDICTED BY IDOCK:    5.52 KCAL/MOL
REMARK 927      BINDING AFFINITY PREDICTED BY RF-SCORE:    0.00 PKD
ROOT
HETATM    1  N   UNL     1     -11.285  17.774  70.067  1.00  0.00     1.080 N  
HETATM    2  C   UNL     1     -10.865  17.744  68.785  1.00  0.00     0.179 C  
HETATM    3  H2  UNL     1     -10.977  17.029  70.694  1.00  0.00     0.000 HD 
HETATM    4  H1  UNL     1     -11.895  18.499  70.444  1.00  0.00     0.000 HD 
HETATM    5  O   UNL     1     -10.135  16.876  68.334  1.00  0.00    -0.271 OA 
ENDROOT
BRANCH   2   6
HETATM    6  O   UNL     1     -11.350  18.812  68.119  1.00  0.00     0.376 OA 
BRANCH   6   7
HETATM    7  C   UNL     1     -10.730  19.094  66.848  1.00  0.00    -0.424 C  
HETATM    8  C   UNL     1     -11.324  18.218  65.726  1.00  0.00     1.244 C  
HETATM    9  C   UNL     1     -10.696  18.547  64.360  1.00  0.00     4.427 C  
HETATM   10  C   UNL     1     -11.189  16.731  66.040  1.00  0.00     0.481 A  
HETATM   11  C   UNL     1     -12.333  15.926  66.131  1.00  0.00     1.815 A  
HETATM   12  C   UNL     1      -9.934  16.141  66.267  1.00  0.00    -0.336 A  
HETATM   13  C   UNL     1      -9.831  14.789  66.596  1.00  0.00    -0.270 A  
HETATM   14  C   UNL     1     -12.227  14.571  66.458  1.00  0.00    -0.268 A  
HETATM   15  C   UNL     1     -10.977  14.006  66.695  1.00  0.00    -0.300 A  
BRANCH   9  16
HETATM   16  O   UNL     1     -10.909  19.931  64.027  1.00  0.00     2.452 OA 
BRANCH  16  17
HETATM   17  C   UNL     1      -9.884  20.774  64.279  1.00  0.00     3.516 C  
HETATM   18  H2  UNL     1     -10.691  20.987  66.214  1.00  0.00     0.000 HD 
HETATM   19  O   UNL     1      -8.989  21.084  63.510  1.00  0.00     2.944 OA 
HETATM   20  H1  UNL     1      -9.189  21.873  65.735  1.00  0.00     0.000 HD 
HETATM   21  N   UNL     1      -9.964  21.237  65.545  1.00  0.00     2.352 N  
ENDBRANCH  16  17
ENDBRANCH   9  16
ENDBRANCH   6   7
ENDBRANCH   2   6
TORSDOF 4
ENDMDL
MODEL      227
REMARK 921   NORMALIZED FREE ENERGY PREDICTED BY IDOCK:   25.26 KCAL/MOL
REMARK 922        TOTAL FREE ENERGY PREDICTED BY IDOCK:   30.77 KCAL/MOL
REMARK 923 INTER-LIGAND FREE ENERGY PREDICTED BY IDOCK:   28.79 KCAL/MOL
REMARK 924 INTRA-LIGAND FREE ENERGY PREDICTED BY IDOCK:    1.98 KCAL/MOL
REMARK 927      BINDING AFFINITY PREDICTED BY RF-SCORE:    0.00 PKD
ROOT
HETATM    1  N   UNL     1      -9.069  14.934  73.421  1.00  0.00     7.487 N  
HETATM    2  C   UNL     1      -7.948  14.463  72.835  1.00  0.00     7.613 C  
HETATM    3  H2  UNL     1      -9.494  14.379  74.165  1.00  0.00     0.000 HD 
HETATM    4  H1  UNL     1      -9.514  15.814  73.162  1.00  0.00     0.000 HD 
HETATM    5  O   UNL     1      -7.416  13.410  73.145  1.00  0.00     5.847 OA 
ENDROOT
BRANCH   2   6
HETATM    6  O   UNL     1      -7.520  15.335  71.899  1.00  0.00     3.003 OA 
BRANCH   6   7
HETATM    7  C   UNL     1      -7.636  14.894  70.531  1.00  0.00     0.907 C  
HETATM    8  C   UNL     1      -8.784  15.620  69.800  1.00  0.00     0.043 C  
HETATM    9  C   UNL     1      -8.882  15.185  68.328  1.00  0.00    -0.173 C  
HETATM   10  C   UNL     1     -10.119  15.424  70.513  1.00  0.00     0.208 A  
HETATM   11  C   UNL     1     -10.833  16.535  70.984  1.00  0.00     0.456 A  
HETATM   12  C   UNL     1     -10.649  14.142  70.734  1.00  0.00     1.506 A  
HETATM   13  C   UNL     1     -11.850  13.977  71.426  1.00  0.00     0.051 A  
HETATM   14  C   UNL     1     -12.036  16.367  71.674  1.00  0.00    -0.170 A  
HETATM   15  C   UNL     1     -12.541  15.089  71.900  1.00  0.00    -0.403 A  
BRANCH   9  16
HETATM   16  O   UNL     1      -7.649  15.460  67.637  1.00  0.00    -0.136 OA 
BRANCH  16  17
HETATM   17  C   UNL     1      -6.710  14.489  67.675  1.00  0.00    -0.173 C  
HETATM   18  H2  UNL     1      -6.349  14.925  65.645  1.00  0.00     0.000 HD 
HETATM   19  O   UNL     1      -6.400  13.812  68.641  1.00  0.00    -0.080 OA 
HETATM   20  H1  UNL     1      -5.411  13.634  66.496  1.00  0.00     0.000 HD 
HETATM   21  N   UNL     1      -6.120  14.367  66.467  1.00  0.00     2.809 N  
ENDBRANCH  16  17
ENDBRANCH   9  16
ENDBRANCH   6   7
ENDBRANCH   2   6
TORSDOF 4
ENDMDL
