MODEL        1
REMARK 921   NORMALIZED FREE ENERGY PREDICTED BY IDOCK:   -6.20 KCAL/MOL
REMARK 922        TOTAL FREE ENERGY PREDICTED BY IDOCK:   -9.59 KCAL/MOL
REMARK 923 INTER-LIGAND FREE ENERGY PREDICTED BY IDOCK:   -8.37 KCAL/MOL
REMARK 924 INTRA-LIGAND FREE ENERGY PREDICTED BY IDOCK:   -1.22 KCAL/MOL
REMARK 927      BINDING AFFINITY PREDICTED BY RF-SCORE:    0.00 PKD
ROOT
HETATM    1  C   UNL     1     -10.812   9.515  71.089  1.00  0.00    -0.425 C  
HETATM    2  C   UNL     1     -10.414   9.722  69.644  1.00  0.00    -0.242 C  
ENDROOT
BRANCH   2   3
HETATM    3  O   UNL     1     -10.408  11.137  69.437  1.00  0.00    -0.173 OA 
BRANCH   3   4
HETATM    4  C   UNL     1     -11.447  11.703  68.787  1.00  0.00    -0.285 C  
HETATM    5  O   UNL     1     -12.491  11.147  68.469  1.00  0.00    -0.452 OA 
BRANCH   4   6
HETATM    6  C   UNL     1     -11.210  13.163  68.671  1.00  0.00    -0.314 C  
HETATM    7  C   UNL     1     -11.654  14.053  69.590  1.00  0.00    -0.289 C  
HETATM    8  C   UNL     1     -12.399  13.758  70.872  1.00  0.00    -0.456 C  
HETATM    9  N   UNL     1     -11.438  15.405  69.389  1.00  0.00    -0.300 NA 
HETATM   10  C   UNL     1     -10.897  15.964  68.249  1.00  0.00    -0.315 C  
HETATM   11  C   UNL     1     -10.909  17.475  68.226  1.00  0.00    -0.223 C  
HETATM   12  C   UNL     1     -10.405  15.169  67.265  1.00  0.00    -0.261 C  
HETATM   13  C   UNL     1     -10.456  13.638  67.403  1.00  0.00    -0.251 C  
BRANCH  12  14
HETATM   14  C   UNL     1      -9.827  15.796  66.046  1.00  0.00    -0.337 C  
HETATM   15  O   UNL     1     -10.492  16.238  65.120  1.00  0.00    -0.591 OA 
BRANCH  14  16
HETATM   16  O   UNL     1      -8.472  15.825  66.098  1.00  0.00    -0.291 OA 
HETATM   17  C   UNL     1      -7.925  17.139  66.275  1.00  0.00    -0.304 C  
ENDBRANCH  14  16
ENDBRANCH  12  14
BRANCH  13  18
HETATM   18  C   UNL     1     -10.938  12.903  66.134  1.00  0.00    -0.304 A  
HETATM   19  C   UNL     1     -12.235  13.214  65.658  1.00  0.00    -0.521 A  
HETATM   20  C   UNL     1     -12.713  12.708  64.450  1.00  0.00    -0.417 A  
HETATM   21  C   UNL     1     -10.145  12.023  65.368  1.00  0.00    -0.256 A  
HETATM   22  C   UNL     1     -10.634  11.521  64.145  1.00  0.00    -0.363 A  
HETATM   23 CL   UNL     1      -8.556  11.577  65.901  1.00  0.00    -0.062 Cl 
HETATM   24 CL   UNL     1      -9.693  10.495  63.114  1.00  0.00    -0.364 Cl 
HETATM   25  C   UNL     1     -11.909  11.873  63.688  1.00  0.00    -0.573 A  
ENDBRANCH  13  18
ENDBRANCH   4   6
ENDBRANCH   3   4
ENDBRANCH   2   3
TORSDOF 6
ENDMDL
MODEL        2
REMARK 921   NORMALIZED FREE ENERGY PREDICTED BY IDOCK:   -5.99 KCAL/MOL
REMARK 922        TOTAL FREE ENERGY PREDICTED BY IDOCK:   -9.31 KCAL/MOL
REMARK 923 INTER-LIGAND FREE ENERGY PREDICTED BY IDOCK:   -8.15 KCAL/MOL
REMARK 924 INTRA-LIGAND FREE ENERGY PREDICTED BY IDOCK:   -1.16 KCAL/MOL
REMARK 927      BINDING AFFINITY PREDICTED BY RF-SCORE:    0.00 PKD
ROOT
HETATM    1  C   UNL     1     -13.285   9.890  71.479  1.00  0.00    -0.501 C  
HETATM    2  C   UNL     1     -12.506  11.044  70.888  1.00  0.00    -0.410 C  
ENDROOT
BRANCH   2   3
HETATM    3  O   UNL     1     -12.222  10.676  69.536  1.00  0.00    -0.271 OA 
BRANCH   3   4
HETATM    4  C   UNL     1     -10.958  10.808  69.078  1.00  0.00    -0.240 C  
HETATM    5  O   UNL     1      -9.933  10.630  69.724  1.00  0.00    -0.137 OA 
BRANCH   4   6
HETATM    6  C   UNL     1     -10.995  11.030  67.611  1.00  0.00    -0.332 C  
HETATM    7  C   UNL     1     -10.510  10.131  66.723  1.00  0.00    -0.204 C  
HETATM    8  C   UNL     1      -9.909   8.775  67.019  1.00  0.00    -0.279 C  
HETATM    9  N   UNL     1     -10.532  10.429  65.372  1.00  0.00    -0.191 NA 
HETATM   10  C   UNL     1     -10.908  11.641  64.829  1.00  0.00    -0.308 C  
HETATM   11  C   UNL     1     -10.698  11.751  63.337  1.00  0.00    -0.468 C  
HETATM   12  C   UNL     1     -11.423  12.614  65.623  1.00  0.00    -0.387 C  
HETATM   13  C   UNL     1     -11.582  12.382  67.135  1.00  0.00    -0.435 C  
BRANCH  12  14
HETATM   14  C   UNL     1     -11.820  13.912  65.014  1.00  0.00    -0.373 C  
HETATM   15  O   UNL     1     -12.978  14.270  64.855  1.00  0.00    -0.682 OA 
BRANCH  14  16
HETATM   16  O   UNL     1     -10.736  14.651  64.671  1.00  0.00    -0.393 OA 
HETATM   17  C   UNL     1     -10.872  16.051  64.955  1.00  0.00    -0.404 C  
ENDBRANCH  14  16
ENDBRANCH  12  14
BRANCH  13  18
HETATM   18  C   UNL     1     -11.105  13.560  68.011  1.00  0.00    -0.283 A  
HETATM   19  C   UNL     1     -12.071  14.187  68.835  1.00  0.00    -0.339 A  
HETATM   20  C   UNL     1     -11.719  15.169  69.761  1.00  0.00    -0.347 A  
HETATM   21  C   UNL     1      -9.765  13.987  68.120  1.00  0.00    -0.220 A  
HETATM   22  C   UNL     1      -9.417  14.975  69.063  1.00  0.00    -0.210 A  
HETATM   23 CL   UNL     1      -8.531  13.281  67.126  1.00  0.00    -0.201 Cl 
HETATM   24 CL   UNL     1      -7.783  15.498  69.306  1.00  0.00    -0.208 Cl 
HETATM   25  C   UNL     1     -10.391  15.553  69.883  1.00  0.00    -0.322 A  
ENDBRANCH  13  18
ENDBRANCH   4   6
ENDBRANCH   3   4
ENDBRANCH   2   3
TORSDOF 6
ENDMDL
MODEL        3
REMARK 921   NORMALIZED FREE ENERGY PREDICTED BY IDOCK:   -5.95 KCAL/MOL
REMARK 922        TOTAL FREE ENERGY PREDICTED BY IDOCK:   -9.26 KCAL/MOL
REMARK 923 INTER-LIGAND FREE ENERGY PREDICTED BY IDOCK:   -8.00 KCAL/MOL
REMARK 924 INTRA-LIGAND FREE ENERGY PREDICTED BY IDOCK:   -1.26 KCAL/MOL
REMARK 927      BINDING AFFINITY PREDICTED BY RF-SCORE:    0.00 PKD
ROOT
HETATM    1  C   UNL     1     -11.248   9.675  71.343  1.00  0.00    -0.426 C  
HETATM    2  C   UNL     1     -10.535   9.523  70.017  1.00  0.00    -0.247 C  
ENDROOT
BRANCH   2   3
HETATM    3  O   UNL     1     -10.319  10.851  69.532  1.00  0.00    -0.198 OA 
BRANCH   3   4
HETATM    4  C   UNL     1     -11.262  11.418  68.749  1.00  0.00    -0.247 C  
HETATM    5  O   UNL     1     -12.246  10.859  68.281  1.00  0.00    -0.526 OA 
BRANCH   4   6
HETATM    6  C   UNL     1     -11.022  12.881  68.684  1.00  0.00    -0.295 C  
HETATM    7  C   UNL     1     -11.662  13.764  69.487  1.00  0.00    -0.323 C  
HETATM    8  C   UNL     1     -12.659  13.458  70.582  1.00  0.00    -0.325 C  
HETATM    9  N   UNL     1     -11.424  15.119  69.334  1.00  0.00    -0.286 NA 
HETATM   10  C   UNL     1     -10.660  15.686  68.335  1.00  0.00    -0.252 C  
HETATM   11  C   UNL     1     -10.685  17.196  68.308  1.00  0.00    -0.363 C  
HETATM   12  C   UNL     1      -9.960  14.898  67.479  1.00  0.00    -0.219 C  
HETATM   13  C   UNL     1     -10.022  13.367  67.605  1.00  0.00    -0.229 C  
BRANCH  12  14
HETATM   14  C   UNL     1      -9.144  15.534  66.410  1.00  0.00    -0.316 C  
HETATM   15  O   UNL     1      -9.587  15.888  65.328  1.00  0.00    -0.354 OA 
BRANCH  14  16
HETATM   16  O   UNL     1      -7.852  15.679  66.794  1.00  0.00    -0.228 OA 
HETATM   17  C   UNL     1      -7.296  16.967  66.489  1.00  0.00    -0.281 C  
ENDBRANCH  14  16
ENDBRANCH  12  14
BRANCH  13  18
HETATM   18  C   UNL     1     -10.214  12.627  66.264  1.00  0.00    -0.264 A  
HETATM   19  C   UNL     1      -9.229  11.675  65.902  1.00  0.00    -0.206 A  
HETATM   20  C   UNL     1      -9.376  10.858  64.781  1.00  0.00    -0.259 A  
HETATM   21  C   UNL     1     -11.343  12.761  65.430  1.00  0.00    -0.304 A  
HETATM   22  C   UNL     1     -11.487  11.927  64.302  1.00  0.00    -0.346 A  
HETATM   23 CL   UNL     1     -12.578  13.922  65.797  1.00  0.00    -0.536 Cl 
HETATM   24 CL   UNL     1     -12.879  11.982  63.272  1.00  0.00    -0.533 Cl 
HETATM   25  C   UNL     1     -10.510  10.976  63.989  1.00  0.00    -0.433 A  
ENDBRANCH  13  18
ENDBRANCH   4   6
ENDBRANCH   3   4
ENDBRANCH   2   3
TORSDOF 6
ENDMDL
MODEL        4
REMARK 921   NORMALIZED FREE ENERGY PREDICTED BY IDOCK:   -5.93 KCAL/MOL
REMARK 922        TOTAL FREE ENERGY PREDICTED BY IDOCK:   -9.23 KCAL/MOL
REMARK 923 INTER-LIGAND FREE ENERGY PREDICTED BY IDOCK:   -8.20 KCAL/MOL
REMARK 924 INTRA-LIGAND FREE ENERGY PREDICTED BY IDOCK:   -1.02 KCAL/MOL
REMARK 927      BINDING AFFINITY PREDICTED BY RF-SCORE:    0.00 PKD
ROOT
HETATM    1  C   UNL     1     -13.988  15.692  72.840  1.00  0.00    -0.477 C  
HETATM    2  C   UNL     1     -14.201  15.091  71.468  1.00  0.00    -0.540 C  
ENDROOT
BRANCH   2   3
HETATM    3  O   UNL     1     -13.256  15.732  70.607  1.00  0.00    -0.501 OA 
BRANCH   3   4
HETATM    4  C   UNL     1     -12.009  15.222  70.517  1.00  0.00    -0.344 C  
HETATM    5  O   UNL     1     -11.111  15.358  71.339  1.00  0.00    -0.364 OA 
BRANCH   4   6
HETATM    6  C   UNL     1     -11.939  14.314  69.345  1.00  0.00    -0.381 C  
HETATM    7  C   UNL     1     -12.060  12.970  69.452  1.00  0.00    -0.212 C  
HETATM    8  C   UNL     1     -12.322  12.166  70.707  1.00  0.00    -0.391 C  
HETATM    9  N   UNL     1     -11.935  12.183  68.322  1.00  0.00    -0.422 NA 
HETATM   10  C   UNL     1     -11.572  12.638  67.070  1.00  0.00    -0.365 C  
HETATM   11  C   UNL     1     -11.362  11.549  66.044  1.00  0.00    -0.184 C  
HETATM   12  C   UNL     1     -11.436  13.969  66.840  1.00  0.00    -0.373 C  
HETATM   13  C   UNL     1     -11.671  14.982  67.973  1.00  0.00    -0.320 C  
BRANCH  12  14
HETATM   14  C   UNL     1     -11.044  14.434  65.483  1.00  0.00    -0.326 C  
HETATM   15  O   UNL     1      -9.887  14.571  65.112  1.00  0.00    -0.296 OA 
BRANCH  14  16
HETATM   16  O   UNL     1     -12.130  14.676  64.708  1.00  0.00    -0.421 OA 
HETATM   17  C   UNL     1     -12.248  13.796  63.581  1.00  0.00    -0.256 C  
ENDBRANCH  14  16
ENDBRANCH  12  14
BRANCH  13  18
HETATM   18  C   UNL     1     -10.598  16.088  68.068  1.00  0.00    -0.295 A  
HETATM   19  C   UNL     1     -11.027  17.424  67.875  1.00  0.00    -0.156 A  
HETATM   20  C   UNL     1     -10.168  18.505  68.072  1.00  0.00    -0.415 A  
HETATM   21  C   UNL     1      -9.252  15.870  68.428  1.00  0.00    -0.197 A  
HETATM   22  C   UNL     1      -8.393  16.969  68.631  1.00  0.00    -0.264 A  
HETATM   23 CL   UNL     1      -8.651  14.259  68.658  1.00  0.00    -0.171 Cl 
HETATM   24 CL   UNL     1      -6.748  16.784  69.145  1.00  0.00    -0.212 Cl 
HETATM   25  C   UNL     1      -8.855  18.278  68.462  1.00  0.00    -0.322 A  
ENDBRANCH  13  18
ENDBRANCH   4   6
ENDBRANCH   3   4
ENDBRANCH   2   3
TORSDOF 6
ENDMDL
MODEL        5
REMARK 921   NORMALIZED FREE ENERGY PREDICTED BY IDOCK:   -5.76 KCAL/MOL
REMARK 922        TOTAL FREE ENERGY PREDICTED BY IDOCK:   -9.00 KCAL/MOL
REMARK 923 INTER-LIGAND FREE ENERGY PREDICTED BY IDOCK:   -7.88 KCAL/MOL
REMARK 924 INTRA-LIGAND FREE ENERGY PREDICTED BY IDOCK:   -1.13 KCAL/MOL
REMARK 927      BINDING AFFINITY PREDICTED BY RF-SCORE:    0.00 PKD
ROOT
HETATM    1  C   UNL     1      -6.600  11.656  66.844  1.00  0.00    -0.129 C  
HETATM    2  C   UNL     1      -6.541  13.003  67.532  1.00  0.00    -0.155 C  
ENDROOT
BRANCH   2   3
HETATM    3  O   UNL     1      -7.681  13.053  68.394  1.00  0.00    -0.129 OA 
BRANCH   3   4
HETATM    4  C   UNL     1      -8.287  14.242  68.601  1.00  0.00    -0.135 C  
HETATM    5  O   UNL     1      -8.112  14.987  69.557  1.00  0.00    -0.195 OA 
BRANCH   4   6
HETATM    6  C   UNL     1      -9.075  14.600  67.396  1.00  0.00    -0.203 C  
HETATM    7  C   UNL     1      -8.757  15.646  66.597  1.00  0.00    -0.298 C  
HETATM    8  C   UNL     1      -7.578  16.582  66.732  1.00  0.00    -0.298 C  
HETATM    9  N   UNL     1      -9.568  15.950  65.518  1.00  0.00    -0.402 NA 
HETATM   10  C   UNL     1     -10.774  15.342  65.231  1.00  0.00    -0.415 C  
HETATM   11  C   UNL     1     -11.531  15.964  64.081  1.00  0.00    -0.058 C  
HETATM   12  C   UNL     1     -11.189  14.273  65.956  1.00  0.00    -0.324 C  
HETATM   13  C   UNL     1     -10.329  13.734  67.112  1.00  0.00    -0.261 C  
BRANCH  12  14
HETATM   14  C   UNL     1     -12.493  13.635  65.628  1.00  0.00    -0.496 C  
HETATM   15  O   UNL     1     -13.573  14.203  65.702  1.00  0.00    -0.470 OA 
BRANCH  14  16
HETATM   16  O   UNL     1     -12.329  12.351  65.226  1.00  0.00    -0.563 OA 
HETATM   17  C   UNL     1     -12.002  12.213  63.836  1.00  0.00    -0.486 C  
ENDBRANCH  14  16
ENDBRANCH  12  14
BRANCH  13  18
HETATM   18  C   UNL     1     -11.120  13.423  68.400  1.00  0.00    -0.301 A  
HETATM   19  C   UNL     1     -11.216  12.065  68.789  1.00  0.00    -0.316 A  
HETATM   20  C   UNL     1     -11.791  11.688  70.003  1.00  0.00    -0.435 A  
HETATM   21  C   UNL     1     -11.665  14.398  69.262  1.00  0.00    -0.317 A  
HETATM   22  C   UNL     1     -12.238  14.010  70.490  1.00  0.00    -0.365 A  
HETATM   23 CL   UNL     1     -11.605  16.080  68.840  1.00  0.00    -0.374 Cl 
HETATM   24 CL   UNL     1     -12.861  15.154  71.632  1.00  0.00    -0.399 Cl 
HETATM   25  C   UNL     1     -12.290  12.661  70.858  1.00  0.00    -0.352 A  
ENDBRANCH  13  18
ENDBRANCH   4   6
ENDBRANCH   3   4
ENDBRANCH   2   3
TORSDOF 6
ENDMDL
MODEL        6
REMARK 921   NORMALIZED FREE ENERGY PREDICTED BY IDOCK:   -5.63 KCAL/MOL
REMARK 922        TOTAL FREE ENERGY PREDICTED BY IDOCK:   -8.82 KCAL/MOL
REMARK 923 INTER-LIGAND FREE ENERGY PREDICTED BY IDOCK:   -7.77 KCAL/MOL
REMARK 924 INTRA-LIGAND FREE ENERGY PREDICTED BY IDOCK:   -1.05 KCAL/MOL
REMARK 927      BINDING AFFINITY PREDICTED BY RF-SCORE:    0.00 PKD
ROOT
HETATM    1  C   UNL     1      -7.828   9.526  70.386  1.00  0.00    -0.190 C  
HETATM    2  C   UNL     1      -9.341   9.543  70.351  1.00  0.00    -0.257 C  
ENDROOT
BRANCH   2   3
HETATM    3  O   UNL     1      -9.702  10.551  69.404  1.00  0.00    -0.215 OA 
BRANCH   3   4
HETATM    4  C   UNL     1     -10.965  10.572  68.926  1.00  0.00    -0.246 C  
HETATM    5  O   UNL     1     -11.991  10.534  69.593  1.00  0.00    -0.262 OA 
BRANCH   4   6
HETATM    6  C   UNL     1     -10.926  10.829  67.465  1.00  0.00    -0.372 C  
HETATM    7  C   UNL     1     -10.368   9.966  66.584  1.00  0.00    -0.205 C  
HETATM    8  C   UNL     1      -9.745   8.620  66.882  1.00  0.00    -0.278 C  
HETATM    9  N   UNL     1     -10.324  10.297  65.241  1.00  0.00    -0.232 NA 
HETATM   10  C   UNL     1     -10.704  11.512  64.707  1.00  0.00    -0.306 C  
HETATM   11  C   UNL     1     -10.415  11.666  63.233  1.00  0.00    -0.438 C  
HETATM   12  C   UNL     1     -11.290  12.450  65.493  1.00  0.00    -0.387 C  
HETATM   13  C   UNL     1     -11.525  12.177  66.988  1.00  0.00    -0.415 C  
BRANCH  12  14
HETATM   14  C   UNL     1     -11.690  13.752  64.895  1.00  0.00    -0.363 C  
HETATM   15  O   UNL     1     -12.845  14.070  64.652  1.00  0.00    -0.661 OA 
BRANCH  14  16
HETATM   16  O   UNL     1     -10.613  14.543  64.664  1.00  0.00    -0.405 OA 
HETATM   17  C   UNL     1     -10.715  15.850  65.247  1.00  0.00    -0.424 C  
ENDBRANCH  14  16
ENDBRANCH  12  14
BRANCH  13  18
HETATM   18  C   UNL     1     -11.131  13.345  67.917  1.00  0.00    -0.289 A  
HETATM   19  C   UNL     1     -12.150  13.898  68.731  1.00  0.00    -0.344 A  
HETATM   20  C   UNL     1     -11.873  14.863  69.699  1.00  0.00    -0.356 A  
HETATM   21  C   UNL     1      -9.816  13.829  68.082  1.00  0.00    -0.239 A  
HETATM   22  C   UNL     1      -9.544  14.800  69.068  1.00  0.00    -0.178 A  
HETATM   23 CL   UNL     1      -8.521  13.216  67.105  1.00  0.00    -0.190 Cl 
HETATM   24 CL   UNL     1      -7.945  15.390  69.379  1.00  0.00    -0.230 Cl 
HETATM   25  C   UNL     1     -10.568  15.304  69.876  1.00  0.00    -0.291 A  
ENDBRANCH  13  18
ENDBRANCH   4   6
ENDBRANCH   3   4
ENDBRANCH   2   3
TORSDOF 6
ENDMDL
MODEL        7
REMARK 921   NORMALIZED FREE ENERGY PREDICTED BY IDOCK:   -5.58 KCAL/MOL
REMARK 922        TOTAL FREE ENERGY PREDICTED BY IDOCK:   -8.76 KCAL/MOL
REMARK 923 INTER-LIGAND FREE ENERGY PREDICTED BY IDOCK:   -7.37 KCAL/MOL
REMARK 924 INTRA-LIGAND FREE ENERGY PREDICTED BY IDOCK:   -1.40 KCAL/MOL
REMARK 927      BINDING AFFINITY PREDICTED BY RF-SCORE:    0.00 PKD
ROOT
HETATM    1  C   UNL     1     -10.414  10.964  65.630  1.00  0.00    -0.274 C  
HETATM    2  C   UNL     1     -10.397   9.868  66.674  1.00  0.00    -0.205 C  
ENDROOT
BRANCH   2   3
HETATM    3  O   UNL     1     -11.071  10.403  67.816  1.00  0.00    -0.295 OA 
BRANCH   3   4
HETATM    4  C   UNL     1     -10.334  10.837  68.861  1.00  0.00    -0.202 C  
HETATM    5  O   UNL     1      -9.113  10.798  68.951  1.00  0.00    -0.168 OA 
BRANCH   4   6
HETATM    6  C   UNL     1     -11.220  11.539  69.822  1.00  0.00    -0.237 C  
HETATM    7  C   UNL     1     -12.063  10.884  70.654  1.00  0.00    -0.371 C  
HETATM    8  C   UNL     1     -12.232   9.388  70.803  1.00  0.00    -0.228 C  
HETATM    9  N   UNL     1     -12.896  11.608  71.488  1.00  0.00    -0.401 NA 
HETATM   10  C   UNL     1     -13.041  12.980  71.473  1.00  0.00    -0.310 C  
HETATM   11  C   UNL     1     -14.127  13.505  72.383  1.00  0.00    -0.563 C  
HETATM   12  C   UNL     1     -12.240  13.743  70.688  1.00  0.00    -0.434 C  
HETATM   13  C   UNL     1     -11.171  13.088  69.797  1.00  0.00    -0.010 C  
BRANCH  12  14
HETATM   14  C   UNL     1     -12.416  15.220  70.689  1.00  0.00    -0.406 C  
HETATM   15  O   UNL     1     -13.267  15.811  70.040  1.00  0.00    -0.056 OA 
BRANCH  14  16
HETATM   16  O   UNL     1     -11.521  15.826  71.509  1.00  0.00    -0.390 OA 
HETATM   17  C   UNL     1     -12.100  16.364  72.706  1.00  0.00    -0.478 C  
ENDBRANCH  14  16
ENDBRANCH  12  14
BRANCH  13  18
HETATM   18  C   UNL     1     -11.118  13.641  68.357  1.00  0.00    -0.289 A  
HETATM   19  C   UNL     1     -12.266  13.454  67.548  1.00  0.00    -0.231 A  
HETATM   20  C   UNL     1     -12.373  14.030  66.283  1.00  0.00    -0.482 A  
HETATM   21  C   UNL     1     -10.053  14.400  67.828  1.00  0.00    -0.226 A  
HETATM   22  C   UNL     1     -10.173  14.984  66.551  1.00  0.00    -0.275 A  
HETATM   23 CL   UNL     1      -8.606  14.652  68.751  1.00  0.00    -0.168 Cl 
HETATM   24 CL   UNL     1      -8.939  15.989  65.865  1.00  0.00    -0.331 Cl 
HETATM   25  C   UNL     1     -11.333  14.805  65.790  1.00  0.00    -0.336 A  
ENDBRANCH  13  18
ENDBRANCH   4   6
ENDBRANCH   3   4
ENDBRANCH   2   3
TORSDOF 6
ENDMDL
MODEL        8
REMARK 921   NORMALIZED FREE ENERGY PREDICTED BY IDOCK:   -5.57 KCAL/MOL
REMARK 922        TOTAL FREE ENERGY PREDICTED BY IDOCK:   -8.75 KCAL/MOL
REMARK 923 INTER-LIGAND FREE ENERGY PREDICTED BY IDOCK:   -7.63 KCAL/MOL
REMARK 924 INTRA-LIGAND FREE ENERGY PREDICTED BY IDOCK:   -1.12 KCAL/MOL
REMARK 927      BINDING AFFINITY PREDICTED BY RF-SCORE:    0.00 PKD
ROOT
HETATM    1  C   UNL     1     -12.408   9.777  71.620  1.00  0.00    -0.495 C  
HETATM    2  C   UNL     1     -11.162   9.466  70.820  1.00  0.00    -0.302 C  
ENDROOT
BRANCH   2   3
HETATM    3  O   UNL     1     -11.201  10.329  69.680  1.00  0.00    -0.241 OA 
BRANCH   3   4
HETATM    4  C   UNL     1     -10.059  10.555  68.997  1.00  0.00    -0.217 C  
HETATM    5  O   UNL     1      -8.920  10.430  69.430  1.00  0.00    -0.194 OA 
BRANCH   4   6
HETATM    6  C   UNL     1     -10.388  10.808  67.573  1.00  0.00    -0.244 C  
HETATM    7  C   UNL     1     -10.065   9.944  66.581  1.00  0.00    -0.233 C  
HETATM    8  C   UNL     1      -9.384   8.601  66.717  1.00  0.00    -0.229 C  
HETATM    9  N   UNL     1     -10.360  10.272  65.270  1.00  0.00    -0.232 NA 
HETATM   10  C   UNL     1     -10.865  11.484  64.845  1.00  0.00    -0.283 C  
HETATM   11  C   UNL     1     -10.954  11.635  63.345  1.00  0.00    -0.442 C  
HETATM   12  C   UNL     1     -11.238  12.423  65.751  1.00  0.00    -0.370 C  
HETATM   13  C   UNL     1     -11.091  12.153  67.258  1.00  0.00    -0.341 C  
BRANCH  12  14
HETATM   14  C   UNL     1     -11.779  13.722  65.269  1.00  0.00    -0.338 C  
HETATM   15  O   UNL     1     -12.955  14.048  65.347  1.00  0.00    -0.726 OA 
BRANCH  14  16
HETATM   16  O   UNL     1     -10.802  14.502  64.743  1.00  0.00    -0.399 OA 
HETATM   17  C   UNL     1     -10.986  15.905  64.982  1.00  0.00    -0.412 C  
ENDBRANCH  14  16
ENDBRANCH  12  14
BRANCH  13  18
HETATM   18  C   UNL     1     -10.480  13.325  68.056  1.00  0.00    -0.248 A  
HETATM   19  C   UNL     1      -9.235  13.832  67.612  1.00  0.00    -0.207 A  
HETATM   20  C   UNL     1      -8.664  14.972  68.178  1.00  0.00    -0.165 A  
HETATM   21  C   UNL     1     -11.119  13.982  69.129  1.00  0.00    -0.259 A  
HETATM   22  C   UNL     1     -10.537  15.137  69.690  1.00  0.00    -0.263 A  
HETATM   23 CL   UNL     1     -12.634  13.403  69.742  1.00  0.00    -0.093 Cl 
HETATM   24 CL   UNL     1     -11.296  16.041  70.960  1.00  0.00    -0.427 Cl 
HETATM   25  C   UNL     1      -9.321  15.631  69.208  1.00  0.00    -0.267 A  
ENDBRANCH  13  18
ENDBRANCH   4   6
ENDBRANCH   3   4
ENDBRANCH   2   3
TORSDOF 6
ENDMDL
MODEL        9
REMARK 921   NORMALIZED FREE ENERGY PREDICTED BY IDOCK:   -5.57 KCAL/MOL
REMARK 922        TOTAL FREE ENERGY PREDICTED BY IDOCK:   -8.74 KCAL/MOL
REMARK 923 INTER-LIGAND FREE ENERGY PREDICTED BY IDOCK:   -7.25 KCAL/MOL
REMARK 924 INTRA-LIGAND FREE ENERGY PREDICTED BY IDOCK:   -1.49 KCAL/MOL
REMARK 927      BINDING AFFINITY PREDICTED BY RF-SCORE:    0.00 PKD
ROOT
HETATM    1  C   UNL     1     -11.789  11.991  63.807  1.00  0.00    -0.581 C  
HETATM    2  C   UNL     1     -12.402  12.912  64.839  1.00  0.00    -0.475 C  
ENDROOT
BRANCH   2   3
HETATM    3  O   UNL     1     -12.286  12.231  66.091  1.00  0.00    -0.647 OA 
BRANCH   3   4
HETATM    4  C   UNL     1     -11.237  12.520  66.892  1.00  0.00    -0.303 C  
HETATM    5  O   UNL     1     -10.486  13.481  66.783  1.00  0.00    -0.269 OA 
BRANCH   4   6
HETATM    6  C   UNL     1     -11.236  11.586  68.045  1.00  0.00    -0.335 C  
HETATM    7  C   UNL     1     -11.562  11.972  69.301  1.00  0.00    -0.321 C  
HETATM    8  C   UNL     1     -12.013  13.342  69.755  1.00  0.00    -0.391 C  
HETATM    9  N   UNL     1     -11.490  11.056  70.335  1.00  0.00    -0.279 NA 
HETATM   10  C   UNL     1     -10.992   9.773  70.230  1.00  0.00    -0.298 C  
HETATM   11  C   UNL     1     -10.888   9.032  71.543  1.00  0.00    -0.416 C  
HETATM   12  C   UNL     1     -10.646   9.272  69.018  1.00  0.00    -0.225 C  
HETATM   13  C   UNL     1     -10.792  10.130  67.750  1.00  0.00    -0.346 C  
BRANCH  12  14
HETATM   14  C   UNL     1     -10.110   7.886  68.931  1.00  0.00    -0.197 C  
HETATM   15  O   UNL     1      -8.938   7.591  69.111  1.00  0.00    -0.136 OA 
BRANCH  14  16
HETATM   16  O   UNL     1     -11.089   6.994  68.637  1.00  0.00    -0.129 OA 
HETATM   17  C   UNL     1     -10.980   6.422  67.326  1.00  0.00    -0.392 C  
ENDBRANCH  14  16
ENDBRANCH  12  14
BRANCH  13  18
HETATM   18  C   UNL     1      -9.574  10.078  66.804  1.00  0.00    -0.228 A  
HETATM   19  C   UNL     1      -9.786   9.560  65.503  1.00  0.00    -0.344 A  
HETATM   20  C   UNL     1      -8.788   9.593  64.529  1.00  0.00    -0.257 A  
HETATM   21  C   UNL     1      -8.299  10.598  67.110  1.00  0.00    -0.125 A  
HETATM   22  C   UNL     1      -7.298  10.633  66.117  1.00  0.00    -0.138 A  
HETATM   23 CL   UNL     1      -7.959  11.228  68.690  1.00  0.00    -0.140 Cl 
HETATM   24 CL   UNL     1      -5.732  11.322  66.395  1.00  0.00    -0.145 Cl 
HETATM   25  C   UNL     1      -7.549  10.140  64.833  1.00  0.00    -0.138 A  
ENDBRANCH  13  18
ENDBRANCH   4   6
ENDBRANCH   3   4
ENDBRANCH   2   3
TORSDOF 6
ENDMDL
MODEL       10
REMARK 921   NORMALIZED FREE ENERGY PREDICTED BY IDOCK:   -5.52 KCAL/MOL
REMARK 922        TOTAL FREE ENERGY PREDICTED BY IDOCK:   -8.68 KCAL/MOL
REMARK 923 INTER-LIGAND FREE ENERGY PREDICTED BY IDOCK:   -7.35 KCAL/MOL
REMARK 924 INTRA-LIGAND FREE ENERGY PREDICTED BY IDOCK:   -1.33 KCAL/MOL
REMARK 927      BINDING AFFINITY PREDICTED BY RF-SCORE:    0.00 PKD
ROOT
HETATM    1  C   UNL     1      -6.716  11.730  67.178  1.00  0.00    -0.145 C  
HETATM    2  C   UNL     1      -6.979  12.549  68.423  1.00  0.00    -0.096 C  
ENDROOT
BRANCH   2   3
HETATM    3  O   UNL     1      -7.100  13.905  67.983  1.00  0.00    -0.110 OA 
BRANCH   3   4
HETATM    4  C   UNL     1      -8.177  14.620  68.373  1.00  0.00    -0.154 C  
HETATM    5  O   UNL     1      -8.360  15.105  69.484  1.00  0.00    -0.223 OA 
BRANCH   4   6
HETATM    6  C   UNL     1      -9.035  14.888  67.193  1.00  0.00    -0.230 C  
HETATM    7  C   UNL     1      -8.877  15.978  66.405  1.00  0.00    -0.328 C  
HETATM    8  C   UNL     1      -7.827  17.059  66.529  1.00  0.00    -0.331 C  
HETATM    9  N   UNL     1      -9.748  16.187  65.350  1.00  0.00    -0.433 NA 
HETATM   10  C   UNL     1     -10.870  15.430  65.081  1.00  0.00    -0.431 C  
HETATM   11  C   UNL     1     -11.731  15.963  63.960  1.00  0.00     0.137 C  
HETATM   12  C   UNL     1     -11.123  14.306  65.797  1.00  0.00    -0.310 C  
HETATM   13  C   UNL     1     -10.171  13.869  66.924  1.00  0.00    -0.257 C  
BRANCH  12  14
HETATM   14  C   UNL     1     -12.340  13.507  65.489  1.00  0.00    -0.481 C  
HETATM   15  O   UNL     1     -13.483  13.916  65.627  1.00  0.00    -0.590 OA 
BRANCH  14  16
HETATM   16  O   UNL     1     -12.019  12.274  65.025  1.00  0.00    -0.385 OA 
HETATM   17  C   UNL     1     -12.272  12.095  63.624  1.00  0.00    -0.562 C  
ENDBRANCH  14  16
ENDBRANCH  12  14
BRANCH  13  18
HETATM   18  C   UNL     1     -10.882  13.439  68.225  1.00  0.00    -0.275 A  
HETATM   19  C   UNL     1     -11.582  14.440  68.942  1.00  0.00    -0.340 A  
HETATM   20  C   UNL     1     -12.366  14.132  70.053  1.00  0.00    -0.403 A  
HETATM   21  C   UNL     1     -10.964  12.110  68.692  1.00  0.00    -0.245 A  
HETATM   22  C   UNL     1     -11.764  11.808  69.812  1.00  0.00    -0.335 A  
HETATM   23 CL   UNL     1     -10.114  10.836  67.878  1.00  0.00    -0.190 Cl 
HETATM   24 CL   UNL     1     -11.972  10.191  70.400  1.00  0.00    -0.351 Cl 
HETATM   25  C   UNL     1     -12.467  12.815  70.480  1.00  0.00    -0.280 A  
ENDBRANCH  13  18
ENDBRANCH   4   6
ENDBRANCH   3   4
ENDBRANCH   2   3
TORSDOF 6
ENDMDL
MODEL       11
REMARK 921   NORMALIZED FREE ENERGY PREDICTED BY IDOCK:   -5.41 KCAL/MOL
REMARK 922        TOTAL FREE ENERGY PREDICTED BY IDOCK:   -8.53 KCAL/MOL
REMARK 923 INTER-LIGAND FREE ENERGY PREDICTED BY IDOCK:   -7.15 KCAL/MOL
REMARK 924 INTRA-LIGAND FREE ENERGY PREDICTED BY IDOCK:   -1.38 KCAL/MOL
REMARK 927      BINDING AFFINITY PREDICTED BY RF-SCORE:    0.00 PKD
ROOT
HETATM    1  C   UNL     1     -11.746  11.965  63.684  1.00  0.00    -0.572 C  
HETATM    2  C   UNL     1     -12.425  12.946  64.614  1.00  0.00    -0.434 C  
ENDROOT
BRANCH   2   3
HETATM    3  O   UNL     1     -12.363  12.360  65.917  1.00  0.00    -0.638 OA 
BRANCH   3   4
HETATM    4  C   UNL     1     -11.313  12.657  66.714  1.00  0.00    -0.320 C  
HETATM    5  O   UNL     1     -10.539  13.596  66.571  1.00  0.00    -0.278 OA 
BRANCH   4   6
HETATM    6  C   UNL     1     -11.341  11.771  67.904  1.00  0.00    -0.362 C  
HETATM    7  C   UNL     1     -11.696  12.210  69.135  1.00  0.00    -0.328 C  
HETATM    8  C   UNL     1     -12.154  13.598  69.521  1.00  0.00    -0.368 C  
HETATM    9  N   UNL     1     -11.650  11.337  70.207  1.00  0.00    -0.304 NA 
HETATM   10  C   UNL     1     -11.153  10.050  70.167  1.00  0.00    -0.310 C  
HETATM   11  C   UNL     1     -11.081   9.364  71.511  1.00  0.00    -0.446 C  
HETATM   12  C   UNL     1     -10.779   9.499  68.985  1.00  0.00    -0.224 C  
HETATM   13  C   UNL     1     -10.894  10.304  67.680  1.00  0.00    -0.363 C  
BRANCH  12  14
HETATM   14  C   UNL     1     -10.246   8.110  68.968  1.00  0.00    -0.220 C  
HETATM   15  O   UNL     1     -10.906   7.124  68.677  1.00  0.00    -0.187 OA 
BRANCH  14  16
HETATM   16  O   UNL     1      -8.932   8.080  69.304  1.00  0.00    -0.147 OA 
HETATM   17  C   UNL     1      -8.546   6.907  70.036  1.00  0.00    -0.141 C  
ENDBRANCH  14  16
ENDBRANCH  12  14
BRANCH  13  18
HETATM   18  C   UNL     1      -9.654  10.211  66.765  1.00  0.00    -0.222 A  
HETATM   19  C   UNL     1      -9.836   9.633  65.485  1.00  0.00    -0.352 A  
HETATM   20  C   UNL     1      -8.815   9.623  64.534  1.00  0.00    -0.257 A  
HETATM   21  C   UNL     1      -8.387  10.747  67.076  1.00  0.00    -0.129 A  
HETATM   22  C   UNL     1      -7.364  10.739  66.106  1.00  0.00    -0.127 A  
HETATM   23 CL   UNL     1      -8.084  11.450  68.633  1.00  0.00    -0.147 Cl 
HETATM   24 CL   UNL     1      -5.806  11.443  66.388  1.00  0.00    -0.139 Cl 
HETATM   25  C   UNL     1      -7.584  10.187  64.840  1.00  0.00    -0.138 A  
ENDBRANCH  13  18
ENDBRANCH   4   6
ENDBRANCH   3   4
ENDBRANCH   2   3
TORSDOF 6
ENDMDL
MODEL       12
REMARK 921   NORMALIZED FREE ENERGY PREDICTED BY IDOCK:   -5.26 KCAL/MOL
REMARK 922        TOTAL FREE ENERGY PREDICTED BY IDOCK:   -8.32 KCAL/MOL
REMARK 923 INTER-LIGAND FREE ENERGY PREDICTED BY IDOCK:   -7.07 KCAL/MOL
REMARK 924 INTRA-LIGAND FREE ENERGY PREDICTED BY IDOCK:   -1.25 KCAL/MOL
REMARK 927      BINDING AFFINITY PREDICTED BY RF-SCORE:    0.00 PKD
ROOT
HETATM    1  C   UNL     1     -10.354  16.140  65.522  1.00  0.00    -0.391 C  
HETATM    2  C   UNL     1     -11.415  15.311  64.832  1.00  0.00    -0.343 C  
ENDROOT
BRANCH   2   3
HETATM    3  O   UNL     1     -11.983  14.477  65.845  1.00  0.00    -0.366 OA 
BRANCH   3   4
HETATM    4  C   UNL     1     -12.129  13.158  65.594  1.00  0.00    -0.449 C  
HETATM    5  O   UNL     1     -13.145  12.606  65.191  1.00  0.00    -0.726 OA 
BRANCH   4   6
HETATM    6  C   UNL     1     -10.807  12.493  65.710  1.00  0.00    -0.310 C  
HETATM    7  C   UNL     1     -10.267  11.757  64.710  1.00  0.00    -0.282 C  
HETATM    8  C   UNL     1     -10.842  11.513  63.333  1.00  0.00    -0.423 C  
HETATM    9  N   UNL     1      -9.053  11.125  64.910  1.00  0.00    -0.146 NA 
HETATM   10  C   UNL     1      -8.368  11.074  66.107  1.00  0.00    -0.163 C  
HETATM   11  C   UNL     1      -7.141  10.193  66.090  1.00  0.00    -0.114 C  
HETATM   12  C   UNL     1      -8.808  11.785  67.176  1.00  0.00    -0.173 C  
HETATM   13  C   UNL     1     -10.079  12.644  67.070  1.00  0.00    -0.228 C  
BRANCH  12  14
HETATM   14  C   UNL     1      -8.053  11.713  68.456  1.00  0.00    -0.145 C  
HETATM   15  O   UNL     1      -8.101  10.768  69.229  1.00  0.00    -0.150 OA 
BRANCH  14  16
HETATM   16  O   UNL     1      -7.297  12.823  68.649  1.00  0.00    -0.108 OA 
HETATM   17  C   UNL     1      -6.140  12.603  69.468  1.00  0.00    -0.119 C  
ENDBRANCH  14  16
ENDBRANCH  12  14
BRANCH  13  18
HETATM   18  C   UNL     1     -11.047  12.495  68.264  1.00  0.00    -0.294 A  
HETATM   19  C   UNL     1     -11.583  11.206  68.506  1.00  0.00    -0.385 A  
HETATM   20  C   UNL     1     -12.359  10.935  69.633  1.00  0.00    -0.290 A  
HETATM   21  C   UNL     1     -11.355  13.522  69.179  1.00  0.00    -0.282 A  
HETATM   22  C   UNL     1     -12.133  13.237  70.319  1.00  0.00    -0.335 A  
HETATM   23 CL   UNL     1     -10.753  15.131  68.935  1.00  0.00    -0.232 Cl 
HETATM   24 CL   UNL     1     -12.492  14.429  71.526  1.00  0.00    -0.408 Cl 
HETATM   25  C   UNL     1     -12.623  11.947  70.546  1.00  0.00    -0.212 A  
ENDBRANCH  13  18
ENDBRANCH   4   6
ENDBRANCH   3   4
ENDBRANCH   2   3
TORSDOF 6
ENDMDL
MODEL       13
REMARK 921   NORMALIZED FREE ENERGY PREDICTED BY IDOCK:   -5.24 KCAL/MOL
REMARK 922        TOTAL FREE ENERGY PREDICTED BY IDOCK:   -8.30 KCAL/MOL
REMARK 923 INTER-LIGAND FREE ENERGY PREDICTED BY IDOCK:   -6.88 KCAL/MOL
REMARK 924 INTRA-LIGAND FREE ENERGY PREDICTED BY IDOCK:   -1.42 KCAL/MOL
REMARK 927      BINDING AFFINITY PREDICTED BY RF-SCORE:    0.00 PKD
ROOT
HETATM    1  C   UNL     1     -10.063  10.304  65.115  1.00  0.00    -0.355 C  
HETATM    2  C   UNL     1     -10.620  11.390  64.220  1.00  0.00    -0.355 C  
ENDROOT
BRANCH   2   3
HETATM    3  O   UNL     1     -10.640  12.580  65.012  1.00  0.00    -0.283 OA 
BRANCH   3   4
HETATM    4  C   UNL     1     -11.831  13.064  65.429  1.00  0.00    -0.388 C  
HETATM    5  O   UNL     1     -12.920  12.520  65.293  1.00  0.00    -0.588 OA 
BRANCH   4   6
HETATM    6  C   UNL     1     -11.601  14.283  66.242  1.00  0.00    -0.379 C  
HETATM    7  C   UNL     1     -11.251  15.472  65.697  1.00  0.00    -0.155 C  
HETATM    8  C   UNL     1     -11.077  15.797  64.231  1.00  0.00     0.002 C  
HETATM    9  N   UNL     1     -11.004  16.553  66.524  1.00  0.00    -0.031 NA 
HETATM   10  C   UNL     1     -10.967  16.510  67.903  1.00  0.00    -0.288 C  
HETATM   11  C   UNL     1     -10.527  17.798  68.558  1.00  0.00    -0.332 C  
HETATM   12  C   UNL     1     -11.312  15.374  68.560  1.00  0.00    -0.342 C  
HETATM   13  C   UNL     1     -11.737  14.121  67.778  1.00  0.00    -0.408 C  
BRANCH  12  14
HETATM   14  C   UNL     1     -11.263  15.353  70.047  1.00  0.00    -0.300 C  
HETATM   15  O   UNL     1     -10.239  15.208  70.698  1.00  0.00    -0.020 OA 
BRANCH  14  16
HETATM   16  O   UNL     1     -12.495  15.524  70.586  1.00  0.00    -0.392 OA 
HETATM   17  C   UNL     1     -12.482  15.786  71.997  1.00  0.00    -0.457 C  
ENDBRANCH  14  16
ENDBRANCH  12  14
BRANCH  13  18
HETATM   18  C   UNL     1     -11.094  12.810  68.280  1.00  0.00    -0.288 A  
HETATM   19  C   UNL     1     -11.967  11.799  68.750  1.00  0.00    -0.317 A  
HETATM   20  C   UNL     1     -11.500  10.532  69.099  1.00  0.00    -0.314 A  
HETATM   21  C   UNL     1      -9.716  12.516  68.211  1.00  0.00    -0.220 A  
HETATM   22  C   UNL     1      -9.254  11.231  68.559  1.00  0.00    -0.181 A  
HETATM   23 CL   UNL     1      -8.585  13.714  67.667  1.00  0.00    -0.172 Cl 
HETATM   24 CL   UNL     1      -7.588  10.772  68.431  1.00  0.00    -0.097 Cl 
HETATM   25  C   UNL     1     -10.146  10.244  68.991  1.00  0.00    -0.225 A  
ENDBRANCH  13  18
ENDBRANCH   4   6
ENDBRANCH   3   4
ENDBRANCH   2   3
TORSDOF 6
ENDMDL
MODEL       14
REMARK 921   NORMALIZED FREE ENERGY PREDICTED BY IDOCK:   -5.21 KCAL/MOL
REMARK 922        TOTAL FREE ENERGY PREDICTED BY IDOCK:   -8.26 KCAL/MOL
REMARK 923 INTER-LIGAND FREE ENERGY PREDICTED BY IDOCK:   -6.92 KCAL/MOL
REMARK 924 INTRA-LIGAND FREE ENERGY PREDICTED BY IDOCK:   -1.34 KCAL/MOL
REMARK 927      BINDING AFFINITY PREDICTED BY RF-SCORE:    0.00 PKD
ROOT
HETATM    1  C   UNL     1      -6.365  11.514  68.156  1.00  0.00    -0.046 C  
HETATM    2  C   UNL     1      -6.055  12.981  68.359  1.00  0.00    -0.081 C  
ENDROOT
BRANCH   2   3
HETATM    3  O   UNL     1      -6.938  13.694  67.489  1.00  0.00    -0.165 OA 
BRANCH   3   4
HETATM    4  C   UNL     1      -8.022  14.301  68.019  1.00  0.00    -0.142 C  
HETATM    5  O   UNL     1      -8.175  14.613  69.194  1.00  0.00    -0.142 OA 
BRANCH   4   6
HETATM    6  C   UNL     1      -8.938  14.701  66.923  1.00  0.00    -0.275 C  
HETATM    7  C   UNL     1      -9.062  15.982  66.502  1.00  0.00    -0.285 C  
HETATM    8  C   UNL     1      -8.303  17.192  67.000  1.00  0.00    -0.232 C  
HETATM    9  N   UNL     1      -9.974  16.287  65.508  1.00  0.00    -0.530 NA 
HETATM   10  C   UNL     1     -10.884  15.403  64.963  1.00  0.00    -0.444 C  
HETATM   11  C   UNL     1     -11.867  16.029  64.001  1.00  0.00     0.274 C  
HETATM   12  C   UNL     1     -10.846  14.089  65.300  1.00  0.00    -0.352 C  
HETATM   13  C   UNL     1      -9.799  13.572  66.300  1.00  0.00    -0.306 C  
BRANCH  12  14
HETATM   14  C   UNL     1     -11.838  13.157  64.700  1.00  0.00    -0.370 C  
HETATM   15  O   UNL     1     -12.880  12.820  65.243  1.00  0.00    -0.674 OA 
BRANCH  14  16
HETATM   16  O   UNL     1     -11.445  12.738  63.471  1.00  0.00    -0.463 OA 
HETATM   17  C   UNL     1     -10.530  11.633  63.498  1.00  0.00    -0.443 C  
ENDBRANCH  14  16
ENDBRANCH  12  14
BRANCH  13  18
HETATM   18  C   UNL     1     -10.363  12.616  67.373  1.00  0.00    -0.224 A  
HETATM   19  C   UNL     1      -9.898  11.279  67.357  1.00  0.00    -0.201 A  
HETATM   20  C   UNL     1     -10.240  10.372  68.360  1.00  0.00    -0.186 A  
HETATM   21  C   UNL     1     -11.226  13.005  68.419  1.00  0.00    -0.269 A  
HETATM   22  C   UNL     1     -11.561  12.084  69.432  1.00  0.00    -0.330 A  
HETATM   23 CL   UNL     1     -11.853  14.621  68.490  1.00  0.00    -0.358 Cl 
HETATM   24 CL   UNL     1     -12.556  12.508  70.786  1.00  0.00    -0.350 Cl 
HETATM   25  C   UNL     1     -11.061  10.778  69.404  1.00  0.00    -0.324 A  
ENDBRANCH  13  18
ENDBRANCH   4   6
ENDBRANCH   3   4
ENDBRANCH   2   3
TORSDOF 6
ENDMDL
MODEL       15
REMARK 921   NORMALIZED FREE ENERGY PREDICTED BY IDOCK:   -5.12 KCAL/MOL
REMARK 922        TOTAL FREE ENERGY PREDICTED BY IDOCK:   -8.14 KCAL/MOL
REMARK 923 INTER-LIGAND FREE ENERGY PREDICTED BY IDOCK:   -6.79 KCAL/MOL
REMARK 924 INTRA-LIGAND FREE ENERGY PREDICTED BY IDOCK:   -1.35 KCAL/MOL
REMARK 927      BINDING AFFINITY PREDICTED BY RF-SCORE:    0.00 PKD
ROOT
HETATM    1  C   UNL     1     -12.549  13.366  65.478  1.00  0.00    -0.520 C  
HETATM    2  C   UNL     1     -11.504  12.499  66.146  1.00  0.00    -0.377 C  
ENDROOT
BRANCH   2   3
HETATM    3  O   UNL     1     -12.035  12.163  67.431  1.00  0.00    -0.563 OA 
BRANCH   3   4
HETATM    4  C   UNL     1     -11.261  12.345  68.522  1.00  0.00    -0.279 C  
HETATM    5  O   UNL     1     -10.582  13.333  68.771  1.00  0.00    -0.244 OA 
BRANCH   4   6
HETATM    6  C   UNL     1     -11.496  11.231  69.474  1.00  0.00    -0.376 C  
HETATM    7  C   UNL     1     -12.182  11.388  70.631  1.00  0.00    -0.389 C  
HETATM    8  C   UNL     1     -12.851  12.645  71.141  1.00  0.00    -0.311 C  
HETATM    9  N   UNL     1     -12.318  10.315  71.493  1.00  0.00    -0.391 NA 
HETATM   10  C   UNL     1     -11.706   9.088  71.341  1.00  0.00    -0.322 C  
HETATM   11  C   UNL     1     -11.901   8.142  72.502  1.00  0.00    -0.438 C  
HETATM   12  C   UNL     1     -11.003   8.810  70.213  1.00  0.00    -0.255 C  
HETATM   13  C   UNL     1     -10.870   9.863  69.100  1.00  0.00    -0.248 C  
BRANCH  12  14
HETATM   14  C   UNL     1     -10.351   7.480  70.073  1.00  0.00    -0.221 C  
HETATM   15  O   UNL     1      -9.202   7.240  70.412  1.00  0.00    -0.158 OA 
BRANCH  14  16
HETATM   16  O   UNL     1     -11.197   6.569  69.532  1.00  0.00    -0.340 OA 
HETATM   17  C   UNL     1     -10.884   6.217  68.176  1.00  0.00    -0.320 C  
ENDBRANCH  14  16
ENDBRANCH  12  14
BRANCH  13  18
HETATM   18  C   UNL     1      -9.440  10.016  68.538  1.00  0.00    -0.150 A  
HETATM   19  C   UNL     1      -8.426  10.408  69.446  1.00  0.00    -0.145 A  
HETATM   20  C   UNL     1      -7.083  10.446  69.073  1.00  0.00    -0.076 A  
HETATM   21  C   UNL     1      -9.061   9.700  67.217  1.00  0.00    -0.134 A  
HETATM   22  C   UNL     1      -7.700   9.734  66.851  1.00  0.00    -0.098 A  
HETATM   23 CL   UNL     1     -10.251   9.235  66.044  1.00  0.00    -0.275 Cl 
HETATM   24 CL   UNL     1      -7.149   9.290  65.269  1.00  0.00    -0.088 Cl 
HETATM   25  C   UNL     1      -6.719  10.097  67.779  1.00  0.00    -0.071 A  
ENDBRANCH  13  18
ENDBRANCH   4   6
ENDBRANCH   3   4
ENDBRANCH   2   3
TORSDOF 6
ENDMDL
MODEL       16
REMARK 921   NORMALIZED FREE ENERGY PREDICTED BY IDOCK:   -5.08 KCAL/MOL
REMARK 922        TOTAL FREE ENERGY PREDICTED BY IDOCK:   -8.09 KCAL/MOL
REMARK 923 INTER-LIGAND FREE ENERGY PREDICTED BY IDOCK:   -6.69 KCAL/MOL
REMARK 924 INTRA-LIGAND FREE ENERGY PREDICTED BY IDOCK:   -1.40 KCAL/MOL
REMARK 927      BINDING AFFINITY PREDICTED BY RF-SCORE:    0.00 PKD
ROOT
HETATM    1  C   UNL     1      -8.763  14.740  66.769  1.00  0.00    -0.255 C  
HETATM    2  C   UNL     1      -9.924  13.896  66.290  1.00  0.00    -0.306 C  
ENDROOT
BRANCH   2   3
HETATM    3  O   UNL     1     -10.589  13.436  67.469  1.00  0.00    -0.247 OA 
BRANCH   3   4
HETATM    4  C   UNL     1     -11.575  12.522  67.345  1.00  0.00    -0.370 C  
HETATM    5  O   UNL     1     -12.347  12.415  66.400  1.00  0.00    -0.539 OA 
BRANCH   4   6
HETATM    6  C   UNL     1     -11.471  11.542  68.453  1.00  0.00    -0.364 C  
HETATM    7  C   UNL     1     -11.731  11.864  69.743  1.00  0.00    -0.331 C  
HETATM    8  C   UNL     1     -12.200  13.196  70.282  1.00  0.00    -0.376 C  
HETATM    9  N   UNL     1     -11.563  10.909  70.730  1.00  0.00    -0.257 NA 
HETATM   10  C   UNL     1     -11.029   9.651  70.540  1.00  0.00    -0.313 C  
HETATM   11  C   UNL     1     -10.817   8.861  71.810  1.00  0.00    -0.436 C  
HETATM   12  C   UNL     1     -10.741   9.213  69.288  1.00  0.00    -0.199 C  
HETATM   13  C   UNL     1     -10.996  10.117  68.070  1.00  0.00    -0.326 C  
BRANCH  12  14
HETATM   14  C   UNL     1     -10.165   7.854  69.108  1.00  0.00    -0.216 C  
HETATM   15  O   UNL     1      -8.974   7.595  69.199  1.00  0.00    -0.136 OA 
BRANCH  14  16
HETATM   16  O   UNL     1     -11.129   6.938  68.843  1.00  0.00    -0.192 OA 
HETATM   17  C   UNL     1     -10.973   6.279  67.578  1.00  0.00    -0.350 C  
ENDBRANCH  14  16
ENDBRANCH  12  14
BRANCH  13  18
HETATM   18  C   UNL     1      -9.838  10.149  67.049  1.00  0.00    -0.238 A  
HETATM   19  C   UNL     1     -10.113   9.680  65.742  1.00  0.00    -0.274 A  
HETATM   20  C   UNL     1      -9.179   9.789  64.712  1.00  0.00    -0.319 A  
HETATM   21  C   UNL     1      -8.564  10.701  67.300  1.00  0.00    -0.126 A  
HETATM   22  C   UNL     1      -7.629  10.814  66.252  1.00  0.00    -0.142 A  
HETATM   23 CL   UNL     1      -8.147  11.275  68.883  1.00  0.00    -0.124 Cl 
HETATM   24 CL   UNL     1      -6.073  11.546  66.465  1.00  0.00    -0.127 Cl 
HETATM   25  C   UNL     1      -7.943  10.368  64.964  1.00  0.00    -0.126 A  
ENDBRANCH  13  18
ENDBRANCH   4   6
ENDBRANCH   3   4
ENDBRANCH   2   3
TORSDOF 6
ENDMDL
MODEL       17
REMARK 921   NORMALIZED FREE ENERGY PREDICTED BY IDOCK:   -5.07 KCAL/MOL
REMARK 922        TOTAL FREE ENERGY PREDICTED BY IDOCK:   -8.06 KCAL/MOL
REMARK 923 INTER-LIGAND FREE ENERGY PREDICTED BY IDOCK:   -6.70 KCAL/MOL
REMARK 924 INTRA-LIGAND FREE ENERGY PREDICTED BY IDOCK:   -1.36 KCAL/MOL
REMARK 927      BINDING AFFINITY PREDICTED BY RF-SCORE:    0.00 PKD
ROOT
HETATM    1  C   UNL     1     -12.198  12.728  63.356  1.00  0.00    -0.594 C  
HETATM    2  C   UNL     1     -10.977  11.834  63.331  1.00  0.00    -0.380 C  
ENDROOT
BRANCH   2   3
HETATM    3  O   UNL     1     -11.018  11.079  64.544  1.00  0.00    -0.270 OA 
BRANCH   3   4
HETATM    4  C   UNL     1     -10.058  11.287  65.472  1.00  0.00    -0.257 C  
HETATM    5  O   UNL     1      -8.850  11.188  65.297  1.00  0.00    -0.171 OA 
BRANCH   4   6
HETATM    6  C   UNL     1     -10.683  11.834  66.701  1.00  0.00    -0.300 C  
HETATM    7  C   UNL     1     -10.762  13.162  66.955  1.00  0.00    -0.263 C  
HETATM    8  C   UNL     1     -10.300  14.297  66.069  1.00  0.00    -0.318 C  
HETATM    9  N   UNL     1     -11.314  13.596  68.147  1.00  0.00    -0.271 NA 
HETATM   10  C   UNL     1     -11.701  12.779  69.190  1.00  0.00    -0.322 C  
HETATM   11  C   UNL     1     -12.133  13.516  70.436  1.00  0.00    -0.415 C  
HETATM   12  C   UNL     1     -11.678  11.430  69.045  1.00  0.00    -0.409 C  
HETATM   13  C   UNL     1     -11.210  10.796  67.725  1.00  0.00    -0.385 C  
BRANCH  12  14
HETATM   14  C   UNL     1     -12.100  10.570  70.184  1.00  0.00    -0.300 C  
HETATM   15  O   UNL     1     -13.233  10.139  70.336  1.00  0.00    -0.199 OA 
BRANCH  14  16
HETATM   16  O   UNL     1     -11.066  10.319  71.025  1.00  0.00    -0.276 OA 
HETATM   17  C   UNL     1     -10.990   8.954  71.461  1.00  0.00    -0.328 C  
ENDBRANCH  14  16
ENDBRANCH  12  14
BRANCH  13  18
HETATM   18  C   UNL     1     -10.236   9.611  67.899  1.00  0.00    -0.242 A  
HETATM   19  C   UNL     1     -10.659   8.349  67.415  1.00  0.00    -0.313 A  
HETATM   20  C   UNL     1      -9.805   7.246  67.402  1.00  0.00    -0.206 A  
HETATM   21  C   UNL     1      -8.927   9.719  68.413  1.00  0.00    -0.123 A  
HETATM   22  C   UNL     1      -8.069   8.600  68.390  1.00  0.00    -0.118 A  
HETATM   23 CL   UNL     1      -8.348  11.227  69.045  1.00  0.00    -0.072 Cl 
HETATM   24 CL   UNL     1      -6.426   8.673  68.936  1.00  0.00    -0.048 Cl 
HETATM   25  C   UNL     1      -8.508   7.375  67.877  1.00  0.00    -0.122 A  
ENDBRANCH  13  18
ENDBRANCH   4   6
ENDBRANCH   3   4
ENDBRANCH   2   3
TORSDOF 6
ENDMDL
MODEL       18
REMARK 921   NORMALIZED FREE ENERGY PREDICTED BY IDOCK:   -5.06 KCAL/MOL
REMARK 922        TOTAL FREE ENERGY PREDICTED BY IDOCK:   -8.06 KCAL/MOL
REMARK 923 INTER-LIGAND FREE ENERGY PREDICTED BY IDOCK:   -6.61 KCAL/MOL
REMARK 924 INTRA-LIGAND FREE ENERGY PREDICTED BY IDOCK:   -1.44 KCAL/MOL
REMARK 927      BINDING AFFINITY PREDICTED BY RF-SCORE:    0.00 PKD
ROOT
HETATM    1  C   UNL     1     -12.099  14.558  64.330  1.00  0.00    -0.492 C  
HETATM    2  C   UNL     1     -12.006  13.120  63.870  1.00  0.00    -0.488 C  
ENDROOT
BRANCH   2   3
HETATM    3  O   UNL     1     -10.914  12.546  64.593  1.00  0.00    -0.285 OA 
BRANCH   3   4
HETATM    4  C   UNL     1     -11.119  12.135  65.863  1.00  0.00    -0.318 C  
HETATM    5  O   UNL     1     -12.202  11.874  66.372  1.00  0.00    -0.476 OA 
BRANCH   4   6
HETATM    6  C   UNL     1      -9.808  11.874  66.506  1.00  0.00    -0.225 C  
HETATM    7  C   UNL     1      -9.336  10.624  66.725  1.00  0.00    -0.157 C  
HETATM    8  C   UNL     1      -9.986   9.314  66.341  1.00  0.00    -0.356 C  
HETATM    9  N   UNL     1      -8.127  10.458  67.376  1.00  0.00    -0.107 NA 
HETATM   10  C   UNL     1      -7.382  11.471  67.946  1.00  0.00    -0.094 C  
HETATM   11  C   UNL     1      -6.177  11.000  68.726  1.00  0.00    -0.044 C  
HETATM   12  C   UNL     1      -7.751  12.766  67.780  1.00  0.00    -0.152 C  
HETATM   13  C   UNL     1      -9.008  13.119  66.967  1.00  0.00    -0.228 C  
BRANCH  12  14
HETATM   14  C   UNL     1      -6.933  13.840  68.405  1.00  0.00    -0.103 C  
HETATM   15  O   UNL     1      -7.029  14.184  69.574  1.00  0.00    -0.111 OA 
BRANCH  14  16
HETATM   16  O   UNL     1      -6.062  14.380  67.517  1.00  0.00    -0.327 OA 
HETATM   17  C   UNL     1      -5.912  15.802  67.640  1.00  0.00    -0.147 C  
ENDBRANCH  14  16
ENDBRANCH  12  14
BRANCH  13  18
HETATM   18  C   UNL     1      -9.917  14.177  67.629  1.00  0.00    -0.233 A  
HETATM   19  C   UNL     1     -10.674  13.768  68.754  1.00  0.00    -0.267 A  
HETATM   20  C   UNL     1     -11.421  14.676  69.504  1.00  0.00    -0.334 A  
HETATM   21  C   UNL     1      -9.968  15.536  67.255  1.00  0.00    -0.238 A  
HETATM   22  C   UNL     1     -10.720  16.448  68.024  1.00  0.00    -0.334 A  
HETATM   23 CL   UNL     1      -9.085  16.105  65.875  1.00  0.00    -0.335 Cl 
HETATM   24 CL   UNL     1     -10.774  18.144  67.670  1.00  0.00    -0.416 Cl 
HETATM   25  C   UNL     1     -11.434  16.017  69.147  1.00  0.00    -0.347 A  
ENDBRANCH  13  18
ENDBRANCH   4   6
ENDBRANCH   3   4
ENDBRANCH   2   3
TORSDOF 6
ENDMDL
MODEL       19
REMARK 921   NORMALIZED FREE ENERGY PREDICTED BY IDOCK:   -5.04 KCAL/MOL
REMARK 922        TOTAL FREE ENERGY PREDICTED BY IDOCK:   -8.03 KCAL/MOL
REMARK 923 INTER-LIGAND FREE ENERGY PREDICTED BY IDOCK:   -6.64 KCAL/MOL
REMARK 924 INTRA-LIGAND FREE ENERGY PREDICTED BY IDOCK:   -1.39 KCAL/MOL
REMARK 927      BINDING AFFINITY PREDICTED BY RF-SCORE:    0.00 PKD
ROOT
HETATM    1  C   UNL     1     -10.436  16.583  69.511  1.00  0.00    -0.298 C  
HETATM    2  C   UNL     1     -11.001  15.604  70.517  1.00  0.00    -0.350 C  
ENDROOT
BRANCH   2   3
HETATM    3  O   UNL     1     -10.925  14.317  69.897  1.00  0.00    -0.148 OA 
BRANCH   3   4
HETATM    4  C   UNL     1     -11.938  13.920  69.097  1.00  0.00    -0.363 C  
HETATM    5  O   UNL     1     -12.899  14.599  68.756  1.00  0.00     0.412 OA 
BRANCH   4   6
HETATM    6  C   UNL     1     -11.622  12.582  68.542  1.00  0.00    -0.364 C  
HETATM    7  C   UNL     1     -11.733  11.443  69.266  1.00  0.00    -0.337 C  
HETATM    8  C   UNL     1     -12.219  11.302  70.691  1.00  0.00    -0.489 C  
HETATM    9  N   UNL     1     -11.372  10.235  68.696  1.00  0.00    -0.208 NA 
HETATM   10  C   UNL     1     -10.780  10.084  67.458  1.00  0.00    -0.281 C  
HETATM   11  C   UNL     1     -10.351   8.671  67.138  1.00  0.00    -0.369 C  
HETATM   12  C   UNL     1     -10.629  11.154  66.637  1.00  0.00    -0.314 C  
HETATM   13  C   UNL     1     -11.103  12.548  67.081  1.00  0.00    -0.321 C  
BRANCH  12  14
HETATM   14  C   UNL     1      -9.988  10.965  65.308  1.00  0.00    -0.273 C  
HETATM   15  O   UNL     1      -8.787  10.817  65.140  1.00  0.00    -0.195 OA 
BRANCH  14  16
HETATM   16  O   UNL     1     -10.906  10.968  64.310  1.00  0.00    -0.353 OA 
HETATM   17  C   UNL     1     -10.583  11.849  63.225  1.00  0.00    -0.365 C  
ENDBRANCH  14  16
ENDBRANCH  12  14
BRANCH  13  18
HETATM   18  C   UNL     1     -10.093  13.681  66.801  1.00  0.00    -0.269 A  
HETATM   19  C   UNL     1     -10.530  14.749  65.980  1.00  0.00    -0.312 A  
HETATM   20  C   UNL     1      -9.745  15.884  65.774  1.00  0.00    -0.360 A  
HETATM   21  C   UNL     1      -8.811  13.774  67.381  1.00  0.00    -0.210 A  
HETATM   22  C   UNL     1      -8.028  14.927  67.173  1.00  0.00    -0.195 A  
HETATM   23 CL   UNL     1      -8.200  12.493  68.379  1.00  0.00    -0.158 Cl 
HETATM   24 CL   UNL     1      -6.474  15.145  67.911  1.00  0.00    -0.158 Cl 
HETATM   25  C   UNL     1      -8.500  15.978  66.381  1.00  0.00    -0.363 A  
ENDBRANCH  13  18
ENDBRANCH   4   6
ENDBRANCH   3   4
ENDBRANCH   2   3
TORSDOF 6
ENDMDL
MODEL       20
REMARK 921   NORMALIZED FREE ENERGY PREDICTED BY IDOCK:   -5.04 KCAL/MOL
REMARK 922        TOTAL FREE ENERGY PREDICTED BY IDOCK:   -8.03 KCAL/MOL
REMARK 923 INTER-LIGAND FREE ENERGY PREDICTED BY IDOCK:   -6.57 KCAL/MOL
REMARK 924 INTRA-LIGAND FREE ENERGY PREDICTED BY IDOCK:   -1.45 KCAL/MOL
REMARK 927      BINDING AFFINITY PREDICTED BY RF-SCORE:    0.00 PKD
ROOT
HETATM    1  C   UNL     1     -10.525  17.324  65.720  1.00  0.00    -0.237 C  
HETATM    2  C   UNL     1     -11.357  16.584  64.695  1.00  0.00    -0.069 C  
ENDROOT
BRANCH   2   3
HETATM    3  O   UNL     1     -10.901  15.229  64.722  1.00  0.00    -0.411 OA 
BRANCH   3   4
HETATM    4  C   UNL     1     -11.668  14.298  65.329  1.00  0.00    -0.357 C  
HETATM    5  O   UNL     1     -12.834  14.435  65.675  1.00  0.00    -0.404 OA 
BRANCH   4   6
HETATM    6  C   UNL     1     -10.935  13.008  65.354  1.00  0.00    -0.297 C  
HETATM    7  C   UNL     1     -11.271  11.959  64.566  1.00  0.00    -0.319 C  
HETATM    8  C   UNL     1     -12.367  11.903  63.526  1.00  0.00    -0.603 C  
HETATM    9  N   UNL     1     -10.573  10.770  64.680  1.00  0.00    -0.283 NA 
HETATM   10  C   UNL     1      -9.609  10.500  65.631  1.00  0.00    -0.226 C  
HETATM   11  C   UNL     1      -9.110   9.075  65.630  1.00  0.00    -0.278 C  
HETATM   12  C   UNL     1      -9.182  11.480  66.467  1.00  0.00    -0.203 C  
HETATM   13  C   UNL     1      -9.774  12.896  66.374  1.00  0.00    -0.263 C  
BRANCH  12  14
HETATM   14  C   UNL     1      -8.142  11.164  67.484  1.00  0.00    -0.119 C  
HETATM   15  O   UNL     1      -8.384  10.733  68.602  1.00  0.00    -0.126 OA 
BRANCH  14  16
HETATM   16  O   UNL     1      -6.895  11.405  67.009  1.00  0.00    -0.115 OA 
HETATM   17  C   UNL     1      -6.293  12.597  67.533  1.00  0.00    -0.159 C  
ENDBRANCH  14  16
ENDBRANCH  12  14
BRANCH  13  18
HETATM   18  C   UNL     1     -10.141  13.522  67.737  1.00  0.00    -0.236 A  
HETATM   19  C   UNL     1      -9.507  14.740  68.082  1.00  0.00    -0.208 A  
HETATM   20  C   UNL     1      -9.865  15.455  69.225  1.00  0.00    -0.262 A  
HETATM   21  C   UNL     1     -11.128  13.019  68.610  1.00  0.00    -0.269 A  
HETATM   22  C   UNL     1     -11.488  13.751  69.759  1.00  0.00    -0.199 A  
HETATM   23 CL   UNL     1     -11.930  11.520  68.265  1.00  0.00    -0.321 Cl 
HETATM   24 CL   UNL     1     -12.741  13.235  70.840  1.00  0.00    -0.368 Cl 
HETATM   25  C   UNL     1     -10.864  14.967  70.056  1.00  0.00    -0.243 A  
ENDBRANCH  13  18
ENDBRANCH   4   6
ENDBRANCH   3   4
ENDBRANCH   2   3
TORSDOF 6
ENDMDL
MODEL       21
REMARK 921   NORMALIZED FREE ENERGY PREDICTED BY IDOCK:   -5.03 KCAL/MOL
REMARK 922        TOTAL FREE ENERGY PREDICTED BY IDOCK:   -8.02 KCAL/MOL
REMARK 923 INTER-LIGAND FREE ENERGY PREDICTED BY IDOCK:   -6.82 KCAL/MOL
REMARK 924 INTRA-LIGAND FREE ENERGY PREDICTED BY IDOCK:   -1.20 KCAL/MOL
REMARK 927      BINDING AFFINITY PREDICTED BY RF-SCORE:    0.00 PKD
ROOT
HETATM    1  C   UNL     1     -11.993  12.851  63.644  1.00  0.00    -0.613 C  
HETATM    2  C   UNL     1     -11.036  11.720  63.952  1.00  0.00    -0.408 C  
ENDROOT
BRANCH   2   3
HETATM    3  O   UNL     1     -11.270  11.368  65.319  1.00  0.00    -0.198 OA 
BRANCH   3   4
HETATM    4  C   UNL     1     -10.384  11.772  66.254  1.00  0.00    -0.224 C  
HETATM    5  O   UNL     1      -9.221  12.102  66.055  1.00  0.00    -0.209 OA 
BRANCH   4   6
HETATM    6  C   UNL     1     -11.086  11.929  67.552  1.00  0.00    -0.332 C  
HETATM    7  C   UNL     1     -11.631  13.102  67.952  1.00  0.00    -0.336 C  
HETATM    8  C   UNL     1     -11.675  14.406  67.187  1.00  0.00    -0.424 C  
HETATM    9  N   UNL     1     -12.227  13.186  69.198  1.00  0.00    -0.186 NA 
HETATM   10  C   UNL     1     -12.220  12.190  70.153  1.00  0.00    -0.231 C  
HETATM   11  C   UNL     1     -12.813  12.593  71.483  1.00  0.00    -0.368 C  
HETATM   12  C   UNL     1     -11.713  10.966  69.860  1.00  0.00    -0.418 C  
HETATM   13  C   UNL     1     -11.129  10.679  68.466  1.00  0.00    -0.318 C  
BRANCH  12  14
HETATM   14  C   UNL     1     -11.716   9.909  70.906  1.00  0.00    -0.364 C  
HETATM   15  O   UNL     1     -10.764   9.655  71.629  1.00  0.00    -0.248 OA 
BRANCH  14  16
HETATM   16  O   UNL     1     -12.912   9.272  70.964  1.00  0.00    -0.243 OA 
HETATM   17  C   UNL     1     -13.416   9.098  72.296  1.00  0.00    -0.486 C  
ENDBRANCH  14  16
ENDBRANCH  12  14
BRANCH  13  18
HETATM   18  C   UNL     1      -9.779   9.930  68.485  1.00  0.00    -0.163 A  
HETATM   19  C   UNL     1      -8.692  10.571  69.127  1.00  0.00    -0.155 A  
HETATM   20  C   UNL     1      -7.470   9.927  69.316  1.00  0.00    -0.096 A  
HETATM   21  C   UNL     1      -9.582   8.621  67.998  1.00  0.00    -0.149 A  
HETATM   22  C   UNL     1      -8.346   7.975  68.200  1.00  0.00    -0.127 A  
HETATM   23 CL   UNL     1     -10.862   7.782  67.180  1.00  0.00    -0.329 Cl 
HETATM   24 CL   UNL     1      -8.052   6.343  67.696  1.00  0.00    -0.113 Cl 
HETATM   25  C   UNL     1      -7.301   8.625  68.865  1.00  0.00    -0.082 A  
ENDBRANCH  13  18
ENDBRANCH   4   6
ENDBRANCH   3   4
ENDBRANCH   2   3
TORSDOF 6
ENDMDL
MODEL       22
REMARK 921   NORMALIZED FREE ENERGY PREDICTED BY IDOCK:   -5.02 KCAL/MOL
REMARK 922        TOTAL FREE ENERGY PREDICTED BY IDOCK:   -8.01 KCAL/MOL
REMARK 923 INTER-LIGAND FREE ENERGY PREDICTED BY IDOCK:   -7.00 KCAL/MOL
REMARK 924 INTRA-LIGAND FREE ENERGY PREDICTED BY IDOCK:   -1.00 KCAL/MOL
REMARK 927      BINDING AFFINITY PREDICTED BY RF-SCORE:    0.00 PKD
ROOT
HETATM    1  C   UNL     1     -13.852  15.791  72.915  1.00  0.00    -0.565 C  
HETATM    2  C   UNL     1     -14.247  15.370  71.516  1.00  0.00    -0.477 C  
ENDROOT
BRANCH   2   3
HETATM    3  O   UNL     1     -13.100  15.606  70.696  1.00  0.00    -0.465 OA 
BRANCH   3   4
HETATM    4  C   UNL     1     -11.959  14.934  70.965  1.00  0.00    -0.320 C  
HETATM    5  O   UNL     1     -11.213  15.127  71.917  1.00  0.00    -0.397 OA 
BRANCH   4   6
HETATM    6  C   UNL     1     -11.834  13.794  70.024  1.00  0.00    -0.377 C  
HETATM    7  C   UNL     1     -12.206  12.533  70.347  1.00  0.00    -0.286 C  
HETATM    8  C   UNL     1     -12.832  12.061  71.640  1.00  0.00    -0.399 C  
HETATM    9  N   UNL     1     -12.013  11.511  69.435  1.00  0.00    -0.326 NA 
HETATM   10  C   UNL     1     -11.351  11.633  68.229  1.00  0.00    -0.285 C  
HETATM   11  C   UNL     1     -11.149  10.331  67.491  1.00  0.00    -0.302 C  
HETATM   12  C   UNL     1     -10.944  12.853  67.795  1.00  0.00    -0.269 C  
HETATM   13  C   UNL     1     -11.204  14.109  68.643  1.00  0.00    -0.291 C  
BRANCH  12  14
HETATM   14  C   UNL     1     -10.232  12.958  66.493  1.00  0.00    -0.259 C  
HETATM   15  O   UNL     1      -9.037  12.749  66.345  1.00  0.00    -0.192 OA 
BRANCH  14  16
HETATM   16  O   UNL     1     -11.078  13.304  65.491  1.00  0.00    -0.281 OA 
HETATM   17  C   UNL     1     -10.731  14.531  64.833  1.00  0.00    -0.429 C  
ENDBRANCH  14  16
ENDBRANCH  12  14
BRANCH  13  18
HETATM   18  C   UNL     1      -9.991  15.055  68.764  1.00  0.00    -0.228 A  
HETATM   19  C   UNL     1      -8.822  14.536  69.374  1.00  0.00     0.214 A  
HETATM   20  C   UNL     1      -7.632  15.261  69.412  1.00  0.00    -0.219 A  
HETATM   21  C   UNL     1      -9.934  16.358  68.226  1.00  0.00    -0.243 A  
HETATM   22  C   UNL     1      -8.724  17.081  68.263  1.00  0.00    -0.241 A  
HETATM   23 CL   UNL     1     -11.332  17.068  67.485  1.00  0.00     0.150 Cl 
HETATM   24 CL   UNL     1      -8.556  18.655  67.559  1.00  0.00    -0.279 Cl 
HETATM   25  C   UNL     1      -7.579  16.528  68.846  1.00  0.00    -0.238 A  
ENDBRANCH  13  18
ENDBRANCH   4   6
ENDBRANCH   3   4
ENDBRANCH   2   3
TORSDOF 6
ENDMDL
MODEL       23
REMARK 921   NORMALIZED FREE ENERGY PREDICTED BY IDOCK:   -5.02 KCAL/MOL
REMARK 922        TOTAL FREE ENERGY PREDICTED BY IDOCK:   -8.00 KCAL/MOL
REMARK 923 INTER-LIGAND FREE ENERGY PREDICTED BY IDOCK:   -6.45 KCAL/MOL
REMARK 924 INTRA-LIGAND FREE ENERGY PREDICTED BY IDOCK:   -1.55 KCAL/MOL
REMARK 927      BINDING AFFINITY PREDICTED BY RF-SCORE:    0.00 PKD
ROOT
HETATM    1  C   UNL     1     -10.929   5.978  70.019  1.00  0.00    -0.450 C  
HETATM    2  C   UNL     1     -11.612   6.671  71.178  1.00  0.00    -0.332 C  
ENDROOT
BRANCH   2   3
HETATM    3  O   UNL     1     -11.762   8.038  70.785  1.00  0.00    -0.278 OA 
BRANCH   3   4
HETATM    4  C   UNL     1     -10.874   8.947  71.242  1.00  0.00    -0.290 C  
HETATM    5  O   UNL     1      -9.971   8.737  72.042  1.00  0.00    -0.310 OA 
BRANCH   4   6
HETATM    6  C   UNL     1     -11.045  10.213  70.487  1.00  0.00    -0.400 C  
HETATM    7  C   UNL     1     -12.065  11.073  70.720  1.00  0.00    -0.366 C  
HETATM    8  C   UNL     1     -13.150  10.952  71.766  1.00  0.00    -0.564 C  
HETATM    9  N   UNL     1     -12.188  12.210  69.942  1.00  0.00    -0.217 NA 
HETATM   10  C   UNL     1     -11.414  12.508  68.839  1.00  0.00    -0.307 C  
HETATM   11  C   UNL     1     -11.853  13.738  68.079  1.00  0.00    -0.408 C  
HETATM   12  C   UNL     1     -10.354  11.725  68.516  1.00  0.00    -0.228 C  
HETATM   13  C   UNL     1     -10.010  10.491  69.368  1.00  0.00    -0.220 C  
BRANCH  12  14
HETATM   14  C   UNL     1      -9.535  12.067  67.322  1.00  0.00    -0.181 C  
HETATM   15  O   UNL     1      -9.885  11.864  66.169  1.00  0.00    -0.220 OA 
BRANCH  14  16
HETATM   16  O   UNL     1      -8.358  12.641  67.675  1.00  0.00    -0.150 OA 
HETATM   17  C   UNL     1      -8.266  14.033  67.338  1.00  0.00    -0.190 C  
ENDBRANCH  14  16
ENDBRANCH  12  14
BRANCH  13  18
HETATM   18  C   UNL     1      -9.692   9.222  68.547  1.00  0.00    -0.162 A  
HETATM   19  C   UNL     1     -10.657   8.805  67.600  1.00  0.00    -0.281 A  
HETATM   20  C   UNL     1     -10.411   7.754  66.716  1.00  0.00    -0.348 A  
HETATM   21  C   UNL     1      -8.473   8.515  68.607  1.00  0.00    -0.131 A  
HETATM   22  C   UNL     1      -8.230   7.458  67.706  1.00  0.00    -0.119 A  
HETATM   23 CL   UNL     1      -7.253   8.955  69.759  1.00  0.00    -0.053 Cl 
HETATM   24 CL   UNL     1      -6.730   6.590  67.670  1.00  0.00    -0.064 Cl 
HETATM   25  C   UNL     1      -9.193   7.089  66.761  1.00  0.00    -0.181 A  
ENDBRANCH  13  18
ENDBRANCH   4   6
ENDBRANCH   3   4
ENDBRANCH   2   3
TORSDOF 6
ENDMDL
MODEL       24
REMARK 921   NORMALIZED FREE ENERGY PREDICTED BY IDOCK:   -5.01 KCAL/MOL
REMARK 922        TOTAL FREE ENERGY PREDICTED BY IDOCK:   -7.99 KCAL/MOL
REMARK 923 INTER-LIGAND FREE ENERGY PREDICTED BY IDOCK:   -6.75 KCAL/MOL
REMARK 924 INTRA-LIGAND FREE ENERGY PREDICTED BY IDOCK:   -1.24 KCAL/MOL
REMARK 927      BINDING AFFINITY PREDICTED BY RF-SCORE:    0.00 PKD
ROOT
HETATM    1  C   UNL     1      -5.809  11.911  68.394  1.00  0.00    -0.049 C  
HETATM    2  C   UNL     1      -5.802  13.423  68.319  1.00  0.00    -0.097 C  
ENDROOT
BRANCH   2   3
HETATM    3  O   UNL     1      -6.878  13.779  67.448  1.00  0.00    -0.171 OA 
BRANCH   3   4
HETATM    4  C   UNL     1      -8.037  14.212  67.991  1.00  0.00    -0.149 C  
HETATM    5  O   UNL     1      -8.261  14.373  69.184  1.00  0.00    -0.085 OA 
BRANCH   4   6
HETATM    6  C   UNL     1      -8.951  14.639  66.904  1.00  0.00    -0.275 C  
HETATM    7  C   UNL     1      -9.077  15.931  66.517  1.00  0.00    -0.286 C  
HETATM    8  C   UNL     1      -8.323  17.129  67.049  1.00  0.00    -0.232 C  
HETATM    9  N   UNL     1      -9.988  16.260  65.529  1.00  0.00    -0.530 NA 
HETATM   10  C   UNL     1     -10.895  15.390  64.958  1.00  0.00    -0.444 C  
HETATM   11  C   UNL     1     -11.876  16.040  64.012  1.00  0.00     0.274 C  
HETATM   12  C   UNL     1     -10.854  14.067  65.260  1.00  0.00    -0.352 C  
HETATM   13  C   UNL     1      -9.807  13.526  66.248  1.00  0.00    -0.306 C  
BRANCH  12  14
HETATM   14  C   UNL     1     -11.842  13.149  64.632  1.00  0.00    -0.370 C  
HETATM   15  O   UNL     1     -12.857  12.752  65.184  1.00  0.00    -0.726 OA 
BRANCH  14  16
HETATM   16  O   UNL     1     -11.479  12.819  63.368  1.00  0.00    -0.490 OA 
HETATM   17  C   UNL     1     -10.628  11.666  63.289  1.00  0.00    -0.356 C  
ENDBRANCH  14  16
ENDBRANCH  12  14
BRANCH  13  18
HETATM   18  C   UNL     1     -10.372  12.540  67.293  1.00  0.00    -0.228 A  
HETATM   19  C   UNL     1     -11.348  13.036  68.191  1.00  0.00    -0.329 A  
HETATM   20  C   UNL     1     -12.017  12.199  69.083  1.00  0.00    -0.311 A  
HETATM   21  C   UNL     1     -10.057  11.166  67.351  1.00  0.00    -0.185 A  
HETATM   22  C   UNL     1     -10.743  10.326  68.251  1.00  0.00    -0.237 A  
HETATM   23 CL   UNL     1      -8.854  10.492  66.299  1.00  0.00    -0.164 Cl 
HETATM   24 CL   UNL     1     -10.464   8.617  68.329  1.00  0.00    -0.253 Cl 
HETATM   25  C   UNL     1     -11.724  10.842  69.104  1.00  0.00    -0.397 A  
ENDBRANCH  13  18
ENDBRANCH   4   6
ENDBRANCH   3   4
ENDBRANCH   2   3
TORSDOF 6
ENDMDL
MODEL       25
REMARK 921   NORMALIZED FREE ENERGY PREDICTED BY IDOCK:   -4.95 KCAL/MOL
REMARK 922        TOTAL FREE ENERGY PREDICTED BY IDOCK:   -7.91 KCAL/MOL
REMARK 923 INTER-LIGAND FREE ENERGY PREDICTED BY IDOCK:   -6.68 KCAL/MOL
REMARK 924 INTRA-LIGAND FREE ENERGY PREDICTED BY IDOCK:   -1.23 KCAL/MOL
REMARK 927      BINDING AFFINITY PREDICTED BY RF-SCORE:    0.00 PKD
ROOT
HETATM    1  C   UNL     1     -10.673  11.449  63.739  1.00  0.00    -0.470 C  
HETATM    2  C   UNL     1      -9.794  10.571  64.604  1.00  0.00    -0.340 C  
ENDROOT
BRANCH   2   3
HETATM    3  O   UNL     1     -10.317  10.678  65.931  1.00  0.00    -0.255 OA 
BRANCH   3   4
HETATM    4  C   UNL     1      -9.484  11.042  66.930  1.00  0.00    -0.177 C  
HETATM    5  O   UNL     1      -8.292  11.302  66.819  1.00  0.00    -0.145 OA 
BRANCH   4   6
HETATM    6  C   UNL     1     -10.275  11.257  68.166  1.00  0.00    -0.196 C  
HETATM    7  C   UNL     1     -10.757  10.236  68.914  1.00  0.00    -0.227 C  
HETATM    8  C   UNL     1     -10.560   8.754  68.684  1.00  0.00    -0.174 C  
HETATM    9  N   UNL     1     -11.529  10.513  70.028  1.00  0.00    -0.292 NA 
HETATM   10  C   UNL     1     -11.969  11.768  70.400  1.00  0.00    -0.332 C  
HETATM   11  C   UNL     1     -12.923  11.774  71.572  1.00  0.00    -0.446 C  
HETATM   12  C   UNL     1     -11.541  12.868  69.732  1.00  0.00    -0.288 C  
HETATM   13  C   UNL     1     -10.571  12.730  68.546  1.00  0.00    -0.270 C  
BRANCH  12  14
HETATM   14  C   UNL     1     -12.030  14.209  70.152  1.00  0.00    -0.332 C  
HETATM   15  O   UNL     1     -13.168  14.613  69.967  1.00  0.00     0.035 OA 
BRANCH  14  16
HETATM   16  O   UNL     1     -11.057  14.919  70.775  1.00  0.00    -0.222 OA 
HETATM   17  C   UNL     1     -11.539  15.771  71.824  1.00  0.00    -0.456 C  
ENDBRANCH  14  16
ENDBRANCH  12  14
BRANCH  13  18
HETATM   18  C   UNL     1     -10.950  13.580  67.314  1.00  0.00    -0.293 A  
HETATM   19  C   UNL     1     -12.128  13.218  66.616  1.00  0.00    -0.421 A  
HETATM   20  C   UNL     1     -12.630  13.997  65.574  1.00  0.00    -0.543 A  
HETATM   21  C   UNL     1     -10.264  14.740  66.899  1.00  0.00    -0.257 A  
HETATM   22  C   UNL     1     -10.783  15.525  65.850  1.00  0.00    -0.339 A  
HETATM   23 CL   UNL     1      -8.802  15.232  67.693  1.00  0.00    -0.173 Cl 
HETATM   24 CL   UNL     1     -10.037  17.002  65.333  1.00  0.00    -0.016 Cl 
HETATM   25  C   UNL     1     -11.965  15.157  65.200  1.00  0.00    -0.051 A  
ENDBRANCH  13  18
ENDBRANCH   4   6
ENDBRANCH   3   4
ENDBRANCH   2   3
TORSDOF 6
ENDMDL
MODEL       26
REMARK 921   NORMALIZED FREE ENERGY PREDICTED BY IDOCK:   -4.95 KCAL/MOL
REMARK 922        TOTAL FREE ENERGY PREDICTED BY IDOCK:   -7.91 KCAL/MOL
REMARK 923 INTER-LIGAND FREE ENERGY PREDICTED BY IDOCK:   -6.38 KCAL/MOL
REMARK 924 INTRA-LIGAND FREE ENERGY PREDICTED BY IDOCK:   -1.53 KCAL/MOL
REMARK 927      BINDING AFFINITY PREDICTED BY RF-SCORE:    0.00 PKD
ROOT
HETATM    1  C   UNL     1     -11.976  12.713  63.631  1.00  0.00    -0.615 C  
HETATM    2  C   UNL     1     -11.017  13.439  64.549  1.00  0.00    -0.390 C  
ENDROOT
BRANCH   2   3
HETATM    3  O   UNL     1     -11.516  13.242  65.874  1.00  0.00    -0.316 OA 
BRANCH   3   4
HETATM    4  C   UNL     1     -10.679  13.426  66.918  1.00  0.00    -0.273 C  
HETATM    5  O   UNL     1      -9.899  14.359  67.064  1.00  0.00    -0.241 OA 
BRANCH   4   6
HETATM    6  C   UNL     1     -10.973  12.412  67.960  1.00  0.00    -0.262 C  
HETATM    7  C   UNL     1     -11.633  12.708  69.105  1.00  0.00    -0.320 C  
HETATM    8  C   UNL     1     -12.214  14.043  69.513  1.00  0.00    -0.355 C  
HETATM    9  N   UNL     1     -11.827  11.720  70.054  1.00  0.00    -0.341 NA 
HETATM   10  C   UNL     1     -11.297  10.447  69.999  1.00  0.00    -0.313 C  
HETATM   11  C   UNL     1     -11.539   9.615  71.236  1.00  0.00    -0.466 C  
HETATM   12  C   UNL     1     -10.627  10.033  68.894  1.00  0.00    -0.239 C  
HETATM   13  C   UNL     1     -10.441  10.980  67.697  1.00  0.00    -0.239 C  
BRANCH  12  14
HETATM   14  C   UNL     1     -10.065   8.656  68.860  1.00  0.00    -0.202 C  
HETATM   15  O   UNL     1      -8.996   8.339  69.360  1.00  0.00    -0.145 OA 
BRANCH  14  16
HETATM   16  O   UNL     1     -10.892   7.799  68.213  1.00  0.00    -0.086 OA 
HETATM   17  C   UNL     1     -10.346   7.269  66.996  1.00  0.00    -0.306 C  
ENDBRANCH  14  16
ENDBRANCH  12  14
BRANCH  13  18
HETATM   18  C   UNL     1      -9.011  10.993  67.114  1.00  0.00    -0.145 A  
HETATM   19  C   UNL     1      -7.968  11.425  67.969  1.00  0.00    -0.127 A  
HETATM   20  C   UNL     1      -6.629  11.349  67.587  1.00  0.00    -0.074 A  
HETATM   21  C   UNL     1      -8.663  10.515  65.833  1.00  0.00    -0.167 A  
HETATM   22  C   UNL     1      -7.307  10.435  65.459  1.00  0.00    -0.139 A  
HETATM   23 CL   UNL     1      -9.890   9.991  64.724  1.00  0.00    -0.379 Cl 
HETATM   24 CL   UNL     1      -6.798   9.791  63.932  1.00  0.00    -0.115 Cl 
HETATM   25  C   UNL     1      -6.298  10.842  66.337  1.00  0.00    -0.122 A  
ENDBRANCH  13  18
ENDBRANCH   4   6
ENDBRANCH   3   4
ENDBRANCH   2   3
TORSDOF 6
ENDMDL
MODEL       27
REMARK 921   NORMALIZED FREE ENERGY PREDICTED BY IDOCK:   -4.94 KCAL/MOL
REMARK 922        TOTAL FREE ENERGY PREDICTED BY IDOCK:   -7.90 KCAL/MOL
REMARK 923 INTER-LIGAND FREE ENERGY PREDICTED BY IDOCK:   -6.28 KCAL/MOL
REMARK 924 INTRA-LIGAND FREE ENERGY PREDICTED BY IDOCK:   -1.62 KCAL/MOL
REMARK 927      BINDING AFFINITY PREDICTED BY RF-SCORE:    0.00 PKD
ROOT
HETATM    1  C   UNL     1     -10.779   5.710  70.556  1.00  0.00    -0.344 C  
HETATM    2  C   UNL     1     -11.343   6.735  71.515  1.00  0.00    -0.275 C  
ENDROOT
BRANCH   2   3
HETATM    3  O   UNL     1     -11.531   7.928  70.750  1.00  0.00    -0.277 OA 
BRANCH   3   4
HETATM    4  C   UNL     1     -10.567   8.873  70.770  1.00  0.00    -0.226 C  
HETATM    5  O   UNL     1      -9.558   8.862  71.465  1.00  0.00    -0.258 OA 
BRANCH   4   6
HETATM    6  C   UNL     1     -10.824   9.852  69.686  1.00  0.00    -0.281 C  
HETATM    7  C   UNL     1     -11.795  10.792  69.763  1.00  0.00    -0.335 C  
HETATM    8  C   UNL     1     -12.734  11.054  70.920  1.00  0.00    -0.452 C  
HETATM    9  N   UNL     1     -12.010  11.639  68.690  1.00  0.00    -0.459 NA 
HETATM   10  C   UNL     1     -11.386  11.544  67.463  1.00  0.00    -0.299 C  
HETATM   11  C   UNL     1     -11.911  12.501  66.418  1.00  0.00    -0.445 C  
HETATM   12  C   UNL     1     -10.385  10.647  67.273  1.00  0.00    -0.265 C  
HETATM   13  C   UNL     1      -9.944   9.720  68.417  1.00  0.00    -0.176 C  
BRANCH  12  14
HETATM   14  C   UNL     1      -9.729  10.563  65.940  1.00  0.00    -0.217 C  
HETATM   15  O   UNL     1     -10.231  10.033  64.960  1.00  0.00    -0.280 OA 
BRANCH  14  16
HETATM   16  O   UNL     1      -8.511  11.160  65.949  1.00  0.00    -0.165 OA 
HETATM   17  C   UNL     1      -7.426  10.271  65.643  1.00  0.00    -0.149 C  
ENDBRANCH  14  16
ENDBRANCH  12  14
BRANCH  13  18
HETATM   18  C   UNL     1      -9.749   8.246  68.000  1.00  0.00    -0.187 A  
HETATM   19  C   UNL     1     -10.857   7.586  67.416  1.00  0.00    -0.272 A  
HETATM   20  C   UNL     1     -10.749   6.302  66.884  1.00  0.00    -0.411 A  
HETATM   21  C   UNL     1      -8.525   7.548  68.071  1.00  0.00    -0.123 A  
HETATM   22  C   UNL     1      -8.423   6.253  67.525  1.00  0.00    -0.108 A  
HETATM   23 CL   UNL     1      -7.131   8.284  68.795  1.00  0.00    -0.069 Cl 
HETATM   24 CL   UNL     1      -6.936   5.362  67.509  1.00  0.00    -0.064 Cl 
HETATM   25  C   UNL     1      -9.529   5.641  66.927  1.00  0.00    -0.142 A  
ENDBRANCH  13  18
ENDBRANCH   4   6
ENDBRANCH   3   4
ENDBRANCH   2   3
TORSDOF 6
ENDMDL
MODEL       28
REMARK 921   NORMALIZED FREE ENERGY PREDICTED BY IDOCK:   -4.94 KCAL/MOL
REMARK 922        TOTAL FREE ENERGY PREDICTED BY IDOCK:   -7.89 KCAL/MOL
REMARK 923 INTER-LIGAND FREE ENERGY PREDICTED BY IDOCK:   -6.46 KCAL/MOL
REMARK 924 INTRA-LIGAND FREE ENERGY PREDICTED BY IDOCK:   -1.43 KCAL/MOL
REMARK 927      BINDING AFFINITY PREDICTED BY RF-SCORE:    0.00 PKD
ROOT
HETATM    1  C   UNL     1     -10.785  15.888  65.133  1.00  0.00    -0.449 C  
HETATM    2  C   UNL     1     -11.841  14.925  64.637  1.00  0.00    -0.407 C  
ENDROOT
BRANCH   2   3
HETATM    3  O   UNL     1     -11.164  13.689  64.396  1.00  0.00    -0.370 OA 
BRANCH   3   4
HETATM    4  C   UNL     1     -11.300  12.688  65.292  1.00  0.00    -0.315 C  
HETATM    5  O   UNL     1     -12.356  12.221  65.700  1.00  0.00    -0.619 OA 
BRANCH   4   6
HETATM    6  C   UNL     1      -9.964  12.111  65.580  1.00  0.00    -0.271 C  
HETATM    7  C   UNL     1      -9.411  11.132  64.826  1.00  0.00    -0.218 C  
HETATM    8  C   UNL     1      -9.985  10.494  63.581  1.00  0.00    -0.299 C  
HETATM    9  N   UNL     1      -8.183  10.607  65.186  1.00  0.00    -0.134 NA 
HETATM   10  C   UNL     1      -7.493  10.913  66.342  1.00  0.00    -0.145 C  
HETATM   11  C   UNL     1      -6.247  10.088  66.565  1.00  0.00    -0.070 C  
HETATM   12  C   UNL     1      -7.945  11.889  67.169  1.00  0.00    -0.172 C  
HETATM   13  C   UNL     1      -9.235  12.657  66.834  1.00  0.00    -0.216 C  
BRANCH  12  14
HETATM   14  C   UNL     1      -7.184  12.200  68.409  1.00  0.00    -0.097 C  
HETATM   15  O   UNL     1      -7.269  11.558  69.445  1.00  0.00    -0.092 OA 
BRANCH  14  16
HETATM   16  O   UNL     1      -6.378  13.277  68.239  1.00  0.00    -0.079 OA 
HETATM   17  C   UNL     1      -6.811  14.446  68.949  1.00  0.00    -0.102 C  
ENDBRANCH  14  16
ENDBRANCH  12  14
BRANCH  13  18
HETATM   18  C   UNL     1     -10.196  12.834  68.030  1.00  0.00    -0.228 A  
HETATM   19  C   UNL     1     -10.521  14.160  68.408  1.00  0.00    -0.254 A  
HETATM   20  C   UNL     1     -11.481  14.429  69.384  1.00  0.00    -0.330 A  
HETATM   21  C   UNL     1     -10.843  11.776  68.702  1.00  0.00    -0.220 A  
HETATM   22  C   UNL     1     -11.816  12.058  69.682  1.00  0.00    -0.333 A  
HETATM   23 CL   UNL     1     -10.477  10.127  68.309  1.00  0.00    -0.227 Cl 
HETATM   24 CL   UNL     1     -12.704  10.814  70.499  1.00  0.00    -0.405 Cl 
HETATM   25  C   UNL     1     -12.136  13.379  70.012  1.00  0.00    -0.404 A  
ENDBRANCH  13  18
ENDBRANCH   4   6
ENDBRANCH   3   4
ENDBRANCH   2   3
TORSDOF 6
ENDMDL
MODEL       29
REMARK 921   NORMALIZED FREE ENERGY PREDICTED BY IDOCK:   -4.90 KCAL/MOL
REMARK 922        TOTAL FREE ENERGY PREDICTED BY IDOCK:   -7.84 KCAL/MOL
REMARK 923 INTER-LIGAND FREE ENERGY PREDICTED BY IDOCK:   -6.53 KCAL/MOL
REMARK 924 INTRA-LIGAND FREE ENERGY PREDICTED BY IDOCK:   -1.31 KCAL/MOL
REMARK 927      BINDING AFFINITY PREDICTED BY RF-SCORE:    0.00 PKD
ROOT
HETATM    1  C   UNL     1      -8.788  14.846  66.651  1.00  0.00    -0.287 C  
HETATM    2  C   UNL     1      -9.815  13.893  66.079  1.00  0.00    -0.289 C  
ENDROOT
BRANCH   2   3
HETATM    3  O   UNL     1     -10.693  13.565  67.159  1.00  0.00    -0.275 OA 
BRANCH   3   4
HETATM    4  C   UNL     1     -11.587  12.567  66.990  1.00  0.00    -0.368 C  
HETATM    5  O   UNL     1     -12.251  12.354  65.983  1.00  0.00    -0.636 OA 
BRANCH   4   6
HETATM    6  C   UNL     1     -11.517  11.651  68.154  1.00  0.00    -0.382 C  
HETATM    7  C   UNL     1     -11.830  12.039  69.413  1.00  0.00    -0.324 C  
HETATM    8  C   UNL     1     -12.331  13.395  69.860  1.00  0.00    -0.259 C  
HETATM    9  N   UNL     1     -11.692  11.142  70.456  1.00  0.00    -0.332 NA 
HETATM   10  C   UNL     1     -11.139   9.881  70.356  1.00  0.00    -0.319 C  
HETATM   11  C   UNL     1     -10.970   9.165  71.675  1.00  0.00    -0.445 C  
HETATM   12  C   UNL     1     -10.800   9.379  69.142  1.00  0.00    -0.176 C  
HETATM   13  C   UNL     1     -11.015  10.212  67.867  1.00  0.00    -0.335 C  
BRANCH  12  14
HETATM   14  C   UNL     1     -10.205   8.018  69.060  1.00  0.00    -0.210 C  
HETATM   15  O   UNL     1     -10.826   7.016  68.737  1.00  0.00    -0.211 OA 
BRANCH  14  16
HETATM   16  O   UNL     1      -8.886   8.033  69.376  1.00  0.00    -0.142 OA 
HETATM   17  C   UNL     1      -8.056   7.325  68.445  1.00  0.00    -0.125 C  
ENDBRANCH  14  16
ENDBRANCH  12  14
BRANCH  13  18
HETATM   18  C   UNL     1      -9.819  10.202  66.892  1.00  0.00    -0.244 A  
HETATM   19  C   UNL     1     -10.031   9.631  65.613  1.00  0.00    -0.321 A  
HETATM   20  C   UNL     1      -9.060   9.690  64.614  1.00  0.00    -0.286 A  
HETATM   21  C   UNL     1      -8.570  10.804  67.149  1.00  0.00    -0.128 A  
HETATM   22  C   UNL     1      -7.597  10.866  66.131  1.00  0.00    -0.119 A  
HETATM   23 CL   UNL     1      -8.230  11.503  68.700  1.00  0.00    -0.146 Cl 
HETATM   24 CL   UNL     1      -6.068  11.653  66.348  1.00  0.00    -0.037 Cl 
HETATM   25  C   UNL     1      -7.849  10.319  64.869  1.00  0.00    -0.134 A  
ENDBRANCH  13  18
ENDBRANCH   4   6
ENDBRANCH   3   4
ENDBRANCH   2   3
TORSDOF 6
ENDMDL
MODEL       30
REMARK 921   NORMALIZED FREE ENERGY PREDICTED BY IDOCK:   -4.89 KCAL/MOL
REMARK 922        TOTAL FREE ENERGY PREDICTED BY IDOCK:   -7.83 KCAL/MOL
REMARK 923 INTER-LIGAND FREE ENERGY PREDICTED BY IDOCK:   -6.82 KCAL/MOL
REMARK 924 INTRA-LIGAND FREE ENERGY PREDICTED BY IDOCK:   -1.01 KCAL/MOL
REMARK 927      BINDING AFFINITY PREDICTED BY RF-SCORE:    0.00 PKD
ROOT
HETATM    1  C   UNL     1     -12.636  12.048  63.541  1.00  0.00    -0.625 C  
HETATM    2  C   UNL     1     -11.676  13.212  63.656  1.00  0.00    -0.449 C  
ENDROOT
BRANCH   2   3
HETATM    3  O   UNL     1     -12.014  13.881  64.874  1.00  0.00    -0.358 OA 
BRANCH   3   4
HETATM    4  C   UNL     1     -11.019  14.267  65.702  1.00  0.00    -0.309 C  
HETATM    5  O   UNL     1      -9.988  14.841  65.374  1.00  0.00    -0.357 OA 
BRANCH   4   6
HETATM    6  C   UNL     1     -11.445  14.049  67.106  1.00  0.00    -0.373 C  
HETATM    7  C   UNL     1     -11.640  15.066  67.978  1.00  0.00    -0.338 C  
HETATM    8  C   UNL     1     -11.518  16.549  67.706  1.00  0.00     0.132 C  
HETATM    9  N   UNL     1     -11.988  14.784  69.287  1.00  0.00    -0.305 NA 
HETATM   10  C   UNL     1     -12.046  13.521  69.842  1.00  0.00    -0.341 C  
HETATM   11  C   UNL     1     -12.305  13.501  71.329  1.00  0.00    -0.325 C  
HETATM   12  C   UNL     1     -11.881  12.424  69.060  1.00  0.00    -0.349 C  
HETATM   13  C   UNL     1     -11.614  12.575  67.553  1.00  0.00    -0.424 C  
BRANCH  12  14
HETATM   14  C   UNL     1     -11.947  11.074  69.681  1.00  0.00    -0.353 C  
HETATM   15  O   UNL     1     -12.987  10.510  69.989  1.00  0.00    -0.161 OA 
BRANCH  14  16
HETATM   16  O   UNL     1     -10.710  10.545  69.851  1.00  0.00    -0.267 OA 
HETATM   17  C   UNL     1     -10.628   9.146  69.541  1.00  0.00    -0.223 C  
ENDBRANCH  14  16
ENDBRANCH  12  14
BRANCH  13  18
HETATM   18  C   UNL     1     -10.481  11.674  67.015  1.00  0.00    -0.258 A  
HETATM   19  C   UNL     1     -10.839  10.674  66.078  1.00  0.00    -0.051 A  
HETATM   20  C   UNL     1      -9.877   9.898  65.432  1.00  0.00    -0.384 A  
HETATM   21  C   UNL     1      -9.113  11.842  67.315  1.00  0.00    -0.178 A  
HETATM   22  C   UNL     1      -8.148  11.058  66.652  1.00  0.00    -0.155 A  
HETATM   23 CL   UNL     1      -8.603  13.031  68.470  1.00  0.00    -0.105 Cl 
HETATM   24 CL   UNL     1      -6.446  11.256  66.913  1.00  0.00    -0.115 Cl 
HETATM   25  C   UNL     1      -8.532  10.099  65.709  1.00  0.00    -0.153 A  
ENDBRANCH  13  18
ENDBRANCH   4   6
ENDBRANCH   3   4
ENDBRANCH   2   3
TORSDOF 6
ENDMDL
MODEL       31
REMARK 921   NORMALIZED FREE ENERGY PREDICTED BY IDOCK:   -4.88 KCAL/MOL
REMARK 922        TOTAL FREE ENERGY PREDICTED BY IDOCK:   -7.82 KCAL/MOL
REMARK 923 INTER-LIGAND FREE ENERGY PREDICTED BY IDOCK:   -6.50 KCAL/MOL
REMARK 924 INTRA-LIGAND FREE ENERGY PREDICTED BY IDOCK:   -1.32 KCAL/MOL
REMARK 927      BINDING AFFINITY PREDICTED BY RF-SCORE:    0.00 PKD
ROOT
HETATM    1  C   UNL     1     -12.309  12.610  65.065  1.00  0.00    -0.561 C  
HETATM    2  C   UNL     1     -12.045  13.314  66.379  1.00  0.00    -0.394 C  
ENDROOT
BRANCH   2   3
HETATM    3  O   UNL     1     -12.013  12.288  67.374  1.00  0.00    -0.530 OA 
BRANCH   3   4
HETATM    4  C   UNL     1     -11.261  12.478  68.480  1.00  0.00    -0.283 C  
HETATM    5  O   UNL     1     -10.622  13.486  68.755  1.00  0.00    -0.246 OA 
BRANCH   4   6
HETATM    6  C   UNL     1     -11.467  11.340  69.409  1.00  0.00    -0.370 C  
HETATM    7  C   UNL     1     -12.157  11.457  70.568  1.00  0.00    -0.394 C  
HETATM    8  C   UNL     1     -12.857  12.686  71.103  1.00  0.00    -0.311 C  
HETATM    9  N   UNL     1     -12.265  10.363  71.409  1.00  0.00    -0.372 NA 
HETATM   10  C   UNL     1     -11.622   9.155  71.232  1.00  0.00    -0.331 C  
HETATM   11  C   UNL     1     -11.793   8.181  72.374  1.00  0.00    -0.448 C  
HETATM   12  C   UNL     1     -10.913   8.919  70.099  1.00  0.00    -0.245 C  
HETATM   13  C   UNL     1     -10.807   9.997  69.008  1.00  0.00    -0.253 C  
BRANCH  12  14
HETATM   14  C   UNL     1     -10.228   7.609  69.932  1.00  0.00    -0.215 C  
HETATM   15  O   UNL     1     -10.664   6.687  69.259  1.00  0.00    -0.224 OA 
BRANCH  14  16
HETATM   16  O   UNL     1      -9.054   7.572  70.611  1.00  0.00    -0.154 OA 
HETATM   17  C   UNL     1      -7.965   7.015  69.861  1.00  0.00    -0.123 C  
ENDBRANCH  14  16
ENDBRANCH  12  14
BRANCH  13  18
HETATM   18  C   UNL     1      -9.382  10.197  68.449  1.00  0.00    -0.137 A  
HETATM   19  C   UNL     1      -8.384  10.624  69.359  1.00  0.00    -0.073 A  
HETATM   20  C   UNL     1      -7.042  10.707  68.989  1.00  0.00    -0.086 A  
HETATM   21  C   UNL     1      -8.988   9.893  67.129  1.00  0.00    -0.138 A  
HETATM   22  C   UNL     1      -7.628   9.972  66.766  1.00  0.00    -0.103 A  
HETATM   23 CL   UNL     1     -10.159   9.387  65.954  1.00  0.00    -0.332 Cl 
HETATM   24 CL   UNL     1      -7.058   9.545  65.187  1.00  0.00    -0.100 Cl 
HETATM   25  C   UNL     1      -6.663  10.369  67.697  1.00  0.00    -0.074 A  
ENDBRANCH  13  18
ENDBRANCH   4   6
ENDBRANCH   3   4
ENDBRANCH   2   3
TORSDOF 6
ENDMDL
MODEL       32
REMARK 921   NORMALIZED FREE ENERGY PREDICTED BY IDOCK:   -4.88 KCAL/MOL
REMARK 922        TOTAL FREE ENERGY PREDICTED BY IDOCK:   -7.81 KCAL/MOL
REMARK 923 INTER-LIGAND FREE ENERGY PREDICTED BY IDOCK:   -6.44 KCAL/MOL
REMARK 924 INTRA-LIGAND FREE ENERGY PREDICTED BY IDOCK:   -1.37 KCAL/MOL
REMARK 927      BINDING AFFINITY PREDICTED BY RF-SCORE:    0.00 PKD
ROOT
HETATM    1  C   UNL     1     -11.438  15.991  64.342  1.00  0.00    -0.246 C  
HETATM    2  C   UNL     1     -12.223  14.697  64.332  1.00  0.00    -0.452 C  
ENDROOT
BRANCH   2   3
HETATM    3  O   UNL     1     -11.254  13.649  64.432  1.00  0.00    -0.370 OA 
BRANCH   3   4
HETATM    4  C   UNL     1     -11.294  12.828  65.504  1.00  0.00    -0.312 C  
HETATM    5  O   UNL     1     -12.296  12.315  65.985  1.00  0.00    -0.609 OA 
BRANCH   4   6
HETATM    6  C   UNL     1      -9.906  12.494  65.909  1.00  0.00    -0.257 C  
HETATM    7  C   UNL     1      -9.328  11.302  65.628  1.00  0.00    -0.224 C  
HETATM    8  C   UNL     1      -9.923  10.152  64.847  1.00  0.00    -0.358 C  
HETATM    9  N   UNL     1      -8.047  11.043  66.082  1.00  0.00    -0.161 NA 
HETATM   10  C   UNL     1      -7.318  11.861  66.921  1.00  0.00    -0.075 C  
HETATM   11  C   UNL     1      -6.007  11.273  67.386  1.00  0.00    -0.062 C  
HETATM   12  C   UNL     1      -7.792  13.086  67.261  1.00  0.00    -0.132 C  
HETATM   13  C   UNL     1      -9.150  13.572  66.726  1.00  0.00    -0.223 C  
BRANCH  12  14
HETATM   14  C   UNL     1      -6.988  13.950  68.167  1.00  0.00    -0.120 C  
HETATM   15  O   UNL     1      -7.023  13.885  69.387  1.00  0.00    -0.099 OA 
BRANCH  14  16
HETATM   16  O   UNL     1      -6.205  14.809  67.468  1.00  0.00    -0.300 OA 
HETATM   17  C   UNL     1      -6.813  16.086  67.227  1.00  0.00    -0.201 C  
ENDBRANCH  14  16
ENDBRANCH  12  14
BRANCH  13  18
HETATM   18  C   UNL     1     -10.053  14.230  67.791  1.00  0.00    -0.231 A  
HETATM   19  C   UNL     1     -10.362  15.601  67.621  1.00  0.00    -0.275 A  
HETATM   20  C   UNL     1     -11.275  16.255  68.448  1.00  0.00    -0.349 A  
HETATM   21  C   UNL     1     -10.666  13.540  68.858  1.00  0.00    -0.201 A  
HETATM   22  C   UNL     1     -11.592  14.208  69.686  1.00  0.00    -0.292 A  
HETATM   23 CL   UNL     1     -10.317  11.865  69.143  1.00  0.00    -0.051 Cl 
HETATM   24 CL   UNL     1     -12.440  13.411  70.970  1.00  0.00    -0.452 Cl 
HETATM   25  C   UNL     1     -11.899  15.556  69.472  1.00  0.00    -0.390 A  
ENDBRANCH  13  18
ENDBRANCH   4   6
ENDBRANCH   3   4
ENDBRANCH   2   3
TORSDOF 6
ENDMDL
MODEL       33
REMARK 921   NORMALIZED FREE ENERGY PREDICTED BY IDOCK:   -4.87 KCAL/MOL
REMARK 922        TOTAL FREE ENERGY PREDICTED BY IDOCK:   -7.80 KCAL/MOL
REMARK 923 INTER-LIGAND FREE ENERGY PREDICTED BY IDOCK:   -6.44 KCAL/MOL
REMARK 924 INTRA-LIGAND FREE ENERGY PREDICTED BY IDOCK:   -1.36 KCAL/MOL
REMARK 927      BINDING AFFINITY PREDICTED BY RF-SCORE:    0.00 PKD
ROOT
HETATM    1  C   UNL     1     -10.762  11.813  63.474  1.00  0.00    -0.501 C  
HETATM    2  C   UNL     1     -11.563  12.221  64.691  1.00  0.00    -0.344 C  
ENDROOT
BRANCH   2   3
HETATM    3  O   UNL     1     -11.123  11.372  65.754  1.00  0.00    -0.252 OA 
BRANCH   3   4
HETATM    4  C   UNL     1     -10.379  11.905  66.746  1.00  0.00    -0.209 C  
HETATM    5  O   UNL     1      -9.312  12.492  66.615  1.00  0.00    -0.227 OA 
BRANCH   4   6
HETATM    6  C   UNL     1     -11.142  11.831  68.017  1.00  0.00    -0.297 C  
HETATM    7  C   UNL     1     -11.749  12.907  68.571  1.00  0.00    -0.339 C  
HETATM    8  C   UNL     1     -11.812  14.314  68.019  1.00  0.00    -0.379 C  
HETATM    9  N   UNL     1     -12.400  12.772  69.784  1.00  0.00    -0.108 NA 
HETATM   10  C   UNL     1     -12.394  11.637  70.570  1.00  0.00    -0.321 C  
HETATM   11  C   UNL     1     -13.057  11.804  71.917  1.00  0.00    -0.482 C  
HETATM   12  C   UNL     1     -11.827  10.493  70.112  1.00  0.00    -0.404 C  
HETATM   13  C   UNL     1     -11.174  10.450  68.720  1.00  0.00    -0.295 C  
BRANCH  12  14
HETATM   14  C   UNL     1     -11.833   9.283  70.977  1.00  0.00    -0.307 C  
HETATM   15  O   UNL     1     -12.621   8.357  70.857  1.00  0.00    -0.122 OA 
BRANCH  14  16
HETATM   16  O   UNL     1     -10.847   9.334  71.907  1.00  0.00    -0.351 OA 
HETATM   17  C   UNL     1     -10.084   8.123  72.014  1.00  0.00    -0.237 C  
ENDBRANCH  14  16
ENDBRANCH  12  14
BRANCH  13  18
HETATM   18  C   UNL     1      -9.797   9.752  68.685  1.00  0.00    -0.168 A  
HETATM   19  C   UNL     1      -8.741  10.366  69.402  1.00  0.00    -0.138 A  
HETATM   20  C   UNL     1      -7.498   9.751  69.546  1.00  0.00    -0.101 A  
HETATM   21  C   UNL     1      -9.547   8.505  68.076  1.00  0.00    -0.149 A  
HETATM   22  C   UNL     1      -8.289   7.887  68.233  1.00  0.00    -0.124 A  
HETATM   23 CL   UNL     1     -10.785   7.704  67.162  1.00  0.00    -0.401 Cl 
HETATM   24 CL   UNL     1      -7.930   6.324  67.576  1.00  0.00    -0.108 Cl 
HETATM   25  C   UNL     1      -7.277   8.506  68.972  1.00  0.00    -0.073 A  
ENDBRANCH  13  18
ENDBRANCH   4   6
ENDBRANCH   3   4
ENDBRANCH   2   3
TORSDOF 6
ENDMDL
MODEL       34
REMARK 921   NORMALIZED FREE ENERGY PREDICTED BY IDOCK:   -4.83 KCAL/MOL
REMARK 922        TOTAL FREE ENERGY PREDICTED BY IDOCK:   -7.75 KCAL/MOL
REMARK 923 INTER-LIGAND FREE ENERGY PREDICTED BY IDOCK:   -6.34 KCAL/MOL
REMARK 924 INTRA-LIGAND FREE ENERGY PREDICTED BY IDOCK:   -1.42 KCAL/MOL
REMARK 927      BINDING AFFINITY PREDICTED BY RF-SCORE:    0.00 PKD
ROOT
HETATM    1  C   UNL     1     -10.028  10.366  64.907  1.00  0.00    -0.409 C  
HETATM    2  C   UNL     1     -10.715  11.310  63.945  1.00  0.00    -0.384 C  
ENDROOT
BRANCH   2   3
HETATM    3  O   UNL     1     -10.655  12.603  64.553  1.00  0.00    -0.307 OA 
BRANCH   3   4
HETATM    4  C   UNL     1     -11.677  12.997  65.343  1.00  0.00    -0.364 C  
HETATM    5  O   UNL     1     -12.698  12.361  65.577  1.00  0.00    -0.530 OA 
BRANCH   4   6
HETATM    6  C   UNL     1     -11.298  14.253  66.036  1.00  0.00    -0.335 C  
HETATM    7  C   UNL     1     -11.239  15.449  65.404  1.00  0.00    -0.272 C  
HETATM    8  C   UNL     1     -11.573  15.744  63.959  1.00  0.00     0.085 C  
HETATM    9  N   UNL     1     -10.829  16.569  66.104  1.00  0.00    -0.130 NA 
HETATM   10  C   UNL     1     -10.347  16.569  67.398  1.00  0.00    -0.290 C  
HETATM   11  C   UNL     1      -9.827  17.905  67.873  1.00  0.00    -0.309 C  
HETATM   12  C   UNL     1     -10.370  15.429  68.135  1.00  0.00    -0.239 C  
HETATM   13  C   UNL     1     -10.921  14.125  67.534  1.00  0.00    -0.292 C  
BRANCH  12  14
HETATM   14  C   UNL     1      -9.845  15.454  69.526  1.00  0.00    -0.260 C  
HETATM   15  O   UNL     1      -8.694  15.176  69.831  1.00  0.00    -0.072 OA 
BRANCH  14  16
HETATM   16  O   UNL     1     -10.800  15.834  70.410  1.00  0.00    -0.312 OA 
HETATM   17  C   UNL     1     -11.622  14.755  70.879  1.00  0.00    -0.266 C  
ENDBRANCH  14  16
ENDBRANCH  12  14
BRANCH  13  18
HETATM   18  C   UNL     1     -10.046  12.882  67.805  1.00  0.00    -0.229 A  
HETATM   19  C   UNL     1      -8.696  12.935  67.382  1.00  0.00    -0.197 A  
HETATM   20  C   UNL     1      -7.788  11.924  67.696  1.00  0.00    -0.142 A  
HETATM   21  C   UNL     1     -10.469  11.747  68.527  1.00  0.00    -0.215 A  
HETATM   22  C   UNL     1      -9.544  10.732  68.846  1.00  0.00    -0.195 A  
HETATM   23 CL   UNL     1     -12.114  11.601  69.058  1.00  0.00    -0.343 Cl 
HETATM   24 CL   UNL     1      -9.971   9.344  69.791  1.00  0.00    -0.200 Cl 
HETATM   25  C   UNL     1      -8.210  10.829  68.439  1.00  0.00    -0.129 A  
ENDBRANCH  13  18
ENDBRANCH   4   6
ENDBRANCH   3   4
ENDBRANCH   2   3
TORSDOF 6
ENDMDL
MODEL       35
REMARK 921   NORMALIZED FREE ENERGY PREDICTED BY IDOCK:   -4.83 KCAL/MOL
REMARK 922        TOTAL FREE ENERGY PREDICTED BY IDOCK:   -7.74 KCAL/MOL
REMARK 923 INTER-LIGAND FREE ENERGY PREDICTED BY IDOCK:   -6.87 KCAL/MOL
REMARK 924 INTRA-LIGAND FREE ENERGY PREDICTED BY IDOCK:   -0.88 KCAL/MOL
REMARK 927      BINDING AFFINITY PREDICTED BY RF-SCORE:    0.00 PKD
ROOT
HETATM    1  C   UNL     1     -12.437  15.046  70.340  1.00  0.00    -0.407 C  
HETATM    2  C   UNL     1     -11.760  15.650  69.129  1.00  0.00    -0.390 C  
ENDROOT
BRANCH   2   3
HETATM    3  O   UNL     1     -11.432  14.552  68.273  1.00  0.00    -0.280 OA 
BRANCH   3   4
HETATM    4  C   UNL     1     -10.133  14.313  67.992  1.00  0.00    -0.227 C  
HETATM    5  O   UNL     1      -9.174  14.604  68.697  1.00  0.00    -0.189 OA 
BRANCH   4   6
HETATM    6  C   UNL     1     -10.048  13.477  66.769  1.00  0.00    -0.268 C  
HETATM    7  C   UNL     1     -10.422  13.925  65.547  1.00  0.00    -0.323 C  
HETATM    8  C   UNL     1     -10.930  15.304  65.189  1.00  0.00    -0.428 C  
HETATM    9  N   UNL     1     -10.362  13.071  64.461  1.00  0.00    -0.375 NA 
HETATM   10  C   UNL     1     -10.056  11.726  64.520  1.00  0.00    -0.274 C  
HETATM   11  C   UNL     1     -10.207  10.991  63.209  1.00  0.00    -0.360 C  
HETATM   12  C   UNL     1      -9.654  11.168  65.690  1.00  0.00    -0.259 C  
HETATM   13  C   UNL     1      -9.546  12.023  66.963  1.00  0.00    -0.200 C  
BRANCH  12  14
HETATM   14  C   UNL     1      -9.331   9.717  65.728  1.00  0.00    -0.228 C  
HETATM   15  O   UNL     1      -8.235   9.250  65.455  1.00  0.00    -0.117 OA 
BRANCH  14  16
HETATM   16  O   UNL     1     -10.402   8.980  66.116  1.00  0.00    -0.212 OA 
HETATM   17  C   UNL     1     -10.058   7.785  66.832  1.00  0.00    -0.286 C  
ENDBRANCH  14  16
ENDBRANCH  12  14
BRANCH  13  18
HETATM   18  C   UNL     1     -10.151  11.366  68.223  1.00  0.00    -0.204 A  
HETATM   19  C   UNL     1     -11.558  11.426  68.371  1.00  0.00    -0.385 A  
HETATM   20  C   UNL     1     -12.216  10.751  69.400  1.00  0.00    -0.242 A  
HETATM   21  C   UNL     1      -9.415  10.632  69.176  1.00  0.00    -0.170 A  
HETATM   22  C   UNL     1     -10.089   9.947  70.207  1.00  0.00    -0.237 A  
HETATM   23 CL   UNL     1      -7.686  10.534  69.071  1.00  0.00    -0.115 Cl 
HETATM   24 CL   UNL     1      -9.260   8.966  71.371  1.00  0.00    -0.322 Cl 
HETATM   25  C   UNL     1     -11.482  10.002  70.309  1.00  0.00    -0.372 A  
ENDBRANCH  13  18
ENDBRANCH   4   6
ENDBRANCH   3   4
ENDBRANCH   2   3
TORSDOF 6
ENDMDL
MODEL       36
REMARK 921   NORMALIZED FREE ENERGY PREDICTED BY IDOCK:   -4.79 KCAL/MOL
REMARK 922        TOTAL FREE ENERGY PREDICTED BY IDOCK:   -7.70 KCAL/MOL
REMARK 923 INTER-LIGAND FREE ENERGY PREDICTED BY IDOCK:   -6.46 KCAL/MOL
REMARK 924 INTRA-LIGAND FREE ENERGY PREDICTED BY IDOCK:   -1.24 KCAL/MOL
REMARK 927      BINDING AFFINITY PREDICTED BY RF-SCORE:    0.00 PKD
ROOT
HETATM    1  C   UNL     1     -10.648  11.407  65.062  1.00  0.00    -0.359 C  
HETATM    2  C   UNL     1      -9.844  10.144  64.841  1.00  0.00    -0.319 C  
ENDROOT
BRANCH   2   3
HETATM    3  O   UNL     1     -10.262   9.229  65.857  1.00  0.00    -0.245 OA 
BRANCH   3   4
HETATM    4  C   UNL     1      -9.325   8.496  66.497  1.00  0.00    -0.203 C  
HETATM    5  O   UNL     1      -8.144   8.402  66.186  1.00  0.00    -0.099 OA 
BRANCH   4   6
HETATM    6  C   UNL     1      -9.905   7.955  67.750  1.00  0.00    -0.204 C  
HETATM    7  C   UNL     1     -10.550   6.765  67.805  1.00  0.00    -0.249 C  
HETATM    8  C   UNL     1     -10.759   5.779  66.678  1.00  0.00    -0.333 C  
HETATM    9  N   UNL     1     -11.109   6.349  69.000  1.00  0.00    -0.353 NA 
HETATM   10  C   UNL     1     -11.178   7.103  70.154  1.00  0.00    -0.262 C  
HETATM   11  C   UNL     1     -11.974   6.469  71.270  1.00  0.00    -0.364 C  
HETATM   12  C   UNL     1     -10.556   8.308  70.220  1.00  0.00    -0.230 C  
HETATM   13  C   UNL     1      -9.779   8.850  69.009  1.00  0.00    -0.171 C  
BRANCH  12  14
HETATM   14  C   UNL     1     -10.645   9.102  71.475  1.00  0.00    -0.358 C  
HETATM   15  O   UNL     1     -11.662   9.656  71.866  1.00  0.00    -0.357 OA 
BRANCH  14  16
HETATM   16  O   UNL     1      -9.459   9.125  72.133  1.00  0.00    -0.291 OA 
HETATM   17  C   UNL     1      -9.313   8.078  73.103  1.00  0.00    -0.277 C  
ENDBRANCH  14  16
ENDBRANCH  12  14
BRANCH  13  18
HETATM   18  C   UNL     1     -10.056  10.336  68.691  1.00  0.00    -0.187 A  
HETATM   19  C   UNL     1     -11.410  10.744  68.631  1.00  0.00    -0.356 A  
HETATM   20  C   UNL     1     -11.766  12.085  68.485  1.00  0.00    -0.387 A  
HETATM   21  C   UNL     1      -9.059  11.325  68.556  1.00  0.00    -0.173 A  
HETATM   22  C   UNL     1      -9.428  12.678  68.415  1.00  0.00    -0.163 A  
HETATM   23 CL   UNL     1      -7.379  10.896  68.596  1.00  0.00    -0.093 Cl 
HETATM   24 CL   UNL     1      -8.263  13.957  68.316  1.00  0.00    -0.152 Cl 
HETATM   25  C   UNL     1     -10.775  13.052  68.389  1.00  0.00    -0.273 A  
ENDBRANCH  13  18
ENDBRANCH   4   6
ENDBRANCH   3   4
ENDBRANCH   2   3
TORSDOF 6
ENDMDL
MODEL       37
REMARK 921   NORMALIZED FREE ENERGY PREDICTED BY IDOCK:   -4.77 KCAL/MOL
REMARK 922        TOTAL FREE ENERGY PREDICTED BY IDOCK:   -7.67 KCAL/MOL
REMARK 923 INTER-LIGAND FREE ENERGY PREDICTED BY IDOCK:   -6.62 KCAL/MOL
REMARK 924 INTRA-LIGAND FREE ENERGY PREDICTED BY IDOCK:   -1.05 KCAL/MOL
REMARK 927      BINDING AFFINITY PREDICTED BY RF-SCORE:    0.00 PKD
ROOT
HETATM    1  C   UNL     1      -5.931  16.237  69.705  1.00  0.00    -0.176 C  
HETATM    2  C   UNL     1      -7.215  16.420  68.925  1.00  0.00    -0.203 C  
ENDROOT
BRANCH   2   3
HETATM    3  O   UNL     1      -7.969  15.222  69.123  1.00  0.00    -0.180 OA 
BRANCH   3   4
HETATM    4  C   UNL     1      -9.311  15.312  69.246  1.00  0.00    -0.239 C  
HETATM    5  O   UNL     1      -9.927  15.593  70.267  1.00  0.00    -0.200 OA 
BRANCH   4   6
HETATM    6  C   UNL     1      -9.930  15.194  67.903  1.00  0.00    -0.221 C  
HETATM    7  C   UNL     1     -10.423  16.259  67.227  1.00  0.00    -0.300 C  
HETATM    8  C   UNL     1     -10.404  17.710  67.655  1.00  0.00    -0.368 C  
HETATM    9  N   UNL     1     -11.031  16.065  66.000  1.00  0.00    -0.172 NA 
HETATM   10  C   UNL     1     -11.298  14.837  65.428  1.00  0.00    -0.356 C  
HETATM   11  C   UNL     1     -12.105  14.902  64.154  1.00  0.00    -0.289 C  
HETATM   12  C   UNL     1     -10.840  13.699  66.009  1.00  0.00    -0.275 C  
HETATM   13  C   UNL     1     -10.032  13.764  67.316  1.00  0.00    -0.239 C  
BRANCH  12  14
HETATM   14  C   UNL     1     -11.141  12.388  65.374  1.00  0.00    -0.306 C  
HETATM   15  O   UNL     1     -12.241  11.854  65.389  1.00  0.00    -0.377 OA 
BRANCH  14  16
HETATM   16  O   UNL     1     -10.046  11.868  64.768  1.00  0.00    -0.255 OA 
HETATM   17  C   UNL     1     -10.179  11.726  63.347  1.00  0.00    -0.449 C  
ENDBRANCH  14  16
ENDBRANCH  12  14
BRANCH  13  18
HETATM   18  C   UNL     1     -10.462  12.731  68.380  1.00  0.00    -0.253 A  
HETATM   19  C   UNL     1     -11.634  13.017  69.122  1.00  0.00    -0.368 A  
HETATM   20  C   UNL     1     -12.183  12.092  70.010  1.00  0.00    -0.280 A  
HETATM   21  C   UNL     1      -9.829  11.489  68.594  1.00  0.00    -0.177 A  
HETATM   22  C   UNL     1     -10.394  10.558  69.489  1.00  0.00    -0.221 A  
HETATM   23 CL   UNL     1      -8.376  11.081  67.739  1.00  0.00    -0.116 Cl 
HETATM   24 CL   UNL     1      -9.716   8.985  69.749  1.00  0.00    -0.174 Cl 
HETATM   25  C   UNL     1     -11.570  10.858  70.184  1.00  0.00    -0.425 A  
ENDBRANCH  13  18
ENDBRANCH   4   6
ENDBRANCH   3   4
ENDBRANCH   2   3
TORSDOF 6
ENDMDL
MODEL       38
REMARK 921   NORMALIZED FREE ENERGY PREDICTED BY IDOCK:   -4.77 KCAL/MOL
REMARK 922        TOTAL FREE ENERGY PREDICTED BY IDOCK:   -7.66 KCAL/MOL
REMARK 923 INTER-LIGAND FREE ENERGY PREDICTED BY IDOCK:   -6.39 KCAL/MOL
REMARK 924 INTRA-LIGAND FREE ENERGY PREDICTED BY IDOCK:   -1.27 KCAL/MOL
REMARK 927      BINDING AFFINITY PREDICTED BY RF-SCORE:    0.00 PKD
ROOT
HETATM    1  C   UNL     1     -11.871  14.218  70.233  1.00  0.00    -0.377 C  
HETATM    2  C   UNL     1     -11.934  14.141  68.722  1.00  0.00    -0.332 C  
ENDROOT
BRANCH   2   3
HETATM    3  O   UNL     1     -11.000  13.127  68.342  1.00  0.00    -0.241 OA 
BRANCH   3   4
HETATM    4  C   UNL     1     -11.471  11.967  67.836  1.00  0.00    -0.316 C  
HETATM    5  O   UNL     1     -12.360  11.276  68.317  1.00  0.00    -0.542 OA 
BRANCH   4   6
HETATM    6  C   UNL     1     -10.868  11.741  66.499  1.00  0.00    -0.323 C  
HETATM    7  C   UNL     1     -11.418  12.218  65.357  1.00  0.00    -0.354 C  
HETATM    8  C   UNL     1     -12.660  13.069  65.219  1.00  0.00    -0.516 C  
HETATM    9  N   UNL     1     -10.826  11.924  64.142  1.00  0.00    -0.325 NA 
HETATM   10  C   UNL     1      -9.758  11.068  63.962  1.00  0.00    -0.288 C  
HETATM   11  C   UNL     1      -9.402  10.806  62.518  1.00  0.00    -0.310 C  
HETATM   12  C   UNL     1      -9.118  10.540  65.035  1.00  0.00    -0.231 C  
HETATM   13  C   UNL     1      -9.581  10.878  66.462  1.00  0.00    -0.224 C  
BRANCH  12  14
HETATM   14  C   UNL     1      -7.970   9.619  64.815  1.00  0.00    -0.129 C  
HETATM   15  O   UNL     1      -8.077   8.479  64.388  1.00  0.00    -0.150 OA 
BRANCH  14  16
HETATM   16  O   UNL     1      -6.793  10.209  65.138  1.00  0.00    -0.124 OA 
HETATM   17  C   UNL     1      -6.070   9.535  66.179  1.00  0.00    -0.063 C  
ENDBRANCH  14  16
ENDBRANCH  12  14
BRANCH  13  18
HETATM   18  C   UNL     1      -9.675   9.659  67.405  1.00  0.00    -0.198 A  
HETATM   19  C   UNL     1     -10.486   8.577  66.985  1.00  0.00    -0.362 A  
HETATM   20  C   UNL     1     -10.534   7.378  67.696  1.00  0.00    -0.310 A  
HETATM   21  C   UNL     1      -8.938   9.511  68.598  1.00  0.00    -0.132 A  
HETATM   22  C   UNL     1      -8.987   8.293  69.307  1.00  0.00    -0.147 A  
HETATM   23 CL   UNL     1      -7.942  10.803  69.187  1.00  0.00    -0.147 Cl 
HETATM   24 CL   UNL     1      -8.054   8.009  70.739  1.00  0.00    -0.098 Cl 
HETATM   25  C   UNL     1      -9.775   7.232  68.849  1.00  0.00    -0.148 A  
ENDBRANCH  13  18
ENDBRANCH   4   6
ENDBRANCH   3   4
ENDBRANCH   2   3
TORSDOF 6
ENDMDL
MODEL       39
REMARK 921   NORMALIZED FREE ENERGY PREDICTED BY IDOCK:   -4.70 KCAL/MOL
REMARK 922        TOTAL FREE ENERGY PREDICTED BY IDOCK:   -7.58 KCAL/MOL
REMARK 923 INTER-LIGAND FREE ENERGY PREDICTED BY IDOCK:   -6.47 KCAL/MOL
REMARK 924 INTRA-LIGAND FREE ENERGY PREDICTED BY IDOCK:   -1.11 KCAL/MOL
REMARK 927      BINDING AFFINITY PREDICTED BY RF-SCORE:    0.00 PKD
ROOT
HETATM    1  C   UNL     1     -12.610  13.127  65.437  1.00  0.00    -0.512 C  
HETATM    2  C   UNL     1     -11.364  12.626  66.134  1.00  0.00    -0.330 C  
ENDROOT
BRANCH   2   3
HETATM    3  O   UNL     1     -11.806  12.063  67.372  1.00  0.00    -0.546 OA 
BRANCH   3   4
HETATM    4  C   UNL     1     -10.939  12.010  68.407  1.00  0.00    -0.237 C  
HETATM    5  O   UNL     1      -9.928  12.688  68.539  1.00  0.00    -0.219 OA 
BRANCH   4   6
HETATM    6  C   UNL     1     -11.495  11.125  69.460  1.00  0.00    -0.374 C  
HETATM    7  C   UNL     1     -12.233  11.591  70.495  1.00  0.00    -0.377 C  
HETATM    8  C   UNL     1     -12.659  13.019  70.752  1.00  0.00    -0.321 C  
HETATM    9  N   UNL     1     -12.676  10.711  71.466  1.00  0.00    -0.425 NA 
HETATM   10  C   UNL     1     -12.332   9.377  71.549  1.00  0.00    -0.370 C  
HETATM   11  C   UNL     1     -12.832   8.678  72.792  1.00  0.00    -0.126 C  
HETATM   12  C   UNL     1     -11.606   8.796  70.561  1.00  0.00    -0.170 C  
HETATM   13  C   UNL     1     -11.148   9.619  69.345  1.00  0.00    -0.170 C  
BRANCH  12  14
HETATM   14  C   UNL     1     -11.247   7.357  70.675  1.00  0.00    -0.270 C  
HETATM   15  O   UNL     1     -11.837   6.455  70.099  1.00  0.00    -0.409 OA 
BRANCH  14  16
HETATM   16  O   UNL     1     -10.176   7.175  71.487  1.00  0.00    -0.198 OA 
HETATM   17  C   UNL     1     -10.204   5.942  72.220  1.00  0.00    -0.189 C  
ENDBRANCH  14  16
ENDBRANCH  12  14
BRANCH  13  18
HETATM   18  C   UNL     1      -9.673   9.395  68.946  1.00  0.00    -0.166 A  
HETATM   19  C   UNL     1      -8.682   9.814  69.867  1.00  0.00    -0.238 A  
HETATM   20  C   UNL     1      -7.330   9.537  69.664  1.00  0.00    -0.084 A  
HETATM   21  C   UNL     1      -9.253   8.718  67.782  1.00  0.00    -0.134 A  
HETATM   22  C   UNL     1      -7.885   8.437  67.589  1.00  0.00    -0.107 A  
HETATM   23 CL   UNL     1     -10.408   8.196  66.598  1.00  0.00    -0.350 Cl 
HETATM   24 CL   UNL     1      -7.299   7.548  66.222  1.00  0.00    -0.081 Cl 
HETATM   25  C   UNL     1      -6.933   8.838  68.532  1.00  0.00    -0.065 A  
ENDBRANCH  13  18
ENDBRANCH   4   6
ENDBRANCH   3   4
ENDBRANCH   2   3
TORSDOF 6
ENDMDL
MODEL       40
REMARK 921   NORMALIZED FREE ENERGY PREDICTED BY IDOCK:   -4.70 KCAL/MOL
REMARK 922        TOTAL FREE ENERGY PREDICTED BY IDOCK:   -7.57 KCAL/MOL
REMARK 923 INTER-LIGAND FREE ENERGY PREDICTED BY IDOCK:   -6.16 KCAL/MOL
REMARK 924 INTRA-LIGAND FREE ENERGY PREDICTED BY IDOCK:   -1.42 KCAL/MOL
REMARK 927      BINDING AFFINITY PREDICTED BY RF-SCORE:    0.00 PKD
ROOT
HETATM    1  C   UNL     1      -8.814   6.229  73.896  1.00  0.00    -0.131 C  
HETATM    2  C   UNL     1     -10.309   6.252  74.134  1.00  0.00    -0.304 C  
ENDROOT
BRANCH   2   3
HETATM    3  O   UNL     1     -10.789   7.440  73.499  1.00  0.00    -0.379 OA 
BRANCH   3   4
HETATM    4  C   UNL     1     -11.525   7.324  72.373  1.00  0.00    -0.287 C  
HETATM    5  O   UNL     1     -12.225   6.368  72.062  1.00  0.00    -0.341 OA 
BRANCH   4   6
HETATM    6  C   UNL     1     -11.501   8.615  71.642  1.00  0.00    -0.375 C  
HETATM    7  C   UNL     1     -12.500   9.524  71.728  1.00  0.00    -0.401 C  
HETATM    8  C   UNL     1     -13.752   9.439  72.573  1.00  0.00    -0.419 C  
HETATM    9  N   UNL     1     -12.432  10.685  70.979  1.00  0.00    -0.375 NA 
HETATM   10  C   UNL     1     -11.468  10.966  70.031  1.00  0.00    -0.329 C  
HETATM   11  C   UNL     1     -11.709  12.235  69.249  1.00  0.00    -0.388 C  
HETATM   12  C   UNL     1     -10.409  10.133  69.866  1.00  0.00    -0.308 C  
HETATM   13  C   UNL     1     -10.278   8.862  70.722  1.00  0.00    -0.282 C  
BRANCH  12  14
HETATM   14  C   UNL     1      -9.384  10.457  68.839  1.00  0.00    -0.186 C  
HETATM   15  O   UNL     1      -8.293  10.949  69.088  1.00  0.00    -0.141 OA 
BRANCH  14  16
HETATM   16  O   UNL     1      -9.808  10.126  67.594  1.00  0.00    -0.164 OA 
HETATM   17  C   UNL     1      -8.836   9.407  66.820  1.00  0.00    -0.127 C  
ENDBRANCH  14  16
ENDBRANCH  12  14
BRANCH  13  18
HETATM   18  C   UNL     1      -9.890   7.597  69.926  1.00  0.00    -0.184 A  
HETATM   19  C   UNL     1     -10.870   7.048  69.064  1.00  0.00    -0.212 A  
HETATM   20  C   UNL     1     -10.579   5.990  68.203  1.00  0.00    -0.328 A  
HETATM   21  C   UNL     1      -8.605   7.015  69.924  1.00  0.00    -0.141 A  
HETATM   22  C   UNL     1      -8.318   5.951  69.046  1.00  0.00    -0.106 A  
HETATM   23 CL   UNL     1      -7.360   7.619  70.971  1.00  0.00    -0.069 Cl 
HETATM   24 CL   UNL     1      -6.745   5.232  68.933  1.00  0.00    -0.051 Cl 
HETATM   25  C   UNL     1      -9.300   5.450  68.185  1.00  0.00    -0.131 A  
ENDBRANCH  13  18
ENDBRANCH   4   6
ENDBRANCH   3   4
ENDBRANCH   2   3
TORSDOF 6
ENDMDL
MODEL       41
REMARK 921   NORMALIZED FREE ENERGY PREDICTED BY IDOCK:   -4.70 KCAL/MOL
REMARK 922        TOTAL FREE ENERGY PREDICTED BY IDOCK:   -7.57 KCAL/MOL
REMARK 923 INTER-LIGAND FREE ENERGY PREDICTED BY IDOCK:   -6.24 KCAL/MOL
REMARK 924 INTRA-LIGAND FREE ENERGY PREDICTED BY IDOCK:   -1.33 KCAL/MOL
REMARK 927      BINDING AFFINITY PREDICTED BY RF-SCORE:    0.00 PKD
ROOT
HETATM    1  C   UNL     1     -10.367  11.576  63.940  1.00  0.00    -0.422 C  
HETATM    2  C   UNL     1      -9.230  11.302  64.901  1.00  0.00    -0.112 C  
ENDROOT
BRANCH   2   3
HETATM    3  O   UNL     1      -9.829  11.185  66.194  1.00  0.00    -0.210 OA 
BRANCH   3   4
HETATM    4  C   UNL     1      -9.128  11.594  67.274  1.00  0.00    -0.167 C  
HETATM    5  O   UNL     1      -7.931  11.849  67.305  1.00  0.00    -0.154 OA 
BRANCH   4   6
HETATM    6  C   UNL     1     -10.070  11.864  68.389  1.00  0.00    -0.206 C  
HETATM    7  C   UNL     1     -10.772  10.885  69.007  1.00  0.00    -0.224 C  
HETATM    8  C   UNL     1     -10.713   9.398  68.737  1.00  0.00    -0.200 C  
HETATM    9  N   UNL     1     -11.669  11.218  70.006  1.00  0.00    -0.323 NA 
HETATM   10  C   UNL     1     -12.016  12.504  70.370  1.00  0.00    -0.251 C  
HETATM   11  C   UNL     1     -13.130  12.589  71.386  1.00  0.00    -0.303 C  
HETATM   12  C   UNL     1     -11.368  13.565  69.827  1.00  0.00    -0.161 C  
HETATM   13  C   UNL     1     -10.251  13.349  68.792  1.00  0.00    -0.128 C  
BRANCH  12  14
HETATM   14  C   UNL     1     -11.760  14.941  70.234  1.00  0.00    -0.303 C  
HETATM   15  O   UNL     1     -12.624  15.603  69.677  1.00  0.00    -0.189 OA 
BRANCH  14  16
HETATM   16  O   UNL     1     -11.046  15.363  71.307  1.00  0.00    -0.360 OA 
HETATM   17  C   UNL     1     -11.830  16.050  72.294  1.00  0.00    -0.529 C  
ENDBRANCH  14  16
ENDBRANCH  12  14
BRANCH  13  18
HETATM   18  C   UNL     1     -10.338  14.276  67.560  1.00  0.00    -0.248 A  
HETATM   19  C   UNL     1      -9.303  15.227  67.391  1.00  0.00    -0.202 A  
HETATM   20  C   UNL     1      -9.215  16.019  66.246  1.00  0.00    -0.368 A  
HETATM   21  C   UNL     1     -11.316  14.174  66.549  1.00  0.00    -0.341 A  
HETATM   22  C   UNL     1     -11.216  14.973  65.392  1.00  0.00    -0.356 A  
HETATM   23 CL   UNL     1     -12.627  13.047  66.699  1.00  0.00     0.095 Cl 
HETATM   24 CL   UNL     1     -12.336  14.853  64.075  1.00  0.00    -0.296 Cl 
HETATM   25  C   UNL     1     -10.164  15.882  65.241  1.00  0.00    -0.284 A  
ENDBRANCH  13  18
ENDBRANCH   4   6
ENDBRANCH   3   4
ENDBRANCH   2   3
TORSDOF 6
ENDMDL
MODEL       42
REMARK 921   NORMALIZED FREE ENERGY PREDICTED BY IDOCK:   -4.68 KCAL/MOL
REMARK 922        TOTAL FREE ENERGY PREDICTED BY IDOCK:   -7.55 KCAL/MOL
REMARK 923 INTER-LIGAND FREE ENERGY PREDICTED BY IDOCK:   -6.22 KCAL/MOL
REMARK 924 INTRA-LIGAND FREE ENERGY PREDICTED BY IDOCK:   -1.33 KCAL/MOL
REMARK 927      BINDING AFFINITY PREDICTED BY RF-SCORE:    0.00 PKD
ROOT
HETATM    1  C   UNL     1     -10.107   9.293  66.688  1.00  0.00    -0.341 C  
HETATM    2  C   UNL     1      -9.388   7.969  66.536  1.00  0.00    -0.205 C  
ENDROOT
BRANCH   2   3
HETATM    3  O   UNL     1      -9.364   7.383  67.840  1.00  0.00    -0.134 OA 
BRANCH   3   4
HETATM    4  C   UNL     1     -10.364   6.549  68.197  1.00  0.00    -0.187 C  
HETATM    5  O   UNL     1     -11.402   6.357  67.575  1.00  0.00    -0.274 OA 
BRANCH   4   6
HETATM    6  C   UNL     1      -9.938   5.757  69.376  1.00  0.00    -0.244 C  
HETATM    7  C   UNL     1      -9.588   4.452  69.294  1.00  0.00    -0.191 C  
HETATM    8  C   UNL     1      -9.518   3.594  68.051  1.00  0.00    -0.218 C  
HETATM    9  N   UNL     1      -9.249   3.764  70.446  1.00  0.00    -0.126 NA 
HETATM   10  C   UNL     1      -9.346   4.262  71.729  1.00  0.00    -0.137 C  
HETATM   11  C   UNL     1      -9.055   3.254  72.816  1.00  0.00    -0.114 C  
HETATM   12  C   UNL     1      -9.675   5.563  71.934  1.00  0.00    -0.197 C  
HETATM   13  C   UNL     1      -9.955   6.492  70.741  1.00  0.00    -0.205 C  
BRANCH  12  14
HETATM   14  C   UNL     1      -9.773   6.076  73.327  1.00  0.00    -0.156 C  
HETATM   15  O   UNL     1     -10.776   5.991  74.020  1.00  0.00    -0.229 OA 
BRANCH  14  16
HETATM   16  O   UNL     1      -8.608   6.638  73.732  1.00  0.00    -0.123 OA 
HETATM   17  C   UNL     1      -8.655   8.069  73.829  1.00  0.00    -0.266 C  
ENDBRANCH  14  16
ENDBRANCH  12  14
BRANCH  13  18
HETATM   18  C   UNL     1     -11.210   7.375  70.905  1.00  0.00    -0.292 A  
HETATM   19  C   UNL     1     -12.435   6.717  71.176  1.00  0.00    -0.351 A  
HETATM   20  C   UNL     1     -13.598   7.426  71.474  1.00  0.00    -0.454 A  
HETATM   21  C   UNL     1     -11.203   8.786  70.902  1.00  0.00    -0.270 A  
HETATM   22  C   UNL     1     -12.382   9.494  71.211  1.00  0.00    -0.345 A  
HETATM   23 CL   UNL     1      -9.746   9.660  70.556  1.00  0.00    -0.316 Cl 
HETATM   24 CL   UNL     1     -12.434  11.224  71.299  1.00  0.00    -0.466 Cl 
HETATM   25  C   UNL     1     -13.568   8.814  71.504  1.00  0.00    -0.374 A  
ENDBRANCH  13  18
ENDBRANCH   4   6
ENDBRANCH   3   4
ENDBRANCH   2   3
TORSDOF 6
ENDMDL
MODEL       43
REMARK 921   NORMALIZED FREE ENERGY PREDICTED BY IDOCK:   -4.59 KCAL/MOL
REMARK 922        TOTAL FREE ENERGY PREDICTED BY IDOCK:   -7.43 KCAL/MOL
REMARK 923 INTER-LIGAND FREE ENERGY PREDICTED BY IDOCK:   -6.11 KCAL/MOL
REMARK 924 INTRA-LIGAND FREE ENERGY PREDICTED BY IDOCK:   -1.32 KCAL/MOL
REMARK 927      BINDING AFFINITY PREDICTED BY RF-SCORE:    0.00 PKD
ROOT
HETATM    1  C   UNL     1      -6.845  17.067  66.633  1.00  0.00    -0.279 C  
HETATM    2  C   UNL     1      -6.850  16.298  67.936  1.00  0.00    -0.137 C  
ENDROOT
BRANCH   2   3
HETATM    3  O   UNL     1      -6.696  14.921  67.580  1.00  0.00    -0.175 OA 
BRANCH   3   4
HETATM    4  C   UNL     1      -6.949  13.977  68.511  1.00  0.00    -0.103 C  
HETATM    5  O   UNL     1      -6.718  14.063  69.711  1.00  0.00    -0.115 OA 
BRANCH   4   6
HETATM    6  C   UNL     1      -7.722  12.875  67.886  1.00  0.00    -0.143 C  
HETATM    7  C   UNL     1      -7.153  11.945  67.083  1.00  0.00    -0.142 C  
HETATM    8  C   UNL     1      -5.692  11.817  66.715  1.00  0.00    -0.113 C  
HETATM    9  N   UNL     1      -7.946  10.976  66.495  1.00  0.00    -0.155 NA 
HETATM   10  C   UNL     1      -9.324  10.929  66.556  1.00  0.00    -0.173 C  
HETATM   11  C   UNL     1      -9.953   9.853  65.702  1.00  0.00    -0.353 C  
HETATM   12  C   UNL     1     -10.003  11.803  67.342  1.00  0.00    -0.198 C  
HETATM   13  C   UNL     1      -9.247  12.862  68.162  1.00  0.00    -0.212 C  
BRANCH  12  14
HETATM   14  C   UNL     1     -11.488  11.733  67.391  1.00  0.00    -0.305 C  
HETATM   15  O   UNL     1     -12.229  12.329  66.623  1.00  0.00    -0.574 OA 
BRANCH  14  16
HETATM   16  O   UNL     1     -11.914  10.916  68.386  1.00  0.00    -0.543 OA 
HETATM   17  C   UNL     1     -12.092  11.578  69.646  1.00  0.00    -0.296 C  
ENDBRANCH  14  16
ENDBRANCH  12  14
BRANCH  13  18
HETATM   18  C   UNL     1      -9.859  14.277  68.090  1.00  0.00    -0.226 A  
HETATM   19  C   UNL     1     -10.153  14.919  69.318  1.00  0.00    -0.201 A  
HETATM   20  C   UNL     1     -10.581  16.245  69.368  1.00  0.00    -0.301 A  
HETATM   21  C   UNL     1     -10.053  15.007  66.899  1.00  0.00    -0.249 A  
HETATM   22  C   UNL     1     -10.480  16.349  66.959  1.00  0.00    -0.291 A  
HETATM   23 CL   UNL     1      -9.736  14.279  65.357  1.00  0.00    -0.227 Cl 
HETATM   24 CL   UNL     1     -10.670  17.332  65.545  1.00  0.00    -0.220 Cl 
HETATM   25  C   UNL     1     -10.732  16.963  68.190  1.00  0.00    -0.375 A  
ENDBRANCH  13  18
ENDBRANCH   4   6
ENDBRANCH   3   4
ENDBRANCH   2   3
TORSDOF 6
ENDMDL
MODEL       44
REMARK 921   NORMALIZED FREE ENERGY PREDICTED BY IDOCK:   -4.59 KCAL/MOL
REMARK 922        TOTAL FREE ENERGY PREDICTED BY IDOCK:   -7.42 KCAL/MOL
REMARK 923 INTER-LIGAND FREE ENERGY PREDICTED BY IDOCK:   -6.09 KCAL/MOL
REMARK 924 INTRA-LIGAND FREE ENERGY PREDICTED BY IDOCK:   -1.34 KCAL/MOL
REMARK 927      BINDING AFFINITY PREDICTED BY RF-SCORE:    0.00 PKD
ROOT
HETATM    1  C   UNL     1     -11.080  16.035  69.852  1.00  0.00    -0.352 C  
HETATM    2  C   UNL     1     -10.307  16.459  68.622  1.00  0.00    -0.273 C  
ENDROOT
BRANCH   2   3
HETATM    3  O   UNL     1      -9.087  15.712  68.648  1.00  0.00    -0.187 OA 
BRANCH   3   4
HETATM    4  C   UNL     1      -8.831  14.852  67.638  1.00  0.00    -0.181 C  
HETATM    5  O   UNL     1      -8.611  15.152  66.471  1.00  0.00    -0.270 OA 
BRANCH   4   6
HETATM    6  C   UNL     1      -8.677  13.485  68.193  1.00  0.00    -0.174 C  
HETATM    7  C   UNL     1      -7.483  12.987  68.593  1.00  0.00    -0.093 C  
HETATM    8  C   UNL     1      -6.147  13.694  68.602  1.00  0.00    -0.087 C  
HETATM    9  N   UNL     1      -7.409  11.685  69.054  1.00  0.00    -0.101 NA 
HETATM   10  C   UNL     1      -8.446  10.773  69.038  1.00  0.00    -0.133 C  
HETATM   11  C   UNL     1      -8.057   9.375  69.459  1.00  0.00    -0.114 C  
HETATM   12  C   UNL     1      -9.692  11.163  68.668  1.00  0.00    -0.202 C  
HETATM   13  C   UNL     1      -9.961  12.618  68.252  1.00  0.00    -0.229 C  
BRANCH  12  14
HETATM   14  C   UNL     1     -10.792  10.162  68.658  1.00  0.00    -0.235 C  
HETATM   15  O   UNL     1     -10.842   9.203  67.901  1.00  0.00    -0.196 OA 
BRANCH  14  16
HETATM   16  O   UNL     1     -11.725  10.441  69.602  1.00  0.00    -0.248 OA 
HETATM   17  C   UNL     1     -11.536   9.732  70.835  1.00  0.00    -0.369 C  
ENDBRANCH  14  16
ENDBRANCH  12  14
BRANCH  13  18
HETATM   18  C   UNL     1     -10.817  12.766  66.975  1.00  0.00    -0.282 A  
HETATM   19  C   UNL     1     -11.989  13.555  67.069  1.00  0.00    -0.440 A  
HETATM   20  C   UNL     1     -12.758  13.862  65.947  1.00  0.00    -0.466 A  
HETATM   21  C   UNL     1     -10.462  12.255  65.710  1.00  0.00    -0.255 A  
HETATM   22  C   UNL     1     -11.242  12.575  64.580  1.00  0.00    -0.325 A  
HETATM   23 CL   UNL     1      -9.053  11.260  65.522  1.00  0.00    -0.209 Cl 
HETATM   24 CL   UNL     1     -10.830  12.045  62.982  1.00  0.00    -0.230 Cl 
HETATM   25  C   UNL     1     -12.377  13.382  64.701  1.00  0.00    -0.433 A  
ENDBRANCH  13  18
ENDBRANCH   4   6
ENDBRANCH   3   4
ENDBRANCH   2   3
TORSDOF 6
ENDMDL
MODEL       45
REMARK 921   NORMALIZED FREE ENERGY PREDICTED BY IDOCK:   -4.59 KCAL/MOL
REMARK 922        TOTAL FREE ENERGY PREDICTED BY IDOCK:   -7.42 KCAL/MOL
REMARK 923 INTER-LIGAND FREE ENERGY PREDICTED BY IDOCK:   -6.11 KCAL/MOL
REMARK 924 INTRA-LIGAND FREE ENERGY PREDICTED BY IDOCK:   -1.31 KCAL/MOL
REMARK 927      BINDING AFFINITY PREDICTED BY RF-SCORE:    0.00 PKD
ROOT
HETATM    1  C   UNL     1      -7.835  10.154  69.798  1.00  0.00    -0.175 C  
HETATM    2  C   UNL     1      -6.795  11.226  69.551  1.00  0.00    -0.115 C  
ENDROOT
BRANCH   2   3
HETATM    3  O   UNL     1      -7.476  12.285  68.873  1.00  0.00    -0.095 OA 
BRANCH   3   4
HETATM    4  C   UNL     1      -7.252  12.461  67.553  1.00  0.00    -0.145 C  
HETATM    5  O   UNL     1      -6.619  11.710  66.820  1.00  0.00    -0.138 OA 
BRANCH   4   6
HETATM    6  C   UNL     1      -8.045  13.621  67.076  1.00  0.00    -0.004 C  
HETATM    7  C   UNL     1      -7.639  14.902  67.240  1.00  0.00    -0.181 C  
HETATM    8  C   UNL     1      -6.348  15.387  67.863  1.00  0.00    -0.170 C  
HETATM    9  N   UNL     1      -8.455  15.935  66.815  1.00  0.00    -0.235 NA 
HETATM   10  C   UNL     1      -9.738  15.787  66.327  1.00  0.00    -0.302 C  
HETATM   11  C   UNL     1     -10.466  17.086  66.074  1.00  0.00    -0.280 C  
HETATM   12  C   UNL     1     -10.247  14.548  66.108  1.00  0.00    -0.317 C  
HETATM   13  C   UNL     1      -9.406  13.297  66.411  1.00  0.00    -0.185 C  
BRANCH  12  14
HETATM   14  C   UNL     1     -11.632  14.415  65.582  1.00  0.00    -0.347 C  
HETATM   15  O   UNL     1     -12.626  14.304  66.285  1.00  0.00    -0.416 OA 
BRANCH  14  16
HETATM   16  O   UNL     1     -11.653  14.444  64.226  1.00  0.00    -0.347 OA 
HETATM   17  C   UNL     1     -12.050  13.203  63.624  1.00  0.00    -0.513 C  
ENDBRANCH  14  16
ENDBRANCH  12  14
BRANCH  13  18
HETATM   18  C   UNL     1     -10.169  12.188  67.168  1.00  0.00    -0.226 A  
HETATM   19  C   UNL     1     -10.166  10.893  66.595  1.00  0.00    -0.282 A  
HETATM   20  C   UNL     1     -10.709   9.795  67.261  1.00  0.00    -0.296 A  
HETATM   21  C   UNL     1     -10.780  12.352  68.428  1.00  0.00    -0.235 A  
HETATM   22  C   UNL     1     -11.320  11.236  69.098  1.00  0.00    -0.282 A  
HETATM   23 CL   UNL     1     -10.843  13.914  69.181  1.00  0.00    -0.249 Cl 
HETATM   24 CL   UNL     1     -12.022  11.346  70.679  1.00  0.00    -0.448 Cl 
HETATM   25  C   UNL     1     -11.274   9.964  68.518  1.00  0.00    -0.129 A  
ENDBRANCH  13  18
ENDBRANCH   4   6
ENDBRANCH   3   4
ENDBRANCH   2   3
TORSDOF 6
ENDMDL
MODEL       46
REMARK 921   NORMALIZED FREE ENERGY PREDICTED BY IDOCK:   -4.59 KCAL/MOL
REMARK 922        TOTAL FREE ENERGY PREDICTED BY IDOCK:   -7.42 KCAL/MOL
REMARK 923 INTER-LIGAND FREE ENERGY PREDICTED BY IDOCK:   -6.35 KCAL/MOL
REMARK 924 INTRA-LIGAND FREE ENERGY PREDICTED BY IDOCK:   -1.07 KCAL/MOL
REMARK 927      BINDING AFFINITY PREDICTED BY RF-SCORE:    0.00 PKD
ROOT
HETATM    1  C   UNL     1     -12.032  14.551  70.585  1.00  0.00    -0.387 C  
HETATM    2  C   UNL     1     -11.966  13.768  69.292  1.00  0.00    -0.352 C  
ENDROOT
BRANCH   2   3
HETATM    3  O   UNL     1     -11.319  12.534  69.612  1.00  0.00    -0.211 OA 
BRANCH   3   4
HETATM    4  C   UNL     1     -11.789  11.392  69.064  1.00  0.00    -0.348 C  
HETATM    5  O   UNL     1     -12.124  11.234  67.897  1.00  0.00    -0.634 OA 
BRANCH   4   6
HETATM    6  C   UNL     1     -11.672  10.295  70.056  1.00  0.00    -0.330 C  
HETATM    7  C   UNL     1     -12.255  10.346  71.277  1.00  0.00    -0.389 C  
HETATM    8  C   UNL     1     -13.132  11.445  71.833  1.00  0.00    -0.505 C  
HETATM    9  N   UNL     1     -12.060   9.306  72.168  1.00  0.00    -0.329 NA 
HETATM   10  C   UNL     1     -11.208   8.238  71.973  1.00  0.00    -0.323 C  
HETATM   11  C   UNL     1     -11.068   7.321  73.166  1.00  0.00    -0.336 C  
HETATM   12  C   UNL     1     -10.579   8.075  70.781  1.00  0.00    -0.228 C  
HETATM   13  C   UNL     1     -10.798   9.084  69.642  1.00  0.00    -0.196 C  
BRANCH  12  14
HETATM   14  C   UNL     1      -9.665   6.916  70.595  1.00  0.00    -0.175 C  
HETATM   15  O   UNL     1      -8.504   6.890  70.974  1.00  0.00    -0.128 OA 
BRANCH  14  16
HETATM   16  O   UNL     1     -10.288   5.890  69.963  1.00  0.00    -0.203 OA 
HETATM   17  C   UNL     1      -9.649   5.485  68.744  1.00  0.00    -0.135 C  
ENDBRANCH  14  16
ENDBRANCH  12  14
BRANCH  13  18
HETATM   18  C   UNL     1      -9.503   9.524  68.925  1.00  0.00    -0.155 A  
HETATM   19  C   UNL     1      -8.563  10.264  69.684  1.00  0.00    -0.126 A  
HETATM   20  C   UNL     1      -7.307  10.593  69.174  1.00  0.00    -0.111 A  
HETATM   21  C   UNL     1      -9.152   9.158  67.609  1.00  0.00    -0.122 A  
HETATM   22  C   UNL     1      -7.878   9.490  67.105  1.00  0.00    -0.095 A  
HETATM   23 CL   UNL     1     -10.261   8.272  66.613  1.00  0.00    -0.366 Cl 
HETATM   24 CL   UNL     1      -7.346   9.013  65.526  1.00  0.00    -0.085 Cl 
HETATM   25  C   UNL     1      -6.960  10.195  67.891  1.00  0.00    -0.083 A  
ENDBRANCH  13  18
ENDBRANCH   4   6
ENDBRANCH   3   4
ENDBRANCH   2   3
TORSDOF 6
ENDMDL
MODEL       47
REMARK 921   NORMALIZED FREE ENERGY PREDICTED BY IDOCK:   -4.59 KCAL/MOL
REMARK 922        TOTAL FREE ENERGY PREDICTED BY IDOCK:   -7.42 KCAL/MOL
REMARK 923 INTER-LIGAND FREE ENERGY PREDICTED BY IDOCK:   -7.97 KCAL/MOL
REMARK 924 INTRA-LIGAND FREE ENERGY PREDICTED BY IDOCK:    0.55 KCAL/MOL
REMARK 927      BINDING AFFINITY PREDICTED BY RF-SCORE:    0.00 PKD
ROOT
HETATM    1  C   UNL     1      -7.267  17.843  65.861  1.00  0.00    -0.277 C  
HETATM    2  C   UNL     1      -7.744  16.686  66.711  1.00  0.00    -0.257 C  
ENDROOT
BRANCH   2   3
HETATM    3  O   UNL     1      -8.875  16.138  66.029  1.00  0.00    -0.332 OA 
BRANCH   3   4
HETATM    4  C   UNL     1     -10.075  16.742  66.170  1.00  0.00    -0.345 C  
HETATM    5  O   UNL     1     -10.745  17.239  65.274  1.00  0.00    -0.637 OA 
BRANCH   4   6
HETATM    6  C   UNL     1     -10.550  16.555  67.563  1.00  0.00    -0.313 C  
HETATM    7  C   UNL     1     -10.348  17.475  68.536  1.00  0.00    -0.380 C  
HETATM    8  C   UNL     1      -9.677  18.824  68.402  1.00  0.00    -0.421 C  
HETATM    9  N   UNL     1     -10.776  17.209  69.824  1.00  0.00    -0.034 NA 
HETATM   10  C   UNL     1     -11.305  16.010  70.257  1.00  0.00    -0.382 C  
HETATM   11  C   UNL     1     -11.551  15.935  71.745  1.00  0.00    -0.541 C  
HETATM   12  C   UNL     1     -11.565  15.018  69.368  1.00  0.00    -0.337 C  
HETATM   13  C   UNL     1     -11.262  15.214  67.873  1.00  0.00    -0.334 C  
BRANCH  12  14
HETATM   14  C   UNL     1     -12.134  13.735  69.859  1.00  0.00    -0.348 C  
HETATM   15  O   UNL     1     -11.669  12.634  69.602  1.00  0.00    -0.303 OA 
BRANCH  14  16
HETATM   16  O   UNL     1     -13.226  13.941  70.636  1.00  0.00    -0.166 OA 
HETATM   17  C   UNL     1     -13.384  12.977  71.687  1.00  0.00    -0.292 C  
ENDBRANCH  14  16
ENDBRANCH  12  14
BRANCH  13  18
HETATM   18  C   UNL     1     -10.552  14.015  67.207  1.00  0.00    -0.273 A  
HETATM   19  C   UNL     1      -9.349  13.563  67.803  1.00  0.00    -0.213 A  
HETATM   20  C   UNL     1      -8.702  12.409  67.362  1.00  0.00    -0.183 A  
HETATM   21  C   UNL     1     -11.065  13.286  66.115  1.00  0.00    -0.285 A  
HETATM   22  C   UNL     1     -10.408  12.117  65.680  1.00  0.00    -0.257 A  
HETATM   23 CL   UNL     1     -12.521  13.794  65.320  1.00  0.00    -0.486 Cl 
HETATM   24 CL   UNL     1     -11.017  11.128  64.394  1.00  0.00    -0.350 Cl 
HETATM   25  C   UNL     1      -9.239  11.679  66.309  1.00  0.00    -0.225 A  
ENDBRANCH  13  18
ENDBRANCH   4   6
ENDBRANCH   3   4
ENDBRANCH   2   3
TORSDOF 6
ENDMDL
MODEL       48
REMARK 921   NORMALIZED FREE ENERGY PREDICTED BY IDOCK:   -4.59 KCAL/MOL
REMARK 922        TOTAL FREE ENERGY PREDICTED BY IDOCK:   -7.42 KCAL/MOL
REMARK 923 INTER-LIGAND FREE ENERGY PREDICTED BY IDOCK:   -6.54 KCAL/MOL
REMARK 924 INTRA-LIGAND FREE ENERGY PREDICTED BY IDOCK:   -0.87 KCAL/MOL
REMARK 927      BINDING AFFINITY PREDICTED BY RF-SCORE:    0.00 PKD
ROOT
HETATM    1  C   UNL     1      -6.082  12.041  70.108  1.00  0.00    -0.131 C  
HETATM    2  C   UNL     1      -6.932  10.836  69.770  1.00  0.00    -0.141 C  
ENDROOT
BRANCH   2   3
HETATM    3  O   UNL     1      -7.972  11.317  68.915  1.00  0.00    -0.141 OA 
BRANCH   3   4
HETATM    4  C   UNL     1      -9.008  10.499  68.628  1.00  0.00    -0.162 C  
HETATM    5  O   UNL     1      -9.676   9.866  69.436  1.00  0.00    -0.189 OA 
BRANCH   4   6
HETATM    6  C   UNL     1      -9.335  10.618  67.185  1.00  0.00    -0.172 C  
HETATM    7  C   UNL     1      -8.581  10.050  66.214  1.00  0.00    -0.129 C  
HETATM    8  C   UNL     1      -7.351   9.189  66.389  1.00  0.00    -0.092 C  
HETATM    9  N   UNL     1      -8.920  10.246  64.887  1.00  0.00    -0.185 NA 
HETATM   10  C   UNL     1      -9.917  11.086  64.435  1.00  0.00    -0.312 C  
HETATM   11  C   UNL     1      -9.981  11.232  62.933  1.00  0.00    -0.282 C  
HETATM   12  C   UNL     1     -10.745  11.700  65.318  1.00  0.00    -0.346 C  
HETATM   13  C   UNL     1     -10.575  11.476  66.830  1.00  0.00    -0.289 C  
BRANCH  12  14
HETATM   14  C   UNL     1     -11.812  12.602  64.806  1.00  0.00    -0.380 C  
HETATM   15  O   UNL     1     -13.008  12.360  64.878  1.00  0.00    -0.762 OA 
BRANCH  14  16
HETATM   16  O   UNL     1     -11.290  13.729  64.261  1.00  0.00    -0.376 OA 
HETATM   17  C   UNL     1     -11.934  14.936  64.693  1.00  0.00    -0.401 C  
ENDBRANCH  14  16
ENDBRANCH  12  14
BRANCH  13  18
HETATM   18  C   UNL     1     -10.646  12.767  67.675  1.00  0.00    -0.230 A  
HETATM   19  C   UNL     1      -9.848  13.859  67.256  1.00  0.00    -0.244 A  
HETATM   20  C   UNL     1      -9.938  15.110  67.867  1.00  0.00    -0.221 A  
HETATM   21  C   UNL     1     -11.517  12.963  68.767  1.00  0.00    -0.303 A  
HETATM   22  C   UNL     1     -11.607  14.232  69.374  1.00  0.00    -0.306 A  
HETATM   23 CL   UNL     1     -12.507  11.664  69.350  1.00  0.00    -0.093 Cl 
HETATM   24 CL   UNL     1     -12.705  14.569  70.671  1.00  0.00    -0.409 Cl 
HETATM   25  C   UNL     1     -10.826  15.299  68.917  1.00  0.00    -0.247 A  
ENDBRANCH  13  18
ENDBRANCH   4   6
ENDBRANCH   3   4
ENDBRANCH   2   3
TORSDOF 6
ENDMDL
MODEL       49
REMARK 921   NORMALIZED FREE ENERGY PREDICTED BY IDOCK:   -4.56 KCAL/MOL
REMARK 922        TOTAL FREE ENERGY PREDICTED BY IDOCK:   -7.39 KCAL/MOL
REMARK 923 INTER-LIGAND FREE ENERGY PREDICTED BY IDOCK:   -5.96 KCAL/MOL
REMARK 924 INTRA-LIGAND FREE ENERGY PREDICTED BY IDOCK:   -1.42 KCAL/MOL
REMARK 927      BINDING AFFINITY PREDICTED BY RF-SCORE:    0.00 PKD
ROOT
HETATM    1  C   UNL     1      -9.264   5.772  66.590  1.00  0.00    -0.143 C  
HETATM    2  C   UNL     1      -8.305   6.872  66.189  1.00  0.00    -0.130 C  
ENDROOT
BRANCH   2   3
HETATM    3  O   UNL     1      -9.106   7.892  65.587  1.00  0.00    -0.095 OA 
BRANCH   3   4
HETATM    4  C   UNL     1      -8.560   9.110  65.379  1.00  0.00    -0.169 C  
HETATM    5  O   UNL     1      -7.418   9.335  64.997  1.00  0.00    -0.102 OA 
BRANCH   4   6
HETATM    6  C   UNL     1      -9.616  10.144  65.513  1.00  0.00    -0.310 C  
HETATM    7  C   UNL     1     -10.111  10.826  64.454  1.00  0.00    -0.353 C  
HETATM    8  C   UNL     1      -9.747  10.654  62.996  1.00  0.00    -0.362 C  
HETATM    9  N   UNL     1     -11.059  11.812  64.663  1.00  0.00    -0.312 NA 
HETATM   10  C   UNL     1     -11.481  12.264  65.897  1.00  0.00    -0.376 C  
HETATM   11  C   UNL     1     -12.413  13.452  65.844  1.00  0.00    -0.468 C  
HETATM   12  C   UNL     1     -11.061  11.647  67.030  1.00  0.00    -0.359 C  
HETATM   13  C   UNL     1     -10.103  10.446  66.953  1.00  0.00    -0.269 C  
BRANCH  12  14
HETATM   14  C   UNL     1     -11.529  12.152  68.348  1.00  0.00    -0.304 C  
HETATM   15  O   UNL     1     -11.258  13.257  68.796  1.00  0.00    -0.248 OA 
BRANCH  14  16
HETATM   16  O   UNL     1     -12.303  11.238  68.984  1.00  0.00    -0.446 OA 
HETATM   17  C   UNL     1     -12.054  11.144  70.394  1.00  0.00    -0.385 C  
ENDBRANCH  14  16
ENDBRANCH  12  14
BRANCH  13  18
HETATM   18  C   UNL     1      -8.933  10.503  67.959  1.00  0.00    -0.135 A  
HETATM   19  C   UNL     1      -8.004  11.563  67.814  1.00  0.00    -0.128 A  
HETATM   20  C   UNL     1      -6.991  11.782  68.747  1.00  0.00    -0.103 A  
HETATM   21  C   UNL     1      -8.781   9.636  69.062  1.00  0.00    -0.142 A  
HETATM   22  C   UNL     1      -7.759   9.870  70.003  1.00  0.00    -0.178 A  
HETATM   23 CL   UNL     1      -9.866   8.302  69.291  1.00  0.00    -0.182 Cl 
HETATM   24 CL   UNL     1      -7.555   8.894  71.420  1.00  0.00    -0.139 Cl 
HETATM   25  C   UNL     1      -6.876  10.944  69.847  1.00  0.00    -0.126 A  
ENDBRANCH  13  18
ENDBRANCH   4   6
ENDBRANCH   3   4
ENDBRANCH   2   3
TORSDOF 6
ENDMDL
MODEL       50
REMARK 921   NORMALIZED FREE ENERGY PREDICTED BY IDOCK:   -4.55 KCAL/MOL
REMARK 922        TOTAL FREE ENERGY PREDICTED BY IDOCK:   -7.37 KCAL/MOL
REMARK 923 INTER-LIGAND FREE ENERGY PREDICTED BY IDOCK:   -6.19 KCAL/MOL
REMARK 924 INTRA-LIGAND FREE ENERGY PREDICTED BY IDOCK:   -1.18 KCAL/MOL
REMARK 927      BINDING AFFINITY PREDICTED BY RF-SCORE:    0.00 PKD
ROOT
HETATM    1  C   UNL     1     -12.472  12.098  63.553  1.00  0.00    -0.666 C  
HETATM    2  C   UNL     1     -12.486  12.683  64.949  1.00  0.00    -0.494 C  
ENDROOT
BRANCH   2   3
HETATM    3  O   UNL     1     -11.415  12.048  65.652  1.00  0.00    -0.344 OA 
BRANCH   3   4
HETATM    4  C   UNL     1     -11.324  12.219  66.988  1.00  0.00    -0.334 C  
HETATM    5  O   UNL     1     -12.227  12.062  67.801  1.00  0.00    -0.474 OA 
BRANCH   4   6
HETATM    6  C   UNL     1      -9.905  12.455  67.351  1.00  0.00    -0.199 C  
HETATM    7  C   UNL     1      -9.217  13.549  66.946  1.00  0.00    -0.249 C  
HETATM    8  C   UNL     1      -9.735  14.710  66.127  1.00  0.00    -0.344 C  
HETATM    9  N   UNL     1      -7.881  13.676  67.281  1.00  0.00    -0.136 NA 
HETATM   10  C   UNL     1      -7.122  12.712  67.913  1.00  0.00    -0.113 C  
HETATM   11  C   UNL     1      -5.654  13.045  68.027  1.00  0.00    -0.106 C  
HETATM   12  C   UNL     1      -7.707  11.578  68.376  1.00  0.00    -0.129 C  
HETATM   13  C   UNL     1      -9.217  11.350  68.192  1.00  0.00    -0.178 C  
BRANCH  12  14
HETATM   14  C   UNL     1      -6.868  10.553  69.053  1.00  0.00    -0.068 C  
HETATM   15  O   UNL     1      -6.078   9.822  68.474  1.00  0.00    -0.043 OA 
BRANCH  14  16
HETATM   16  O   UNL     1      -7.083  10.541  70.391  1.00  0.00    -0.273 OA 
HETATM   17  C   UNL     1      -7.360   9.238  70.925  1.00  0.00    -0.103 C  
ENDBRANCH  14  16
ENDBRANCH  12  14
BRANCH  13  18
HETATM   18  C   UNL     1      -9.590   9.934  67.702  1.00  0.00    -0.172 A  
HETATM   19  C   UNL     1      -9.099   9.537  66.435  1.00  0.00    -0.195 A  
HETATM   20  C   UNL     1      -9.265   8.237  65.959  1.00  0.00    -0.226 A  
HETATM   21  C   UNL     1     -10.297   8.982  68.466  1.00  0.00    -0.203 A  
HETATM   22  C   UNL     1     -10.453   7.668  67.980  1.00  0.00    -0.189 A  
HETATM   23 CL   UNL     1     -10.947   9.404  70.018  1.00  0.00    -0.257 Cl 
HETATM   24 CL   UNL     1     -11.245   6.425  68.892  1.00  0.00    -0.410 Cl 
HETATM   25  C   UNL     1      -9.930   7.300  66.737  1.00  0.00    -0.287 A  
ENDBRANCH  13  18
ENDBRANCH   4   6
ENDBRANCH   3   4
ENDBRANCH   2   3
TORSDOF 6
ENDMDL
MODEL       51
REMARK 921   NORMALIZED FREE ENERGY PREDICTED BY IDOCK:   -4.51 KCAL/MOL
REMARK 922        TOTAL FREE ENERGY PREDICTED BY IDOCK:   -7.31 KCAL/MOL
REMARK 923 INTER-LIGAND FREE ENERGY PREDICTED BY IDOCK:   -5.81 KCAL/MOL
REMARK 924 INTRA-LIGAND FREE ENERGY PREDICTED BY IDOCK:   -1.51 KCAL/MOL
REMARK 927      BINDING AFFINITY PREDICTED BY RF-SCORE:    0.00 PKD
ROOT
HETATM    1  C   UNL     1     -10.717   5.650  69.802  1.00  0.00    -0.401 C  
HETATM    2  C   UNL     1     -10.165   6.566  70.873  1.00  0.00    -0.190 C  
ENDROOT
BRANCH   2   3
HETATM    3  O   UNL     1     -10.843   7.814  70.710  1.00  0.00    -0.230 OA 
BRANCH   3   4
HETATM    4  C   UNL     1     -10.180   8.956  70.995  1.00  0.00    -0.254 C  
HETATM    5  O   UNL     1      -9.307   9.093  71.844  1.00  0.00    -0.349 OA 
BRANCH   4   6
HETATM    6  C   UNL     1     -10.544   9.990  69.996  1.00  0.00    -0.344 C  
HETATM    7  C   UNL     1     -11.785  10.525  69.914  1.00  0.00    -0.294 C  
HETATM    8  C   UNL     1     -12.975  10.231  70.800  1.00  0.00    -0.408 C  
HETATM    9  N   UNL     1     -12.064  11.449  68.923  1.00  0.00    -0.469 NA 
HETATM   10  C   UNL     1     -11.205  11.808  67.903  1.00  0.00    -0.267 C  
HETATM   11  C   UNL     1     -11.811  12.726  66.868  1.00  0.00    -0.440 C  
HETATM   12  C   UNL     1      -9.930  11.345  67.890  1.00  0.00    -0.190 C  
HETATM   13  C   UNL     1      -9.431  10.407  69.001  1.00  0.00    -0.205 C  
BRANCH  12  14
HETATM   14  C   UNL     1      -9.024  11.746  66.780  1.00  0.00    -0.196 C  
HETATM   15  O   UNL     1      -9.023  11.227  65.673  1.00  0.00    -0.207 OA 
BRANCH  14  16
HETATM   16  O   UNL     1      -8.208  12.765  67.149  1.00  0.00    -0.179 OA 
HETATM   17  C   UNL     1      -6.824  12.398  67.241  1.00  0.00    -0.127 C  
ENDBRANCH  14  16
ENDBRANCH  12  14
BRANCH  13  18
HETATM   18  C   UNL     1      -8.626   9.191  68.492  1.00  0.00    -0.129 A  
HETATM   19  C   UNL     1      -7.308   9.034  68.987  1.00  0.00    -0.073 A  
HETATM   20  C   UNL     1      -6.547   7.902  68.697  1.00  0.00    -0.057 A  
HETATM   21  C   UNL     1      -9.143   8.183  67.653  1.00  0.00    -0.134 A  
HETATM   22  C   UNL     1      -8.369   7.039  67.370  1.00  0.00    -0.122 A  
HETATM   23 CL   UNL     1     -10.740   8.319  66.990  1.00  0.00    -0.324 Cl 
HETATM   24 CL   UNL     1      -8.962   5.726  66.408  1.00  0.00    -0.133 Cl 
HETATM   25  C   UNL     1      -7.082   6.900  67.899  1.00  0.00    -0.086 A  
ENDBRANCH  13  18
ENDBRANCH   4   6
ENDBRANCH   3   4
ENDBRANCH   2   3
TORSDOF 6
ENDMDL
MODEL       52
REMARK 921   NORMALIZED FREE ENERGY PREDICTED BY IDOCK:   -4.50 KCAL/MOL
REMARK 922        TOTAL FREE ENERGY PREDICTED BY IDOCK:   -7.30 KCAL/MOL
REMARK 923 INTER-LIGAND FREE ENERGY PREDICTED BY IDOCK:   -6.23 KCAL/MOL
REMARK 924 INTRA-LIGAND FREE ENERGY PREDICTED BY IDOCK:   -1.07 KCAL/MOL
REMARK 927      BINDING AFFINITY PREDICTED BY RF-SCORE:    0.00 PKD
ROOT
HETATM    1  C   UNL     1     -11.779  12.995  64.811  1.00  0.00    -0.389 C  
HETATM    2  C   UNL     1     -12.204  13.274  66.236  1.00  0.00    -0.377 C  
ENDROOT
BRANCH   2   3
HETATM    3  O   UNL     1     -12.034  12.044  66.945  1.00  0.00    -0.612 OA 
BRANCH   3   4
HETATM    4  C   UNL     1     -10.928  11.877  67.701  1.00  0.00    -0.235 C  
HETATM    5  O   UNL     1      -9.883  12.510  67.604  1.00  0.00    -0.195 OA 
BRANCH   4   6
HETATM    6  C   UNL     1     -11.229  10.925  68.798  1.00  0.00    -0.329 C  
HETATM    7  C   UNL     1     -11.714  11.320  69.999  1.00  0.00    -0.346 C  
HETATM    8  C   UNL     1     -12.072  12.724  70.430  1.00  0.00    -0.382 C  
HETATM    9  N   UNL     1     -11.923  10.379  70.991  1.00  0.00    -0.367 NA 
HETATM   10  C   UNL     1     -11.567   9.048  70.915  1.00  0.00    -0.290 C  
HETATM   11  C   UNL     1     -11.771   8.271  72.195  1.00  0.00    -0.429 C  
HETATM   12  C   UNL     1     -11.083   8.535  69.756  1.00  0.00    -0.067 C  
HETATM   13  C   UNL     1     -10.914   9.433  68.519  1.00  0.00    -0.076 C  
BRANCH  12  14
HETATM   14  C   UNL     1     -10.706   7.097  69.699  1.00  0.00    -0.239 C  
HETATM   15  O   UNL     1     -11.413   6.220  69.226  1.00  0.00    -0.411 OA 
BRANCH  14  16
HETATM   16  O   UNL     1      -9.475   6.887  70.229  1.00  0.00    -0.162 OA 
HETATM   17  C   UNL     1      -9.331   5.616  70.879  1.00  0.00    -0.160 C  
ENDBRANCH  14  16
ENDBRANCH  12  14
BRANCH  13  18
HETATM   18  C   UNL     1      -9.569   9.254  67.783  1.00  0.00    -0.167 A  
HETATM   19  C   UNL     1      -9.621   8.859  66.424  1.00  0.00    -0.304 A  
HETATM   20  C   UNL     1      -8.474   8.799  65.634  1.00  0.00    -0.174 A  
HETATM   21  C   UNL     1      -8.306   9.550  68.339  1.00  0.00    -0.118 A  
HETATM   22  C   UNL     1      -7.153   9.494  67.530  1.00  0.00    -0.085 A  
HETATM   23 CL   UNL     1      -8.162  10.018  70.003  1.00  0.00    -0.182 Cl 
HETATM   24 CL   UNL     1      -5.579   9.913  68.121  1.00  0.00    -0.039 Cl 
HETATM   25  C   UNL     1      -7.242   9.128  66.183  1.00  0.00    -0.090 A  
ENDBRANCH  13  18
ENDBRANCH   4   6
ENDBRANCH   3   4
ENDBRANCH   2   3
TORSDOF 6
ENDMDL
MODEL       53
REMARK 921   NORMALIZED FREE ENERGY PREDICTED BY IDOCK:   -4.48 KCAL/MOL
REMARK 922        TOTAL FREE ENERGY PREDICTED BY IDOCK:   -7.27 KCAL/MOL
REMARK 923 INTER-LIGAND FREE ENERGY PREDICTED BY IDOCK:   -6.06 KCAL/MOL
REMARK 924 INTRA-LIGAND FREE ENERGY PREDICTED BY IDOCK:   -1.21 KCAL/MOL
REMARK 927      BINDING AFFINITY PREDICTED BY RF-SCORE:    0.00 PKD
ROOT
HETATM    1  C   UNL     1      -9.936  10.421  64.607  1.00  0.00    -0.408 C  
HETATM    2  C   UNL     1      -9.722   9.986  66.041  1.00  0.00    -0.240 C  
ENDROOT
BRANCH   2   3
HETATM    3  O   UNL     1     -10.466  10.906  66.845  1.00  0.00    -0.228 OA 
BRANCH   3   4
HETATM    4  C   UNL     1      -9.978  11.250  68.057  1.00  0.00    -0.179 C  
HETATM    5  O   UNL     1      -8.960  11.897  68.270  1.00  0.00    -0.173 OA 
BRANCH   4   6
HETATM    6  C   UNL     1     -10.965  10.878  69.100  1.00  0.00    -0.290 C  
HETATM    7  C   UNL     1     -11.782  11.781  69.691  1.00  0.00    -0.344 C  
HETATM    8  C   UNL     1     -11.886  13.260  69.395  1.00  0.00    -0.386 C  
HETATM    9  N   UNL     1     -12.643  11.367  70.693  1.00  0.00    -0.298 NA 
HETATM   10  C   UNL     1     -12.671  10.104  71.248  1.00  0.00    -0.407 C  
HETATM   11  C   UNL     1     -13.602   9.959  72.428  1.00  0.00    -0.258 C  
HETATM   12  C   UNL     1     -11.904   9.112  70.729  1.00  0.00    -0.280 C  
HETATM   13  C   UNL     1     -10.987   9.387  69.525  1.00  0.00    -0.193 C  
BRANCH  12  14
HETATM   14  C   UNL     1     -11.951   7.760  71.345  1.00  0.00    -0.306 C  
HETATM   15  O   UNL     1     -12.346   6.756  70.770  1.00  0.00    -0.377 OA 
BRANCH  14  16
HETATM   16  O   UNL     1     -11.489   7.780  72.620  1.00  0.00    -0.354 OA 
HETATM   17  C   UNL     1     -10.380   6.899  72.851  1.00  0.00    -0.226 C  
ENDBRANCH  14  16
ENDBRANCH  12  14
BRANCH  13  18
HETATM   18  C   UNL     1      -9.564   8.805  69.664  1.00  0.00    -0.171 A  
HETATM   19  C   UNL     1      -8.718   9.390  70.638  1.00  0.00    -0.263 A  
HETATM   20  C   UNL     1      -7.465   8.855  70.937  1.00  0.00    -0.110 A  
HETATM   21  C   UNL     1      -9.087   7.678  68.964  1.00  0.00    -0.144 A  
HETATM   22  C   UNL     1      -7.822   7.139  69.277  1.00  0.00    -0.117 A  
HETATM   23 CL   UNL     1     -10.058   6.923  67.741  1.00  0.00    -0.182 Cl 
HETATM   24 CL   UNL     1      -7.199   5.715  68.513  1.00  0.00    -0.073 Cl 
HETATM   25  C   UNL     1      -7.023   7.723  70.266  1.00  0.00    -0.050 A  
ENDBRANCH  13  18
ENDBRANCH   4   6
ENDBRANCH   3   4
ENDBRANCH   2   3
TORSDOF 6
ENDMDL
MODEL       54
REMARK 921   NORMALIZED FREE ENERGY PREDICTED BY IDOCK:   -4.46 KCAL/MOL
REMARK 922        TOTAL FREE ENERGY PREDICTED BY IDOCK:   -7.25 KCAL/MOL
REMARK 923 INTER-LIGAND FREE ENERGY PREDICTED BY IDOCK:   -5.85 KCAL/MOL
REMARK 924 INTRA-LIGAND FREE ENERGY PREDICTED BY IDOCK:   -1.40 KCAL/MOL
REMARK 927      BINDING AFFINITY PREDICTED BY RF-SCORE:    0.00 PKD
ROOT
HETATM    1  C   UNL     1      -6.818  15.590  69.049  1.00  0.00    -0.139 C  
HETATM    2  C   UNL     1      -6.394  14.807  67.825  1.00  0.00    -0.153 C  
ENDROOT
BRANCH   2   3
HETATM    3  O   UNL     1      -6.125  13.479  68.283  1.00  0.00    -0.082 OA 
BRANCH   3   4
HETATM    4  C   UNL     1      -6.591  12.437  67.562  1.00  0.00    -0.147 C  
HETATM    5  O   UNL     1      -6.171  12.065  66.473  1.00  0.00    -0.117 OA 
BRANCH   4   6
HETATM    6  C   UNL     1      -7.583  11.690  68.374  1.00  0.00    -0.126 C  
HETATM    7  C   UNL     1      -7.259  10.593  69.099  1.00  0.00    -0.102 C  
HETATM    8  C   UNL     1      -5.892   9.965  69.258  1.00  0.00    -0.034 C  
HETATM    9  N   UNL     1      -8.248   9.918  69.792  1.00  0.00    -0.168 NA 
HETATM   10  C   UNL     1      -9.599  10.195  69.725  1.00  0.00    -0.177 C  
HETATM   11  C   UNL     1     -10.477   9.213  70.464  1.00  0.00    -0.289 C  
HETATM   12  C   UNL     1     -10.040  11.279  69.039  1.00  0.00    -0.147 C  
HETATM   13  C   UNL     1      -9.044  12.204  68.319  1.00  0.00    -0.191 C  
BRANCH  12  14
HETATM   14  C   UNL     1     -11.500  11.556  68.980  1.00  0.00    -0.291 C  
HETATM   15  O   UNL     1     -12.279  10.981  68.233  1.00  0.00    -0.582 OA 
BRANCH  14  16
HETATM   16  O   UNL     1     -11.859  12.517  69.867  1.00  0.00    -0.325 OA 
HETATM   17  C   UNL     1     -12.649  12.032  70.963  1.00  0.00    -0.273 C  
ENDBRANCH  14  16
ENDBRANCH  12  14
BRANCH  13  18
HETATM   18  C   UNL     1      -9.464  12.598  66.887  1.00  0.00    -0.229 A  
HETATM   19  C   UNL     1      -9.447  11.580  65.903  1.00  0.00    -0.251 A  
HETATM   20  C   UNL     1      -9.934  11.797  64.615  1.00  0.00    -0.275 A  
HETATM   21  C   UNL     1      -9.953  13.868  66.517  1.00  0.00    -0.285 A  
HETATM   22  C   UNL     1     -10.450  14.077  65.214  1.00  0.00    -0.382 A  
HETATM   23 CL   UNL     1      -9.982  15.171  67.662  1.00  0.00    -0.228 Cl 
HETATM   24 CL   UNL     1     -11.134  15.586  64.707  1.00  0.00    -0.440 Cl 
HETATM   25  C   UNL     1     -10.447  13.041  64.274  1.00  0.00    -0.424 A  
ENDBRANCH  13  18
ENDBRANCH   4   6
ENDBRANCH   3   4
ENDBRANCH   2   3
TORSDOF 6
ENDMDL
MODEL       55
REMARK 921   NORMALIZED FREE ENERGY PREDICTED BY IDOCK:   -4.43 KCAL/MOL
REMARK 922        TOTAL FREE ENERGY PREDICTED BY IDOCK:   -7.20 KCAL/MOL
REMARK 923 INTER-LIGAND FREE ENERGY PREDICTED BY IDOCK:   -5.78 KCAL/MOL
REMARK 924 INTRA-LIGAND FREE ENERGY PREDICTED BY IDOCK:   -1.43 KCAL/MOL
REMARK 927      BINDING AFFINITY PREDICTED BY RF-SCORE:    0.00 PKD
ROOT
HETATM    1  C   UNL     1     -12.126  10.474  70.257  1.00  0.00    -0.402 C  
HETATM    2  C   UNL     1     -12.260  11.826  69.592  1.00  0.00    -0.185 C  
ENDROOT
BRANCH   2   3
HETATM    3  O   UNL     1     -11.827  11.643  68.241  1.00  0.00    -0.445 OA 
BRANCH   3   4
HETATM    4  C   UNL     1     -10.851  12.441  67.758  1.00  0.00    -0.225 C  
HETATM    5  O   UNL     1     -10.310  13.365  68.353  1.00  0.00    -0.242 OA 
BRANCH   4   6
HETATM    6  C   UNL     1     -10.398  11.914  66.447  1.00  0.00    -0.252 C  
HETATM    7  C   UNL     1     -11.147  12.007  65.322  1.00  0.00    -0.317 C  
HETATM    8  C   UNL     1     -12.499  12.669  65.168  1.00  0.00    -0.531 C  
HETATM    9  N   UNL     1     -10.682  11.448  64.146  1.00  0.00    -0.352 NA 
HETATM   10  C   UNL     1      -9.542  10.678  64.026  1.00  0.00    -0.299 C  
HETATM   11  C   UNL     1      -9.342  10.064  62.660  1.00  0.00    -0.296 C  
HETATM   12  C   UNL     1      -8.706  10.526  65.084  1.00  0.00    -0.197 C  
HETATM   13  C   UNL     1      -9.024  11.198  66.430  1.00  0.00    -0.190 C  
BRANCH  12  14
HETATM   14  C   UNL     1      -7.485   9.691  64.930  1.00  0.00    -0.118 C  
HETATM   15  O   UNL     1      -7.483   8.469  64.937  1.00  0.00    -0.087 OA 
BRANCH  14  16
HETATM   16  O   UNL     1      -6.377  10.457  64.770  1.00  0.00    -0.127 OA 
HETATM   17  C   UNL     1      -5.697  10.244  63.524  1.00  0.00    -0.143 C  
ENDBRANCH  14  16
ENDBRANCH  12  14
BRANCH  13  18
HETATM   18  C   UNL     1      -8.836  10.281  67.658  1.00  0.00    -0.121 A  
HETATM   19  C   UNL     1      -7.940  10.721  68.663  1.00  0.00    -0.133 A  
HETATM   20  C   UNL     1      -7.799  10.036  69.870  1.00  0.00    -0.185 A  
HETATM   21  C   UNL     1      -9.562   9.095  67.891  1.00  0.00    -0.146 A  
HETATM   22  C   UNL     1      -9.418   8.413  69.116  1.00  0.00    -0.155 A  
HETATM   23 CL   UNL     1     -10.660   8.483  66.695  1.00  0.00    -0.255 Cl 
HETATM   24 CL   UNL     1     -10.330   6.991  69.505  1.00  0.00    -0.214 Cl 
HETATM   25  C   UNL     1      -8.547   8.890  70.101  1.00  0.00    -0.161 A  
ENDBRANCH  13  18
ENDBRANCH   4   6
ENDBRANCH   3   4
ENDBRANCH   2   3
TORSDOF 6
ENDMDL
MODEL       56
REMARK 921   NORMALIZED FREE ENERGY PREDICTED BY IDOCK:   -4.42 KCAL/MOL
REMARK 922        TOTAL FREE ENERGY PREDICTED BY IDOCK:   -7.19 KCAL/MOL
REMARK 923 INTER-LIGAND FREE ENERGY PREDICTED BY IDOCK:   -5.81 KCAL/MOL
REMARK 924 INTRA-LIGAND FREE ENERGY PREDICTED BY IDOCK:   -1.37 KCAL/MOL
REMARK 927      BINDING AFFINITY PREDICTED BY RF-SCORE:    0.00 PKD
ROOT
HETATM    1  C   UNL     1     -13.224  12.311  71.899  1.00  0.00    -0.481 C  
HETATM    2  C   UNL     1     -12.650  11.176  71.080  1.00  0.00    -0.409 C  
ENDROOT
BRANCH   2   3
HETATM    3  O   UNL     1     -11.634  11.758  70.259  1.00  0.00    -0.260 OA 
BRANCH   3   4
HETATM    4  C   UNL     1     -11.397  11.223  69.042  1.00  0.00    -0.278 C  
HETATM    5  O   UNL     1     -12.232  11.003  68.173  1.00  0.00    -0.578 OA 
BRANCH   4   6
HETATM    6  C   UNL     1      -9.932  11.105  68.842  1.00  0.00    -0.188 C  
HETATM    7  C   UNL     1      -9.239  11.914  68.006  1.00  0.00    -0.190 C  
HETATM    8  C   UNL     1      -9.774  13.068  67.189  1.00  0.00    -0.230 C  
HETATM    9  N   UNL     1      -7.881  11.711  67.833  1.00  0.00    -0.121 NA 
HETATM   10  C   UNL     1      -7.159  10.658  68.356  1.00  0.00    -0.078 C  
HETATM   11  C   UNL     1      -5.724  10.590  67.891  1.00  0.00    -0.043 C  
HETATM   12  C   UNL     1      -7.746   9.789  69.218  1.00  0.00    -0.101 C  
HETATM   13  C   UNL     1      -9.223   9.961  69.611  1.00  0.00    -0.246 C  
BRANCH  12  14
HETATM   14  C   UNL     1      -6.947   8.661  69.768  1.00  0.00    -0.046 C  
HETATM   15  O   UNL     1      -6.323   8.710  70.817  1.00  0.00    -0.036 OA 
BRANCH  14  16
HETATM   16  O   UNL     1      -7.010   7.571  68.964  1.00  0.00    -0.068 OA 
HETATM   17  C   UNL     1      -7.214   6.338  69.670  1.00  0.00    -0.078 C  
ENDBRANCH  14  16
ENDBRANCH  12  14
BRANCH  13  18
HETATM   18  C   UNL     1     -10.043   8.653  69.586  1.00  0.00    -0.201 A  
HETATM   19  C   UNL     1     -10.257   8.047  68.325  1.00  0.00    -0.243 A  
HETATM   20  C   UNL     1     -10.867   6.798  68.206  1.00  0.00    -0.290 A  
HETATM   21  C   UNL     1     -10.505   7.976  70.734  1.00  0.00    -0.206 A  
HETATM   22  C   UNL     1     -11.114   6.711  70.605  1.00  0.00    -0.298 A  
HETATM   23 CL   UNL     1     -10.300   8.669  72.311  1.00  0.00    -0.399 Cl 
HETATM   24 CL   UNL     1     -11.642   5.786  71.972  1.00  0.00    -0.278 Cl 
HETATM   25  C   UNL     1     -11.284   6.125  69.346  1.00  0.00    -0.466 A  
ENDBRANCH  13  18
ENDBRANCH   4   6
ENDBRANCH   3   4
ENDBRANCH   2   3
TORSDOF 6
ENDMDL
MODEL       57
REMARK 921   NORMALIZED FREE ENERGY PREDICTED BY IDOCK:   -4.41 KCAL/MOL
REMARK 922        TOTAL FREE ENERGY PREDICTED BY IDOCK:   -7.18 KCAL/MOL
REMARK 923 INTER-LIGAND FREE ENERGY PREDICTED BY IDOCK:   -6.19 KCAL/MOL
REMARK 924 INTRA-LIGAND FREE ENERGY PREDICTED BY IDOCK:   -0.99 KCAL/MOL
REMARK 927      BINDING AFFINITY PREDICTED BY RF-SCORE:    0.00 PKD
ROOT
HETATM    1  C   UNL     1     -12.245  15.497  70.192  1.00  0.00    -0.404 C  
HETATM    2  C   UNL     1     -10.735  15.418  70.119  1.00  0.00    -0.308 C  
ENDROOT
BRANCH   2   3
HETATM    3  O   UNL     1     -10.439  14.237  69.369  1.00  0.00    -0.160 OA 
BRANCH   3   4
HETATM    4  C   UNL     1      -9.344  14.227  68.579  1.00  0.00    -0.200 C  
HETATM    5  O   UNL     1      -8.194  14.456  68.933  1.00  0.00    -0.141 OA 
BRANCH   4   6
HETATM    6  C   UNL     1      -9.719  13.716  67.237  1.00  0.00    -0.243 C  
HETATM    7  C   UNL     1     -10.525  14.401  66.392  1.00  0.00    -0.295 C  
HETATM    8  C   UNL     1     -11.135  15.768  66.607  1.00  0.00    -0.099 C  
HETATM    9  N   UNL     1     -10.872  13.839  65.176  1.00  0.00    -0.325 NA 
HETATM   10  C   UNL     1     -10.561  12.555  64.774  1.00  0.00    -0.305 C  
HETATM   11  C   UNL     1     -11.188  12.140  63.464  1.00  0.00    -0.536 C  
HETATM   12  C   UNL     1      -9.748  11.780  65.535  1.00  0.00    -0.248 C  
HETATM   13  C   UNL     1      -9.175  12.316  66.857  1.00  0.00    -0.209 C  
BRANCH  12  14
HETATM   14  C   UNL     1      -9.428  10.400  65.080  1.00  0.00    -0.249 C  
HETATM   15  O   UNL     1     -10.020   9.399  65.455  1.00  0.00    -0.235 OA 
BRANCH  14  16
HETATM   16  O   UNL     1      -8.404  10.396  64.191  1.00  0.00    -0.167 OA 
HETATM   17  C   UNL     1      -8.633   9.565  63.044  1.00  0.00    -0.217 C  
ENDBRANCH  14  16
ENDBRANCH  12  14
BRANCH  13  18
HETATM   18  C   UNL     1      -9.262  11.322  68.036  1.00  0.00    -0.160 A  
HETATM   19  C   UNL     1      -8.042  10.820  68.551  1.00  0.00    -0.133 A  
HETATM   20  C   UNL     1      -8.003  10.025  69.697  1.00  0.00    -0.176 A  
HETATM   21  C   UNL     1     -10.457  10.961  68.692  1.00  0.00    -0.194 A  
HETATM   22  C   UNL     1     -10.407  10.163  69.853  1.00  0.00    -0.261 A  
HETATM   23 CL   UNL     1     -11.990  11.520  68.104  1.00  0.00    -0.296 Cl 
HETATM   24 CL   UNL     1     -11.825   9.738  70.755  1.00  0.00    -0.377 Cl 
HETATM   25  C   UNL     1      -9.183   9.707  70.354  1.00  0.00    -0.258 A  
ENDBRANCH  13  18
ENDBRANCH   4   6
ENDBRANCH   3   4
ENDBRANCH   2   3
TORSDOF 6
ENDMDL
MODEL       58
REMARK 921   NORMALIZED FREE ENERGY PREDICTED BY IDOCK:   -4.36 KCAL/MOL
REMARK 922        TOTAL FREE ENERGY PREDICTED BY IDOCK:   -7.11 KCAL/MOL
REMARK 923 INTER-LIGAND FREE ENERGY PREDICTED BY IDOCK:   -5.80 KCAL/MOL
REMARK 924 INTRA-LIGAND FREE ENERGY PREDICTED BY IDOCK:   -1.32 KCAL/MOL
REMARK 927      BINDING AFFINITY PREDICTED BY RF-SCORE:    0.00 PKD
ROOT
HETATM    1  C   UNL     1     -10.544   6.156  66.930  1.00  0.00    -0.380 C  
HETATM    2  C   UNL     1      -9.073   6.375  66.648  1.00  0.00    -0.146 C  
ENDROOT
BRANCH   2   3
HETATM    3  O   UNL     1      -9.015   7.334  65.589  1.00  0.00    -0.087 OA 
BRANCH   3   4
HETATM    4  C   UNL     1      -8.441   8.533  65.829  1.00  0.00    -0.154 C  
HETATM    5  O   UNL     1      -7.239   8.760  65.891  1.00  0.00    -0.082 OA 
BRANCH   4   6
HETATM    6  C   UNL     1      -9.491   9.581  65.832  1.00  0.00    -0.307 C  
HETATM    7  C   UNL     1      -9.868  10.243  64.712  1.00  0.00    -0.334 C  
HETATM    8  C   UNL     1      -9.361  10.030  63.303  1.00  0.00    -0.296 C  
HETATM    9  N   UNL     1     -10.819  11.243  64.800  1.00  0.00    -0.281 NA 
HETATM   10  C   UNL     1     -11.357  11.730  65.974  1.00  0.00    -0.273 C  
HETATM   11  C   UNL     1     -12.263  12.926  65.799  1.00  0.00    -0.498 C  
HETATM   12  C   UNL     1     -11.062  11.137  67.158  1.00  0.00    -0.352 C  
HETATM   13  C   UNL     1     -10.116   9.925  67.207  1.00  0.00    -0.264 C  
BRANCH  12  14
HETATM   14  C   UNL     1     -11.654  11.681  68.410  1.00  0.00    -0.312 C  
HETATM   15  O   UNL     1     -12.514  11.112  69.066  1.00  0.00    -0.439 OA 
BRANCH  14  16
HETATM   16  O   UNL     1     -11.110  12.879  68.736  1.00  0.00    -0.243 OA 
HETATM   17  C   UNL     1     -11.906  13.652  69.646  1.00  0.00    -0.335 C  
ENDBRANCH  14  16
ENDBRANCH  12  14
BRANCH  13  18
HETATM   18  C   UNL     1      -9.053   9.994  68.325  1.00  0.00    -0.122 A  
HETATM   19  C   UNL     1      -9.082   8.977  69.310  1.00  0.00    -0.145 A  
HETATM   20  C   UNL     1      -8.088   8.871  70.283  1.00  0.00    -0.125 A  
HETATM   21  C   UNL     1      -8.004  10.935  68.375  1.00  0.00    -0.127 A  
HETATM   22  C   UNL     1      -7.000  10.816  69.358  1.00  0.00    -0.116 A  
HETATM   23 CL   UNL     1      -7.916  12.222  67.215  1.00  0.00    -0.171 Cl 
HETATM   24 CL   UNL     1      -5.642  11.889  69.439  1.00  0.00    -0.063 Cl 
HETATM   25  C   UNL     1      -7.041   9.782  70.299  1.00  0.00    -0.145 A  
ENDBRANCH  13  18
ENDBRANCH   4   6
ENDBRANCH   3   4
ENDBRANCH   2   3
TORSDOF 6
ENDMDL
MODEL       59
REMARK 921   NORMALIZED FREE ENERGY PREDICTED BY IDOCK:   -4.35 KCAL/MOL
REMARK 922        TOTAL FREE ENERGY PREDICTED BY IDOCK:   -7.10 KCAL/MOL
REMARK 923 INTER-LIGAND FREE ENERGY PREDICTED BY IDOCK:   -6.50 KCAL/MOL
REMARK 924 INTRA-LIGAND FREE ENERGY PREDICTED BY IDOCK:   -0.60 KCAL/MOL
REMARK 927      BINDING AFFINITY PREDICTED BY RF-SCORE:    0.00 PKD
ROOT
HETATM    1  C   UNL     1     -11.744  15.907  71.907  1.00  0.00    -0.590 C  
HETATM    2  C   UNL     1     -11.043  15.039  70.885  1.00  0.00    -0.183 C  
ENDROOT
BRANCH   2   3
HETATM    3  O   UNL     1     -10.345  15.938  70.019  1.00  0.00    -0.289 OA 
BRANCH   3   4
HETATM    4  C   UNL     1      -9.412  15.438  69.180  1.00  0.00    -0.242 C  
HETATM    5  O   UNL     1      -8.328  14.965  69.502  1.00  0.00    -0.137 OA 
BRANCH   4   6
HETATM    6  C   UNL     1      -9.973  15.383  67.808  1.00  0.00    -0.225 C  
HETATM    7  C   UNL     1     -10.492  16.467  67.185  1.00  0.00    -0.300 C  
HETATM    8  C   UNL     1     -10.560  17.885  67.708  1.00  0.00    -0.399 C  
HETATM    9  N   UNL     1     -11.043  16.329  65.924  1.00  0.00    -0.005 NA 
HETATM   10  C   UNL     1     -11.227  15.132  65.261  1.00  0.00    -0.358 C  
HETATM   11  C   UNL     1     -11.988  15.245  63.961  1.00  0.00    -0.018 C  
HETATM   12  C   UNL     1     -10.736  13.980  65.784  1.00  0.00    -0.294 C  
HETATM   13  C   UNL     1      -9.981  13.992  67.124  1.00  0.00    -0.252 C  
BRANCH  12  14
HETATM   14  C   UNL     1     -10.948  12.702  65.052  1.00  0.00    -0.289 C  
HETATM   15  O   UNL     1     -10.051  12.047  64.541  1.00  0.00    -0.271 OA 
BRANCH  14  16
HETATM   16  O   UNL     1     -12.258  12.353  65.032  1.00  0.00    -0.437 OA 
HETATM   17  C   UNL     1     -12.712  11.866  63.761  1.00  0.00    -0.350 C  
ENDBRANCH  14  16
ENDBRANCH  12  14
BRANCH  13  18
HETATM   18  C   UNL     1     -10.400  12.871  68.099  1.00  0.00    -0.243 A  
HETATM   19  C   UNL     1     -11.751  12.853  68.523  1.00  0.00    -0.374 A  
HETATM   20  C   UNL     1     -12.263  11.810  69.295  1.00  0.00    -0.202 A  
HETATM   21  C   UNL     1      -9.561  11.816  68.514  1.00  0.00    -0.170 A  
HETATM   22  C   UNL     1     -10.089  10.762  69.288  1.00  0.00    -0.177 A  
HETATM   23 CL   UNL     1      -7.889  11.784  68.053  1.00  0.00    -0.126 Cl 
HETATM   24 CL   UNL     1      -9.140   9.396  69.775  1.00  0.00    -0.185 Cl 
HETATM   25  C   UNL     1     -11.435  10.759  69.666  1.00  0.00    -0.376 A  
ENDBRANCH  13  18
ENDBRANCH   4   6
ENDBRANCH   3   4
ENDBRANCH   2   3
TORSDOF 6
ENDMDL
MODEL       60
REMARK 921   NORMALIZED FREE ENERGY PREDICTED BY IDOCK:   -4.35 KCAL/MOL
REMARK 922        TOTAL FREE ENERGY PREDICTED BY IDOCK:   -7.10 KCAL/MOL
REMARK 923 INTER-LIGAND FREE ENERGY PREDICTED BY IDOCK:   -5.65 KCAL/MOL
REMARK 924 INTRA-LIGAND FREE ENERGY PREDICTED BY IDOCK:   -1.44 KCAL/MOL
REMARK 927      BINDING AFFINITY PREDICTED BY RF-SCORE:    0.00 PKD
ROOT
HETATM    1  C   UNL     1      -6.927  19.067  65.720  1.00  0.00    -0.302 C  
HETATM    2  C   UNL     1      -6.320  18.681  67.051  1.00  0.00    -0.182 C  
ENDROOT
BRANCH   2   3
HETATM    3  O   UNL     1      -6.711  17.325  67.283  1.00  0.00    -0.141 OA 
BRANCH   3   4
HETATM    4  C   UNL     1      -6.806  16.885  68.556  1.00  0.00    -0.172 C  
HETATM    5  O   UNL     1      -6.289  17.400  69.540  1.00  0.00    -0.244 OA 
BRANCH   4   6
HETATM    6  C   UNL     1      -7.787  15.774  68.613  1.00  0.00    -0.156 C  
HETATM    7  C   UNL     1      -7.509  14.527  68.165  1.00  0.00    -0.126 C  
HETATM    8  C   UNL     1      -6.202  14.026  67.591  1.00  0.00    -0.108 C  
HETATM    9  N   UNL     1      -8.491  13.554  68.204  1.00  0.00    -0.165 NA 
HETATM   10  C   UNL     1      -9.808  13.764  68.561  1.00  0.00    -0.204 C  
HETATM   11  C   UNL     1     -10.707  12.565  68.374  1.00  0.00    -0.259 C  
HETATM   12  C   UNL     1     -10.201  14.972  69.039  1.00  0.00    -0.242 C  
HETATM   13  C   UNL     1      -9.189  16.121  69.177  1.00  0.00    -0.246 C  
BRANCH  12  14
HETATM   14  C   UNL     1     -11.626  15.175  69.416  1.00  0.00    -0.323 C  
HETATM   15  O   UNL     1     -12.499  15.527  68.637  1.00  0.00     0.081 OA 
BRANCH  14  16
HETATM   16  O   UNL     1     -11.834  14.908  70.729  1.00  0.00    -0.277 OA 
HETATM   17  C   UNL     1     -11.763  16.065  71.576  1.00  0.00    -0.484 C  
ENDBRANCH  14  16
ENDBRANCH  12  14
BRANCH  13  18
HETATM   18  C   UNL     1      -9.699  17.483  68.657  1.00  0.00    -0.319 A  
HETATM   19  C   UNL     1      -9.707  18.564  69.572  1.00  0.00     0.250 A  
HETATM   20  C   UNL     1     -10.021  19.862  69.170  1.00  0.00    -0.336 A  
HETATM   21  C   UNL     1     -10.061  17.745  67.319  1.00  0.00    -0.337 A  
HETATM   22  C   UNL     1     -10.370  19.061  66.920  1.00  0.00    -0.407 A  
HETATM   23 CL   UNL     1     -10.097  16.466  66.148  1.00  0.00    -0.342 Cl 
HETATM   24 CL   UNL     1     -10.753  19.473  65.281  1.00  0.00    -0.153 Cl 
HETATM   25  C   UNL     1     -10.340  20.112  67.842  1.00  0.00    -0.459 A  
ENDBRANCH  13  18
ENDBRANCH   4   6
ENDBRANCH   3   4
ENDBRANCH   2   3
TORSDOF 6
ENDMDL
MODEL       61
REMARK 921   NORMALIZED FREE ENERGY PREDICTED BY IDOCK:   -4.35 KCAL/MOL
REMARK 922        TOTAL FREE ENERGY PREDICTED BY IDOCK:   -7.09 KCAL/MOL
REMARK 923 INTER-LIGAND FREE ENERGY PREDICTED BY IDOCK:   -6.22 KCAL/MOL
REMARK 924 INTRA-LIGAND FREE ENERGY PREDICTED BY IDOCK:   -0.88 KCAL/MOL
REMARK 927      BINDING AFFINITY PREDICTED BY RF-SCORE:    0.00 PKD
ROOT
HETATM    1  C   UNL     1      -6.796  17.241  66.203  1.00  0.00    -0.227 C  
HETATM    2  C   UNL     1      -6.165  16.346  67.248  1.00  0.00    -0.177 C  
ENDROOT
BRANCH   2   3
HETATM    3  O   UNL     1      -6.643  15.026  66.975  1.00  0.00    -0.207 OA 
BRANCH   3   4
HETATM    4  C   UNL     1      -6.825  14.175  68.008  1.00  0.00    -0.145 C  
HETATM    5  O   UNL     1      -6.471  14.357  69.166  1.00  0.00    -0.095 OA 
BRANCH   4   6
HETATM    6  C   UNL     1      -7.686  13.051  67.564  1.00  0.00    -0.168 C  
HETATM    7  C   UNL     1      -7.183  11.887  67.089  1.00  0.00    -0.144 C  
HETATM    8  C   UNL     1      -5.728  11.496  66.963  1.00  0.00    -0.119 C  
HETATM    9  N   UNL     1      -8.048  10.903  66.646  1.00  0.00    -0.141 NA 
HETATM   10  C   UNL     1      -9.417  11.038  66.530  1.00  0.00    -0.187 C  
HETATM   11  C   UNL     1     -10.109   9.863  65.879  1.00  0.00    -0.316 C  
HETATM   12  C   UNL     1     -10.034  12.157  66.987  1.00  0.00    -0.213 C  
HETATM   13  C   UNL     1      -9.216  13.291  67.626  1.00  0.00    -0.209 C  
BRANCH  12  14
HETATM   14  C   UNL     1     -11.510  12.279  66.849  1.00  0.00    -0.356 C  
HETATM   15  O   UNL     1     -12.108  12.226  65.784  1.00  0.00    -0.587 OA 
BRANCH  14  16
HETATM   16  O   UNL     1     -12.109  12.445  68.055  1.00  0.00    -0.398 OA 
HETATM   17  C   UNL     1     -11.965  11.321  68.935  1.00  0.00    -0.310 C  
ENDBRANCH  14  16
ENDBRANCH  12  14
BRANCH  13  18
HETATM   18  C   UNL     1      -9.600  14.704  67.138  1.00  0.00    -0.236 A  
HETATM   19  C   UNL     1      -9.851  14.865  65.754  1.00  0.00    -0.380 A  
HETATM   20  C   UNL     1     -10.333  16.065  65.231  1.00  0.00    -0.319 A  
HETATM   21  C   UNL     1      -9.812  15.813  67.983  1.00  0.00    -0.217 A  
HETATM   22  C   UNL     1     -10.306  17.020  67.447  1.00  0.00    -0.319 A  
HETATM   23 CL   UNL     1      -9.503  15.697  69.686  1.00  0.00    -0.283 Cl 
HETATM   24 CL   UNL     1     -10.660  18.402  68.431  1.00  0.00    -0.258 Cl 
HETATM   25  C   UNL     1     -10.572  17.138  66.079  1.00  0.00    -0.205 A  
ENDBRANCH  13  18
ENDBRANCH   4   6
ENDBRANCH   3   4
ENDBRANCH   2   3
TORSDOF 6
ENDMDL
MODEL       62
REMARK 921   NORMALIZED FREE ENERGY PREDICTED BY IDOCK:   -4.34 KCAL/MOL
REMARK 922        TOTAL FREE ENERGY PREDICTED BY IDOCK:   -7.09 KCAL/MOL
REMARK 923 INTER-LIGAND FREE ENERGY PREDICTED BY IDOCK:   -6.04 KCAL/MOL
REMARK 924 INTRA-LIGAND FREE ENERGY PREDICTED BY IDOCK:   -1.05 KCAL/MOL
REMARK 927      BINDING AFFINITY PREDICTED BY RF-SCORE:    0.00 PKD
ROOT
HETATM    1  C   UNL     1     -10.630   4.931  66.255  1.00  0.00    -0.307 C  
HETATM    2  C   UNL     1      -9.728   5.862  67.035  1.00  0.00    -0.141 C  
ENDROOT
BRANCH   2   3
HETATM    3  O   UNL     1     -10.208   7.184  66.775  1.00  0.00    -0.235 OA 
BRANCH   3   4
HETATM    4  C   UNL     1      -9.368   8.226  66.948  1.00  0.00    -0.176 C  
HETATM    5  O   UNL     1      -8.158   8.220  66.756  1.00  0.00    -0.100 OA 
BRANCH   4   6
HETATM    6  C   UNL     1     -10.161   9.446  67.237  1.00  0.00    -0.308 C  
HETATM    7  C   UNL     1     -10.236  10.491  66.380  1.00  0.00    -0.237 C  
HETATM    8  C   UNL     1      -9.604  10.607  65.011  1.00  0.00    -0.319 C  
HETATM    9  N   UNL     1     -10.956  11.617  66.740  1.00  0.00    -0.278 NA 
HETATM   10  C   UNL     1     -11.529  11.834  67.977  1.00  0.00    -0.319 C  
HETATM   11  C   UNL     1     -12.129  13.209  68.156  1.00  0.00    -0.224 C  
HETATM   12  C   UNL     1     -11.528  10.852  68.913  1.00  0.00    -0.369 C  
HETATM   13  C   UNL     1     -10.877   9.491  68.611  1.00  0.00    -0.177 C  
BRANCH  12  14
HETATM   14  C   UNL     1     -12.152  11.110  70.238  1.00  0.00    -0.377 C  
HETATM   15  O   UNL     1     -11.920  12.094  70.926  1.00  0.00    -0.213 OA 
BRANCH  14  16
HETATM   16  O   UNL     1     -13.017  10.123  70.580  1.00  0.00    -0.285 OA 
HETATM   17  C   UNL     1     -13.284  10.045  71.988  1.00  0.00    -0.443 C  
ENDBRANCH  14  16
ENDBRANCH  12  14
BRANCH  13  18
HETATM   18  C   UNL     1      -9.982   8.950  69.747  1.00  0.00    -0.196 A  
HETATM   19  C   UNL     1      -8.838   9.712  70.089  1.00  0.00    -0.266 A  
HETATM   20  C   UNL     1      -8.040   9.385  71.185  1.00  0.00     0.077 A  
HETATM   21  C   UNL     1     -10.276   7.811  70.526  1.00  0.00    -0.201 A  
HETATM   22  C   UNL     1      -9.467   7.492  71.635  1.00  0.00    -0.149 A  
HETATM   23 CL   UNL     1     -11.646   6.816  70.151  1.00  0.00    -0.409 Cl 
HETATM   24 CL   UNL     1      -9.806   6.152  72.681  1.00  0.00    -0.174 Cl 
HETATM   25  C   UNL     1      -8.362   8.283  71.965  1.00  0.00    -0.219 A  
ENDBRANCH  13  18
ENDBRANCH   4   6
ENDBRANCH   3   4
ENDBRANCH   2   3
TORSDOF 6
ENDMDL
MODEL       63
REMARK 921   NORMALIZED FREE ENERGY PREDICTED BY IDOCK:   -4.34 KCAL/MOL
REMARK 922        TOTAL FREE ENERGY PREDICTED BY IDOCK:   -7.08 KCAL/MOL
REMARK 923 INTER-LIGAND FREE ENERGY PREDICTED BY IDOCK:   -6.13 KCAL/MOL
REMARK 924 INTRA-LIGAND FREE ENERGY PREDICTED BY IDOCK:   -0.96 KCAL/MOL
REMARK 927      BINDING AFFINITY PREDICTED BY RF-SCORE:    0.00 PKD
ROOT
HETATM    1  C   UNL     1      -8.592   8.156  71.984  1.00  0.00    -0.216 C  
HETATM    2  C   UNL     1      -9.786   8.966  71.527  1.00  0.00    -0.302 C  
ENDROOT
BRANCH   2   3
HETATM    3  O   UNL     1      -9.377   9.625  70.325  1.00  0.00    -0.242 OA 
BRANCH   3   4
HETATM    4  C   UNL     1     -10.307   9.897  69.385  1.00  0.00    -0.222 C  
HETATM    5  O   UNL     1     -10.836   9.086  68.634  1.00  0.00    -0.142 OA 
BRANCH   4   6
HETATM    6  C   UNL     1     -10.730  11.313  69.515  1.00  0.00    -0.147 C  
HETATM    7  C   UNL     1     -11.835  11.687  70.202  1.00  0.00    -0.344 C  
HETATM    8  C   UNL     1     -12.786  10.798  70.971  1.00  0.00    -0.480 C  
HETATM    9  N   UNL     1     -12.194  13.023  70.238  1.00  0.00    -0.329 NA 
HETATM   10  C   UNL     1     -11.581  14.033  69.525  1.00  0.00    -0.295 C  
HETATM   11  C   UNL     1     -12.264  15.376  69.628  1.00  0.00    -0.312 C  
HETATM   12  C   UNL     1     -10.455  13.778  68.811  1.00  0.00    -0.224 C  
HETATM   13  C   UNL     1      -9.858  12.362  68.779  1.00  0.00    -0.005 C  
BRANCH  12  14
HETATM   14  C   UNL     1      -9.813  14.884  68.050  1.00  0.00    -0.216 C  
HETATM   15  O   UNL     1      -8.752  15.404  68.360  1.00  0.00    -0.162 OA 
BRANCH  14  16
HETATM   16  O   UNL     1     -10.548  15.231  66.965  1.00  0.00    -0.293 OA 
HETATM   17  C   UNL     1      -9.776  15.393  65.767  1.00  0.00    -0.350 C  
ENDBRANCH  14  16
ENDBRANCH  12  14
BRANCH  13  18
HETATM   18  C   UNL     1      -9.441  11.881  67.372  1.00  0.00    -0.175 A  
HETATM   19  C   UNL     1      -8.114  11.412  67.216  1.00  0.00    -0.148 A  
HETATM   20  C   UNL     1      -7.677  10.832  66.025  1.00  0.00    -0.139 A  
HETATM   21  C   UNL     1     -10.312  11.785  66.267  1.00  0.00    -0.224 A  
HETATM   22  C   UNL     1      -9.864  11.191  65.070  1.00  0.00    -0.266 A  
HETATM   23 CL   UNL     1     -11.944  12.360  66.378  1.00  0.00    -0.414 Cl 
HETATM   24 CL   UNL     1     -10.895  10.972  63.694  1.00  0.00    -0.311 Cl 
HETATM   25  C   UNL     1      -8.555  10.711  64.957  1.00  0.00    -0.166 A  
ENDBRANCH  13  18
ENDBRANCH   4   6
ENDBRANCH   3   4
ENDBRANCH   2   3
TORSDOF 6
ENDMDL
MODEL       64
REMARK 921   NORMALIZED FREE ENERGY PREDICTED BY IDOCK:   -4.34 KCAL/MOL
REMARK 922        TOTAL FREE ENERGY PREDICTED BY IDOCK:   -7.08 KCAL/MOL
REMARK 923 INTER-LIGAND FREE ENERGY PREDICTED BY IDOCK:   -5.87 KCAL/MOL
REMARK 924 INTRA-LIGAND FREE ENERGY PREDICTED BY IDOCK:   -1.21 KCAL/MOL
REMARK 927      BINDING AFFINITY PREDICTED BY RF-SCORE:    0.00 PKD
ROOT
HETATM    1  C   UNL     1     -10.754   6.946  67.385  1.00  0.00    -0.396 C  
HETATM    2  C   UNL     1     -10.171   7.419  68.699  1.00  0.00    -0.191 C  
ENDROOT
BRANCH   2   3
HETATM    3  O   UNL     1     -10.630   8.762  68.873  1.00  0.00    -0.215 OA 
BRANCH   3   4
HETATM    4  C   UNL     1      -9.763   9.691  69.328  1.00  0.00    -0.185 C  
HETATM    5  O   UNL     1      -8.649   9.477  69.791  1.00  0.00    -0.155 OA 
BRANCH   4   6
HETATM    6  C   UNL     1     -10.294  11.042  69.019  1.00  0.00    -0.229 C  
HETATM    7  C   UNL     1     -11.424  11.531  69.580  1.00  0.00    -0.301 C  
HETATM    8  C   UNL     1     -12.304  10.862  70.613  1.00  0.00    -0.470 C  
HETATM    9  N   UNL     1     -11.886  12.780  69.205  1.00  0.00    -0.309 NA 
HETATM   10  C   UNL     1     -11.352  13.557  68.196  1.00  0.00    -0.286 C  
HETATM   11  C   UNL     1     -12.136  14.811  67.889  1.00  0.00    -0.161 C  
HETATM   12  C   UNL     1     -10.211  13.174  67.570  1.00  0.00    -0.225 C  
HETATM   13  C   UNL     1      -9.506  11.866  67.969  1.00  0.00    -0.197 C  
BRANCH  12  14
HETATM   14  C   UNL     1      -9.656  14.027  66.485  1.00  0.00    -0.293 C  
HETATM   15  O   UNL     1     -10.101  14.067  65.348  1.00  0.00    -0.332 OA 
BRANCH  14  16
HETATM   16  O   UNL     1      -8.603  14.762  66.922  1.00  0.00    -0.228 OA 
HETATM   17  C   UNL     1      -8.540  16.080  66.359  1.00  0.00    -0.334 C  
ENDBRANCH  14  16
ENDBRANCH  12  14
BRANCH  13  18
HETATM   18  C   UNL     1      -9.053  10.999  66.775  1.00  0.00    -0.172 A  
HETATM   19  C   UNL     1     -10.065  10.345  66.029  1.00  0.00    -0.307 A  
HETATM   20  C   UNL     1      -9.776   9.649  64.856  1.00  0.00    -0.174 A  
HETATM   21  C   UNL     1      -7.722  10.894  66.320  1.00  0.00    -0.147 A  
HETATM   22  C   UNL     1      -7.441  10.194  65.129  1.00  0.00    -0.141 A  
HETATM   23 CL   UNL     1      -6.429  11.649  67.194  1.00  0.00    -0.122 Cl 
HETATM   24 CL   UNL     1      -5.843  10.083  64.468  1.00  0.00    -0.104 Cl 
HETATM   25  C   UNL     1      -8.467   9.584  64.399  1.00  0.00    -0.191 A  
ENDBRANCH  13  18
ENDBRANCH   4   6
ENDBRANCH   3   4
ENDBRANCH   2   3
TORSDOF 6
ENDMDL
MODEL       65
REMARK 921   NORMALIZED FREE ENERGY PREDICTED BY IDOCK:   -4.33 KCAL/MOL
REMARK 922        TOTAL FREE ENERGY PREDICTED BY IDOCK:   -7.07 KCAL/MOL
REMARK 923 INTER-LIGAND FREE ENERGY PREDICTED BY IDOCK:   -5.91 KCAL/MOL
REMARK 924 INTRA-LIGAND FREE ENERGY PREDICTED BY IDOCK:   -1.16 KCAL/MOL
REMARK 927      BINDING AFFINITY PREDICTED BY RF-SCORE:    0.00 PKD
ROOT
HETATM    1  C   UNL     1      -6.949   9.354  70.416  1.00  0.00    -0.100 C  
HETATM    2  C   UNL     1      -8.455   9.396  70.561  1.00  0.00    -0.212 C  
ENDROOT
BRANCH   2   3
HETATM    3  O   UNL     1      -8.941  10.091  69.409  1.00  0.00    -0.169 OA 
BRANCH   3   4
HETATM    4  C   UNL     1      -9.986   9.571  68.729  1.00  0.00    -0.174 C  
HETATM    5  O   UNL     1     -11.055   9.214  69.208  1.00  0.00    -0.127 OA 
BRANCH   4   6
HETATM    6  C   UNL     1      -9.710   9.661  67.274  1.00  0.00    -0.213 C  
HETATM    7  C   UNL     1      -8.807   8.869  66.650  1.00  0.00    -0.129 C  
HETATM    8  C   UNL     1      -7.975   7.763  67.259  1.00  0.00    -0.118 C  
HETATM    9  N   UNL     1      -8.566   9.044  65.299  1.00  0.00    -0.165 NA 
HETATM   10  C   UNL     1      -9.090  10.058  64.521  1.00  0.00    -0.243 C  
HETATM   11  C   UNL     1      -8.549  10.109  63.112  1.00  0.00    -0.193 C  
HETATM   12  C   UNL     1     -10.016  10.905  65.037  1.00  0.00    -0.356 C  
HETATM   13  C   UNL     1     -10.483  10.754  66.494  1.00  0.00    -0.299 C  
BRANCH  12  14
HETATM   14  C   UNL     1     -10.565  11.989  64.179  1.00  0.00    -0.355 C  
HETATM   15  O   UNL     1     -10.128  13.130  64.151  1.00  0.00    -0.335 OA 
BRANCH  14  16
HETATM   16  O   UNL     1     -11.603  11.548  63.425  1.00  0.00    -0.363 OA 
HETATM   17  C   UNL     1     -12.872  12.102  63.802  1.00  0.00    -0.333 C  
ENDBRANCH  14  16
ENDBRANCH  12  14
BRANCH  13  18
HETATM   18  C   UNL     1     -10.555  12.082  67.279  1.00  0.00    -0.252 A  
HETATM   19  C   UNL     1     -11.828  12.489  67.747  1.00  0.00    -0.375 A  
HETATM   20  C   UNL     1     -11.982  13.599  68.578  1.00  0.00    -0.396 A  
HETATM   21  C   UNL     1      -9.436  12.860  67.642  1.00  0.00    -0.197 A  
HETATM   22  C   UNL     1      -9.600  13.976  68.487  1.00  0.00    -0.201 A  
HETATM   23 CL   UNL     1      -7.848  12.435  67.085  1.00  0.00    -0.163 Cl 
HETATM   24 CL   UNL     1      -8.266  14.936  69.035  1.00  0.00    -0.170 Cl 
HETATM   25  C   UNL     1     -10.868  14.334  68.957  1.00  0.00    -0.274 A  
ENDBRANCH  13  18
ENDBRANCH   4   6
ENDBRANCH   3   4
ENDBRANCH   2   3
TORSDOF 6
ENDMDL
MODEL       66
REMARK 921   NORMALIZED FREE ENERGY PREDICTED BY IDOCK:   -4.32 KCAL/MOL
REMARK 922        TOTAL FREE ENERGY PREDICTED BY IDOCK:   -7.06 KCAL/MOL
REMARK 923 INTER-LIGAND FREE ENERGY PREDICTED BY IDOCK:   -6.41 KCAL/MOL
REMARK 924 INTRA-LIGAND FREE ENERGY PREDICTED BY IDOCK:   -0.65 KCAL/MOL
REMARK 927      BINDING AFFINITY PREDICTED BY RF-SCORE:    0.00 PKD
ROOT
HETATM    1  C   UNL     1     -11.759  16.083  71.747  1.00  0.00    -0.593 C  
HETATM    2  C   UNL     1     -12.124  14.618  71.637  1.00  0.00    -0.335 C  
ENDROOT
BRANCH   2   3
HETATM    3  O   UNL     1     -11.316  14.090  70.582  1.00  0.00    -0.045 OA 
BRANCH   3   4
HETATM    4  C   UNL     1     -11.791  14.127  69.318  1.00  0.00    -0.338 C  
HETATM    5  O   UNL     1     -12.240  15.111  68.743  1.00  0.00    -0.204 OA 
BRANCH   4   6
HETATM    6  C   UNL     1     -11.523  12.825  68.661  1.00  0.00    -0.341 C  
HETATM    7  C   UNL     1     -11.981  11.649  69.152  1.00  0.00    -0.313 C  
HETATM    8  C   UNL     1     -12.847  11.436  70.373  1.00  0.00    -0.067 C  
HETATM    9  N   UNL     1     -11.649  10.468  68.512  1.00  0.00    -0.310 NA 
HETATM   10  C   UNL     1     -10.772  10.356  67.451  1.00  0.00    -0.283 C  
HETATM   11  C   UNL     1     -10.470   8.935  67.036  1.00  0.00    -0.326 C  
HETATM   12  C   UNL     1     -10.261  11.469  66.867  1.00  0.00    -0.249 C  
HETATM   13  C   UNL     1     -10.641  12.865  67.387  1.00  0.00    -0.242 C  
BRANCH  12  14
HETATM   14  C   UNL     1      -9.318  11.322  65.726  1.00  0.00    -0.223 C  
HETATM   15  O   UNL     1      -8.275  10.687  65.775  1.00  0.00    -0.158 OA 
BRANCH  14  16
HETATM   16  O   UNL     1      -9.768  11.972  64.624  1.00  0.00    -0.196 OA 
HETATM   17  C   UNL     1     -10.732  11.229  63.864  1.00  0.00    -0.384 C  
ENDBRANCH  14  16
ENDBRANCH  12  14
BRANCH  13  18
HETATM   18  C   UNL     1      -9.447  13.832  67.543  1.00  0.00    -0.220 A  
HETATM   19  C   UNL     1      -8.401  13.435  68.411  1.00  0.00    -0.137 A  
HETATM   20  C   UNL     1      -7.220  14.169  68.519  1.00  0.00    -0.110 A  
HETATM   21  C   UNL     1      -9.282  15.026  66.810  1.00  0.00    -0.257 A  
HETATM   22  C   UNL     1      -8.082  15.758  66.921  1.00  0.00    -0.257 A  
HETATM   23 CL   UNL     1     -10.531  15.587  65.745  1.00  0.00    -0.350 Cl 
HETATM   24 CL   UNL     1      -7.777  17.193  65.999  1.00  0.00    -0.292 Cl 
HETATM   25  C   UNL     1      -7.056  15.322  67.765  1.00  0.00    -0.180 A  
ENDBRANCH  13  18
ENDBRANCH   4   6
ENDBRANCH   3   4
ENDBRANCH   2   3
TORSDOF 6
ENDMDL
MODEL       67
REMARK 921   NORMALIZED FREE ENERGY PREDICTED BY IDOCK:   -4.30 KCAL/MOL
REMARK 922        TOTAL FREE ENERGY PREDICTED BY IDOCK:   -7.03 KCAL/MOL
REMARK 923 INTER-LIGAND FREE ENERGY PREDICTED BY IDOCK:   -5.58 KCAL/MOL
REMARK 924 INTRA-LIGAND FREE ENERGY PREDICTED BY IDOCK:   -1.45 KCAL/MOL
REMARK 927      BINDING AFFINITY PREDICTED BY RF-SCORE:    0.00 PKD
ROOT
HETATM    1  C   UNL     1      -7.863   7.871  74.483  1.00  0.00    -0.270 C  
HETATM    2  C   UNL     1      -8.970   6.879  74.201  1.00  0.00    -0.191 C  
ENDROOT
BRANCH   2   3
HETATM    3  O   UNL     1     -10.113   7.659  73.840  1.00  0.00    -0.215 OA 
BRANCH   3   4
HETATM    4  C   UNL     1     -10.873   7.255  72.799  1.00  0.00    -0.314 C  
HETATM    5  O   UNL     1     -11.460   6.184  72.705  1.00  0.00    -0.276 OA 
BRANCH   4   6
HETATM    6  C   UNL     1     -11.038   8.385  71.852  1.00  0.00    -0.378 C  
HETATM    7  C   UNL     1     -12.199   9.069  71.724  1.00  0.00    -0.364 C  
HETATM    8  C   UNL     1     -13.478   8.867  72.507  1.00  0.00    -0.462 C  
HETATM    9  N   UNL     1     -12.295  10.079  70.784  1.00  0.00    -0.306 NA 
HETATM   10  C   UNL     1     -11.327  10.394  69.851  1.00  0.00    -0.302 C  
HETATM   11  C   UNL     1     -11.743  11.440  68.844  1.00  0.00    -0.409 C  
HETATM   12  C   UNL     1     -10.116   9.781  69.890  1.00  0.00    -0.288 C  
HETATM   13  C   UNL     1      -9.814   8.724  70.965  1.00  0.00    -0.293 C  
BRANCH  12  14
HETATM   14  C   UNL     1      -9.090  10.137  68.874  1.00  0.00    -0.165 C  
HETATM   15  O   UNL     1      -9.008   9.618  67.770  1.00  0.00    -0.119 OA 
BRANCH  14  16
HETATM   16  O   UNL     1      -8.265  11.115  69.323  1.00  0.00    -0.058 OA 
HETATM   17  C   UNL     1      -6.952  10.655  69.673  1.00  0.00    -0.134 C  
ENDBRANCH  14  16
ENDBRANCH  12  14
BRANCH  13  18
HETATM   18  C   UNL     1      -9.120   7.453  70.427  1.00  0.00    -0.157 A  
HETATM   19  C   UNL     1      -7.776   7.235  70.817  1.00  0.00    -0.092 A  
HETATM   20  C   UNL     1      -7.103   6.056  70.498  1.00  0.00    -0.071 A  
HETATM   21  C   UNL     1      -9.758   6.454  69.663  1.00  0.00    -0.152 A  
HETATM   22  C   UNL     1      -9.072   5.263  69.351  1.00  0.00    -0.104 A  
HETATM   23 CL   UNL     1     -11.396   6.662  69.130  1.00  0.00    -0.296 Cl 
HETATM   24 CL   UNL     1      -9.813   3.961  68.480  1.00  0.00    -0.099 Cl 
HETATM   25  C   UNL     1      -7.755   5.066  69.776  1.00  0.00    -0.064 A  
ENDBRANCH  13  18
ENDBRANCH   4   6
ENDBRANCH   3   4
ENDBRANCH   2   3
TORSDOF 6
ENDMDL
MODEL       68
REMARK 921   NORMALIZED FREE ENERGY PREDICTED BY IDOCK:   -4.29 KCAL/MOL
REMARK 922        TOTAL FREE ENERGY PREDICTED BY IDOCK:   -7.02 KCAL/MOL
REMARK 923 INTER-LIGAND FREE ENERGY PREDICTED BY IDOCK:   -5.67 KCAL/MOL
REMARK 924 INTRA-LIGAND FREE ENERGY PREDICTED BY IDOCK:   -1.34 KCAL/MOL
REMARK 927      BINDING AFFINITY PREDICTED BY RF-SCORE:    0.00 PKD
ROOT
HETATM    1  C   UNL     1      -6.239  16.333  69.178  1.00  0.00    -0.160 C  
HETATM    2  C   UNL     1      -5.424  15.066  69.319  1.00  0.00    -0.094 C  
ENDROOT
BRANCH   2   3
HETATM    3  O   UNL     1      -6.362  13.988  69.277  1.00  0.00    -0.098 OA 
BRANCH   3   4
HETATM    4  C   UNL     1      -6.545  13.331  68.112  1.00  0.00    -0.115 C  
HETATM    5  O   UNL     1      -5.900  13.490  67.083  1.00  0.00    -0.275 OA 
BRANCH   4   6
HETATM    6  C   UNL     1      -7.539  12.249  68.316  1.00  0.00    -0.133 C  
HETATM    7  C   UNL     1      -7.214  10.936  68.264  1.00  0.00    -0.084 C  
HETATM    8  C   UNL     1      -5.843  10.335  68.047  1.00  0.00    -0.041 C  
HETATM    9  N   UNL     1      -8.204   9.982  68.415  1.00  0.00    -0.104 NA 
HETATM   10  C   UNL     1      -9.557  10.244  68.502  1.00  0.00    -0.161 C  
HETATM   11  C   UNL     1     -10.434   9.015  68.510  1.00  0.00    -0.232 C  
HETATM   12  C   UNL     1     -10.001  11.525  68.575  1.00  0.00    -0.207 C  
HETATM   13  C   UNL     1      -9.004  12.696  68.551  1.00  0.00    -0.046 C  
BRANCH  12  14
HETATM   14  C   UNL     1     -11.463  11.782  68.668  1.00  0.00    -0.288 C  
HETATM   15  O   UNL     1     -12.244  11.643  67.738  1.00  0.00    -0.560 OA 
BRANCH  14  16
HETATM   16  O   UNL     1     -11.819  12.178  69.915  1.00  0.00    -0.319 OA 
HETATM   17  C   UNL     1     -12.367  11.129  70.725  1.00  0.00    -0.406 C  
ENDBRANCH  14  16
ENDBRANCH  12  14
BRANCH  13  18
HETATM   18  C   UNL     1      -9.411  13.856  67.616  1.00  0.00    -0.212 A  
HETATM   19  C   UNL     1      -9.558  13.557  66.239  1.00  0.00    -0.245 A  
HETATM   20  C   UNL     1     -10.050  14.496  65.333  1.00  0.00    -0.394 A  
HETATM   21  C   UNL     1      -9.739  15.157  68.049  1.00  0.00    -0.209 A  
HETATM   22  C   UNL     1     -10.242  16.098  67.128  1.00  0.00    -0.281 A  
HETATM   23 CL   UNL     1      -9.562  15.603  69.716  1.00  0.00    -0.260 Cl 
HETATM   24 CL   UNL     1     -10.735  17.692  67.598  1.00  0.00    -0.359 Cl 
HETATM   25  C   UNL     1     -10.404  15.762  65.780  1.00  0.00    -0.390 A  
ENDBRANCH  13  18
ENDBRANCH   4   6
ENDBRANCH   3   4
ENDBRANCH   2   3
TORSDOF 6
ENDMDL
MODEL       69
REMARK 921   NORMALIZED FREE ENERGY PREDICTED BY IDOCK:   -4.28 KCAL/MOL
REMARK 922        TOTAL FREE ENERGY PREDICTED BY IDOCK:   -7.01 KCAL/MOL
REMARK 923 INTER-LIGAND FREE ENERGY PREDICTED BY IDOCK:   -5.84 KCAL/MOL
REMARK 924 INTRA-LIGAND FREE ENERGY PREDICTED BY IDOCK:   -1.17 KCAL/MOL
REMARK 927      BINDING AFFINITY PREDICTED BY RF-SCORE:    0.00 PKD
ROOT
HETATM    1  C   UNL     1     -12.075  14.197  69.961  1.00  0.00    -0.409 C  
HETATM    2  C   UNL     1     -11.832  13.992  68.481  1.00  0.00    -0.364 C  
ENDROOT
BRANCH   2   3
HETATM    3  O   UNL     1     -10.893  12.918  68.383  1.00  0.00    -0.236 OA 
BRANCH   3   4
HETATM    4  C   UNL     1     -11.298  11.750  67.838  1.00  0.00    -0.292 C  
HETATM    5  O   UNL     1     -12.373  11.195  68.032  1.00  0.00    -0.393 OA 
BRANCH   4   6
HETATM    6  C   UNL     1     -10.307  11.320  66.821  1.00  0.00    -0.278 C  
HETATM    7  C   UNL     1     -10.504  11.485  65.491  1.00  0.00    -0.275 C  
HETATM    8  C   UNL     1     -11.683  12.143  64.810  1.00  0.00    -0.390 C  
HETATM    9  N   UNL     1      -9.558  11.014  64.599  1.00  0.00    -0.240 NA 
HETATM   10  C   UNL     1      -8.448  10.265  64.936  1.00  0.00    -0.177 C  
HETATM   11  C   UNL     1      -7.658   9.751  63.755  1.00  0.00    -0.131 C  
HETATM   12  C   UNL     1      -8.141  10.047  66.239  1.00  0.00    -0.117 C  
HETATM   13  C   UNL     1      -9.032  10.620  67.355  1.00  0.00    -0.138 C  
BRANCH  12  14
HETATM   14  C   UNL     1      -6.941   9.236  66.577  1.00  0.00    -0.081 C  
HETATM   15  O   UNL     1      -5.855   9.709  66.877  1.00  0.00    -0.050 OA 
BRANCH  14  16
HETATM   16  O   UNL     1      -7.208   7.907  66.520  1.00  0.00    -0.079 OA 
HETATM   17  C   UNL     1      -6.060   7.074  66.734  1.00  0.00    -0.037 C  
ENDBRANCH  14  16
ENDBRANCH  12  14
BRANCH  13  18
HETATM   18  C   UNL     1      -9.353   9.621  68.487  1.00  0.00    -0.138 A  
HETATM   19  C   UNL     1      -8.925   9.963  69.793  1.00  0.00    -0.242 A  
HETATM   20  C   UNL     1      -9.280   9.198  70.904  1.00  0.00    -0.326 A  
HETATM   21  C   UNL     1     -10.122   8.449  68.328  1.00  0.00    -0.199 A  
HETATM   22  C   UNL     1     -10.481   7.686  69.457  1.00  0.00    -0.227 A  
HETATM   23 CL   UNL     1     -10.661   7.954  66.755  1.00  0.00    -0.347 Cl 
HETATM   24 CL   UNL     1     -11.483   6.276  69.350  1.00  0.00    -0.463 Cl 
HETATM   25  C   UNL     1     -10.068   8.067  70.738  1.00  0.00    -0.207 A  
ENDBRANCH  13  18
ENDBRANCH   4   6
ENDBRANCH   3   4
ENDBRANCH   2   3
TORSDOF 6
ENDMDL
MODEL       70
REMARK 921   NORMALIZED FREE ENERGY PREDICTED BY IDOCK:   -4.28 KCAL/MOL
REMARK 922        TOTAL FREE ENERGY PREDICTED BY IDOCK:   -7.00 KCAL/MOL
REMARK 923 INTER-LIGAND FREE ENERGY PREDICTED BY IDOCK:   -5.79 KCAL/MOL
REMARK 924 INTRA-LIGAND FREE ENERGY PREDICTED BY IDOCK:   -1.21 KCAL/MOL
REMARK 927      BINDING AFFINITY PREDICTED BY RF-SCORE:    0.00 PKD
ROOT
HETATM    1  C   UNL     1      -7.970   6.002  67.602  1.00  0.00    -0.102 C  
HETATM    2  C   UNL     1      -7.812   5.623  69.058  1.00  0.00    -0.096 C  
ENDROOT
BRANCH   2   3
HETATM    3  O   UNL     1      -8.886   6.266  69.750  1.00  0.00    -0.138 OA 
BRANCH   3   4
HETATM    4  C   UNL     1      -8.593   7.222  70.659  1.00  0.00    -0.142 C  
HETATM    5  O   UNL     1      -7.475   7.521  71.060  1.00  0.00    -0.071 OA 
BRANCH   4   6
HETATM    6  C   UNL     1      -9.826   7.986  70.972  1.00  0.00    -0.200 C  
HETATM    7  C   UNL     1     -10.802   7.503  71.776  1.00  0.00    -0.227 C  
HETATM    8  C   UNL     1     -10.819   6.183  72.514  1.00  0.00    -0.275 C  
HETATM    9  N   UNL     1     -11.947   8.252  71.983  1.00  0.00    -0.325 NA 
HETATM   10  C   UNL     1     -12.253   9.434  71.338  1.00  0.00    -0.356 C  
HETATM   11  C   UNL     1     -13.633   9.971  71.636  1.00  0.00    -0.304 C  
HETATM   12  C   UNL     1     -11.344  10.020  70.519  1.00  0.00    -0.409 C  
HETATM   13  C   UNL     1      -9.969   9.370  70.289  1.00  0.00    -0.284 C  
BRANCH  12  14
HETATM   14  C   UNL     1     -11.698  11.293  69.835  1.00  0.00    -0.352 C  
HETATM   15  O   UNL     1     -11.553  12.401  70.329  1.00  0.00    -0.180 OA 
BRANCH  14  16
HETATM   16  O   UNL     1     -12.189  11.067  68.591  1.00  0.00    -0.571 OA 
HETATM   17  C   UNL     1     -11.725  12.000  67.604  1.00  0.00    -0.294 C  
ENDBRANCH  14  16
ENDBRANCH  12  14
BRANCH  13  18
HETATM   18  C   UNL     1      -9.522   9.334  68.812  1.00  0.00    -0.150 A  
HETATM   19  C   UNL     1     -10.370   8.666  67.895  1.00  0.00    -0.286 A  
HETATM   20  C   UNL     1     -10.129   8.691  66.521  1.00  0.00    -0.339 A  
HETATM   21  C   UNL     1      -8.388   9.999  68.301  1.00  0.00    -0.110 A  
HETATM   22  C   UNL     1      -8.155  10.024  66.911  1.00  0.00    -0.117 A  
HETATM   23 CL   UNL     1      -7.292  10.818  69.367  1.00  0.00    -0.127 Cl 
HETATM   24 CL   UNL     1      -6.825  10.880  66.204  1.00  0.00    -0.125 Cl 
HETATM   25  C   UNL     1      -9.029   9.380  66.029  1.00  0.00    -0.205 A  
ENDBRANCH  13  18
ENDBRANCH   4   6
ENDBRANCH   3   4
ENDBRANCH   2   3
TORSDOF 6
ENDMDL
MODEL       71
REMARK 921   NORMALIZED FREE ENERGY PREDICTED BY IDOCK:   -4.27 KCAL/MOL
REMARK 922        TOTAL FREE ENERGY PREDICTED BY IDOCK:   -6.99 KCAL/MOL
REMARK 923 INTER-LIGAND FREE ENERGY PREDICTED BY IDOCK:   -5.70 KCAL/MOL
REMARK 924 INTRA-LIGAND FREE ENERGY PREDICTED BY IDOCK:   -1.28 KCAL/MOL
REMARK 927      BINDING AFFINITY PREDICTED BY RF-SCORE:    0.00 PKD
ROOT
HETATM    1  C   UNL     1     -10.532   5.203  66.238  1.00  0.00    -0.341 C  
HETATM    2  C   UNL     1      -9.505   6.295  66.446  1.00  0.00    -0.133 C  
ENDROOT
BRANCH   2   3
HETATM    3  O   UNL     1     -10.243   7.515  66.545  1.00  0.00    -0.210 OA 
BRANCH   3   4
HETATM    4  C   UNL     1      -9.640   8.598  67.083  1.00  0.00    -0.173 C  
HETATM    5  O   UNL     1      -8.610   9.125  66.683  1.00  0.00    -0.124 OA 
BRANCH   4   6
HETATM    6  C   UNL     1     -10.517   9.168  68.135  1.00  0.00    -0.260 C  
HETATM    7  C   UNL     1     -11.097  10.387  68.024  1.00  0.00    -0.298 C  
HETATM    8  C   UNL     1     -11.014  11.342  66.855  1.00  0.00    -0.355 C  
HETATM    9  N   UNL     1     -11.862  10.874  69.069  1.00  0.00    -0.342 NA 
HETATM   10  C   UNL     1     -12.004  10.271  70.302  1.00  0.00    -0.264 C  
HETATM   11  C   UNL     1     -12.773  11.087  71.314  1.00  0.00    -0.537 C  
HETATM   12  C   UNL     1     -11.477   9.040  70.525  1.00  0.00    -0.248 C  
HETATM   13  C   UNL     1     -10.706   8.310  69.412  1.00  0.00    -0.160 C  
BRANCH  12  14
HETATM   14  C   UNL     1     -11.643   8.411  71.863  1.00  0.00    -0.329 C  
HETATM   15  O   UNL     1     -12.619   7.756  72.197  1.00  0.00    -0.288 OA 
BRANCH  14  16
HETATM   16  O   UNL     1     -10.571   8.646  72.658  1.00  0.00    -0.246 OA 
HETATM   17  C   UNL     1     -10.152   7.507  73.424  1.00  0.00    -0.338 C  
ENDBRANCH  14  16
ENDBRANCH  12  14
BRANCH  13  18
HETATM   18  C   UNL     1      -9.383   7.664  69.875  1.00  0.00    -0.150 A  
HETATM   19  C   UNL     1      -8.302   8.533  70.160  1.00  0.00    -0.123 A  
HETATM   20  C   UNL     1      -7.110   8.065  70.711  1.00  0.00    -0.048 A  
HETATM   21  C   UNL     1      -9.209   6.287  70.126  1.00  0.00    -0.157 A  
HETATM   22  C   UNL     1      -8.003   5.823  70.689  1.00  0.00    -0.109 A  
HETATM   23 CL   UNL     1     -10.480   5.159  69.779  1.00  0.00    -0.335 Cl 
HETATM   24 CL   UNL     1      -7.742   4.158  71.093  1.00  0.00    -0.064 Cl 
HETATM   25  C   UNL     1      -6.965   6.712  70.988  1.00  0.00    -0.067 A  
ENDBRANCH  13  18
ENDBRANCH   4   6
ENDBRANCH   3   4
ENDBRANCH   2   3
TORSDOF 6
ENDMDL
MODEL       72
REMARK 921   NORMALIZED FREE ENERGY PREDICTED BY IDOCK:   -4.26 KCAL/MOL
REMARK 922        TOTAL FREE ENERGY PREDICTED BY IDOCK:   -6.97 KCAL/MOL
REMARK 923 INTER-LIGAND FREE ENERGY PREDICTED BY IDOCK:   -5.96 KCAL/MOL
REMARK 924 INTRA-LIGAND FREE ENERGY PREDICTED BY IDOCK:   -1.01 KCAL/MOL
REMARK 927      BINDING AFFINITY PREDICTED BY RF-SCORE:    0.00 PKD
ROOT
HETATM    1  C   UNL     1      -5.391  11.188  66.148  1.00  0.00    -0.141 C  
HETATM    2  C   UNL     1      -5.203  12.077  67.358  1.00  0.00    -0.101 C  
ENDROOT
BRANCH   2   3
HETATM    3  O   UNL     1      -5.983  13.249  67.110  1.00  0.00    -0.304 OA 
BRANCH   3   4
HETATM    4  C   UNL     1      -6.954  13.582  67.987  1.00  0.00    -0.133 C  
HETATM    5  O   UNL     1      -7.645  12.802  68.631  1.00  0.00    -0.127 OA 
BRANCH   4   6
HETATM    6  C   UNL     1      -6.940  15.051  68.192  1.00  0.00    -0.130 C  
HETATM    7  C   UNL     1      -6.143  15.656  69.104  1.00  0.00    -0.112 C  
HETATM    8  C   UNL     1      -5.127  15.004  70.015  1.00  0.00    -0.100 C  
HETATM    9  N   UNL     1      -6.221  17.027  69.274  1.00  0.00    -0.208 NA 
HETATM   10  C   UNL     1      -7.144  17.854  68.667  1.00  0.00    -0.266 C  
HETATM   11  C   UNL     1      -7.107  19.288  69.140  1.00  0.00    -0.370 C  
HETATM   12  C   UNL     1      -7.987  17.361  67.725  1.00  0.00    -0.208 C  
HETATM   13  C   UNL     1      -7.932  15.875  67.332  1.00  0.00    -0.187 C  
BRANCH  12  14
HETATM   14  C   UNL     1      -8.974  18.272  67.085  1.00  0.00    -0.264 C  
HETATM   15  O   UNL     1      -9.990  18.676  67.632  1.00  0.00    -0.314 OA 
BRANCH  14  16
HETATM   16  O   UNL     1      -8.598  18.604  65.825  1.00  0.00    -0.430 OA 
HETATM   17  C   UNL     1      -7.861  19.832  65.743  1.00  0.00    -0.223 C  
ENDBRANCH  14  16
ENDBRANCH  12  14
BRANCH  13  18
HETATM   18  C   UNL     1      -9.314  15.193  67.231  1.00  0.00    -0.210 A  
HETATM   19  C   UNL     1      -9.695  14.687  65.965  1.00  0.00    -0.340 A  
HETATM   20  C   UNL     1     -10.859  13.938  65.795  1.00  0.00    -0.289 A  
HETATM   21  C   UNL     1     -10.171  14.955  68.325  1.00  0.00    -0.225 A  
HETATM   22  C   UNL     1     -11.343  14.191  68.146  1.00  0.00    -0.290 A  
HETATM   23 CL   UNL     1      -9.781  15.564  69.901  1.00  0.00    -0.259 Cl 
HETATM   24 CL   UNL     1     -12.407  13.794  69.454  1.00  0.00    -0.304 Cl 
HETATM   25  C   UNL     1     -11.676  13.679  66.887  1.00  0.00    -0.423 A  
ENDBRANCH  13  18
ENDBRANCH   4   6
ENDBRANCH   3   4
ENDBRANCH   2   3
TORSDOF 6
ENDMDL
MODEL       73
REMARK 921   NORMALIZED FREE ENERGY PREDICTED BY IDOCK:   -4.25 KCAL/MOL
REMARK 922        TOTAL FREE ENERGY PREDICTED BY IDOCK:   -6.96 KCAL/MOL
REMARK 923 INTER-LIGAND FREE ENERGY PREDICTED BY IDOCK:   -5.75 KCAL/MOL
REMARK 924 INTRA-LIGAND FREE ENERGY PREDICTED BY IDOCK:   -1.21 KCAL/MOL
REMARK 927      BINDING AFFINITY PREDICTED BY RF-SCORE:    0.00 PKD
ROOT
HETATM    1  C   UNL     1      -6.084  11.796  68.905  1.00  0.00    -0.054 C  
HETATM    2  C   UNL     1      -5.237  12.949  69.397  1.00  0.00    -0.075 C  
ENDROOT
BRANCH   2   3
HETATM    3  O   UNL     1      -5.868  14.136  68.909  1.00  0.00    -0.082 OA 
BRANCH   3   4
HETATM    4  C   UNL     1      -6.683  14.826  69.735  1.00  0.00    -0.173 C  
HETATM    5  O   UNL     1      -6.963  14.528  70.890  1.00  0.00     0.335 OA 
BRANCH   4   6
HETATM    6  C   UNL     1      -7.056  16.108  69.090  1.00  0.00    -0.209 C  
HETATM    7  C   UNL     1      -6.452  17.282  69.391  1.00  0.00    -0.235 C  
HETATM    8  C   UNL     1      -5.310  17.509  70.356  1.00  0.00    -0.263 C  
HETATM    9  N   UNL     1      -6.887  18.447  68.784  1.00  0.00    -0.263 NA 
HETATM   10  C   UNL     1      -7.989  18.553  67.959  1.00  0.00    -0.276 C  
HETATM   11  C   UNL     1      -8.332  19.966  67.550  1.00  0.00    -0.366 C  
HETATM   12  C   UNL     1      -8.666  17.440  67.578  1.00  0.00    -0.221 C  
HETATM   13  C   UNL     1      -8.221  16.052  68.069  1.00  0.00    -0.151 C  
BRANCH  12  14
HETATM   14  C   UNL     1      -9.850  17.579  66.689  1.00  0.00    -0.306 C  
HETATM   15  O   UNL     1     -10.854  18.214  66.978  1.00  0.00    -0.303 OA 
BRANCH  14  16
HETATM   16  O   UNL     1      -9.670  16.923  65.516  1.00  0.00    -0.541 OA 
HETATM   17  C   UNL     1     -10.672  15.932  65.244  1.00  0.00    -0.424 C  
ENDBRANCH  14  16
ENDBRANCH  12  14
BRANCH  13  18
HETATM   18  C   UNL     1      -9.375  15.151  68.559  1.00  0.00    -0.192 A  
HETATM   19  C   UNL     1     -10.260  15.699  69.519  1.00  0.00    -0.277 A  
HETATM   20  C   UNL     1     -11.409  15.021  69.927  1.00  0.00    -0.307 A  
HETATM   21  C   UNL     1      -9.663  13.869  68.047  1.00  0.00    -0.226 A  
HETATM   22  C   UNL     1     -10.831  13.195  68.459  1.00  0.00    -0.262 A  
HETATM   23 CL   UNL     1      -8.612  13.126  66.885  1.00  0.00    -0.165 Cl 
HETATM   24 CL   UNL     1     -11.290  11.650  67.822  1.00  0.00    -0.334 Cl 
HETATM   25  C   UNL     1     -11.700  13.776  69.388  1.00  0.00    -0.379 A  
ENDBRANCH  13  18
ENDBRANCH   4   6
ENDBRANCH   3   4
ENDBRANCH   2   3
TORSDOF 6
ENDMDL
MODEL       74
REMARK 921   NORMALIZED FREE ENERGY PREDICTED BY IDOCK:   -4.24 KCAL/MOL
REMARK 922        TOTAL FREE ENERGY PREDICTED BY IDOCK:   -6.95 KCAL/MOL
REMARK 923 INTER-LIGAND FREE ENERGY PREDICTED BY IDOCK:   -6.45 KCAL/MOL
REMARK 924 INTRA-LIGAND FREE ENERGY PREDICTED BY IDOCK:   -0.50 KCAL/MOL
REMARK 927      BINDING AFFINITY PREDICTED BY RF-SCORE:    0.00 PKD
ROOT
HETATM    1  C   UNL     1      -9.792   7.270  69.666  1.00  0.00    -0.163 C  
HETATM    2  C   UNL     1      -9.126   8.612  69.878  1.00  0.00    -0.151 C  
ENDROOT
BRANCH   2   3
HETATM    3  O   UNL     1      -9.228   9.304  68.631  1.00  0.00    -0.135 OA 
BRANCH   3   4
HETATM    4  C   UNL     1     -10.452   9.661  68.185  1.00  0.00    -0.222 C  
HETATM    5  O   UNL     1     -11.232   8.950  67.564  1.00  0.00     0.153 OA 
BRANCH   4   6
HETATM    6  C   UNL     1     -10.788  11.004  68.718  1.00  0.00    -0.253 C  
HETATM    7  C   UNL     1     -11.433  11.184  69.895  1.00  0.00    -0.306 C  
HETATM    8  C   UNL     1     -11.876  10.120  70.875  1.00  0.00    -0.468 C  
HETATM    9  N   UNL     1     -11.758  12.465  70.305  1.00  0.00    -0.208 NA 
HETATM   10  C   UNL     1     -11.587  13.610  69.552  1.00  0.00    -0.301 C  
HETATM   11  C   UNL     1     -12.163  14.860  70.174  1.00  0.00    -0.387 C  
HETATM   12  C   UNL     1     -10.940  13.553  68.361  1.00  0.00    -0.289 C  
HETATM   13  C   UNL     1     -10.403  12.214  67.829  1.00  0.00    -0.217 C  
BRANCH  12  14
HETATM   14  C   UNL     1     -10.769  14.800  67.568  1.00  0.00    -0.269 C  
HETATM   15  O   UNL     1     -11.694  15.462  67.120  1.00  0.00    -0.157 OA 
BRANCH  14  16
HETATM   16  O   UNL     1      -9.459  15.115  67.416  1.00  0.00    -0.201 OA 
HETATM   17  C   UNL     1      -9.143  15.695  66.142  1.00  0.00    -0.342 C  
ENDBRANCH  14  16
ENDBRANCH  12  14
BRANCH  13  18
HETATM   18  C   UNL     1     -10.706  11.955  66.338  1.00  0.00    -0.303 A  
HETATM   19  C   UNL     1     -12.023  12.221  65.889  1.00  0.00    -0.358 A  
HETATM   20  C   UNL     1     -12.366  12.149  64.539  1.00  0.00    -0.395 A  
HETATM   21  C   UNL     1      -9.746  11.569  65.380  1.00  0.00    -0.233 A  
HETATM   22  C   UNL     1     -10.100  11.505  64.017  1.00  0.00    -0.321 A  
HETATM   23 CL   UNL     1      -8.119  11.204  65.859  1.00  0.00    -0.078 Cl 
HETATM   24 CL   UNL     1      -8.958  11.110  62.775  1.00  0.00    -0.324 Cl 
HETATM   25  C   UNL     1     -11.401  11.803  63.602  1.00  0.00    -0.525 A  
ENDBRANCH  13  18
ENDBRANCH   4   6
ENDBRANCH   3   4
ENDBRANCH   2   3
TORSDOF 6
ENDMDL
MODEL       75
REMARK 921   NORMALIZED FREE ENERGY PREDICTED BY IDOCK:   -4.23 KCAL/MOL
REMARK 922        TOTAL FREE ENERGY PREDICTED BY IDOCK:   -6.93 KCAL/MOL
REMARK 923 INTER-LIGAND FREE ENERGY PREDICTED BY IDOCK:   -6.32 KCAL/MOL
REMARK 924 INTRA-LIGAND FREE ENERGY PREDICTED BY IDOCK:   -0.62 KCAL/MOL
REMARK 927      BINDING AFFINITY PREDICTED BY RF-SCORE:    0.00 PKD
ROOT
HETATM    1  C   UNL     1     -12.538   9.414  71.495  1.00  0.00    -0.447 C  
HETATM    2  C   UNL     1     -11.831  10.652  70.987  1.00  0.00    -0.296 C  
ENDROOT
BRANCH   2   3
HETATM    3  O   UNL     1     -11.029  10.221  69.884  1.00  0.00    -0.260 OA 
BRANCH   3   4
HETATM    4  C   UNL     1     -11.521  10.350  68.633  1.00  0.00    -0.172 C  
HETATM    5  O   UNL     1     -12.409  11.116  68.281  1.00  0.00    -0.532 OA 
BRANCH   4   6
HETATM    6  C   UNL     1     -10.695   9.543  67.702  1.00  0.00    -0.314 C  
HETATM    7  C   UNL     1     -10.280   8.287  67.991  1.00  0.00    -0.214 C  
HETATM    8  C   UNL     1     -10.592   7.477  69.230  1.00  0.00    -0.215 C  
HETATM    9  N   UNL     1      -9.470   7.614  67.094  1.00  0.00    -0.147 NA 
HETATM   10  C   UNL     1      -8.930   8.156  65.945  1.00  0.00    -0.151 C  
HETATM   11  C   UNL     1      -7.960   7.252  65.222  1.00  0.00    -0.127 C  
HETATM   12  C   UNL     1      -9.286   9.404  65.547  1.00  0.00    -0.292 C  
HETATM   13  C   UNL     1     -10.282  10.231  66.376  1.00  0.00    -0.290 C  
BRANCH  12  14
HETATM   14  C   UNL     1      -8.689   9.966  64.306  1.00  0.00    -0.209 C  
HETATM   15  O   UNL     1      -9.252   9.985  63.221  1.00  0.00    -0.262 OA 
BRANCH  14  16
HETATM   16  O   UNL     1      -7.449  10.465  64.533  1.00  0.00    -0.120 OA 
HETATM   17  C   UNL     1      -6.522  10.230  63.464  1.00  0.00    -0.105 C  
ENDBRANCH  14  16
ENDBRANCH  12  14
BRANCH  13  18
HETATM   18  C   UNL     1      -9.861  11.700  66.595  1.00  0.00    -0.223 A  
HETATM   19  C   UNL     1      -8.780  11.939  67.479  1.00  0.00    -0.163 A  
HETATM   20  C   UNL     1      -8.235  13.212  67.643  1.00  0.00    -0.175 A  
HETATM   21  C   UNL     1     -10.408  12.802  65.905  1.00  0.00    -0.283 A  
HETATM   22  C   UNL     1      -9.847  14.084  66.072  1.00  0.00    -0.297 A  
HETATM   23 CL   UNL     1     -11.748  12.589  64.824  1.00  0.00    -0.388 Cl 
HETATM   24 CL   UNL     1     -10.417  15.472  65.205  1.00  0.00    -0.432 Cl 
HETATM   25  C   UNL     1      -8.760  14.282  66.930  1.00  0.00    -0.202 A  
ENDBRANCH  13  18
ENDBRANCH   4   6
ENDBRANCH   3   4
ENDBRANCH   2   3
TORSDOF 6
ENDMDL
MODEL       76
REMARK 921   NORMALIZED FREE ENERGY PREDICTED BY IDOCK:   -4.22 KCAL/MOL
REMARK 922        TOTAL FREE ENERGY PREDICTED BY IDOCK:   -6.92 KCAL/MOL
REMARK 923 INTER-LIGAND FREE ENERGY PREDICTED BY IDOCK:   -5.39 KCAL/MOL
REMARK 924 INTRA-LIGAND FREE ENERGY PREDICTED BY IDOCK:   -1.53 KCAL/MOL
REMARK 927      BINDING AFFINITY PREDICTED BY RF-SCORE:    0.00 PKD
ROOT
HETATM    1  C   UNL     1      -8.562   4.185  69.103  1.00  0.00    -0.112 C  
HETATM    2  C   UNL     1      -8.748   4.258  70.603  1.00  0.00    -0.083 C  
ENDROOT
BRANCH   2   3
HETATM    3  O   UNL     1      -9.444   5.482  70.853  1.00  0.00    -0.159 OA 
BRANCH   3   4
HETATM    4  C   UNL     1      -8.730   6.582  71.175  1.00  0.00    -0.138 C  
HETATM    5  O   UNL     1      -7.517   6.635  71.339  1.00  0.00    -0.085 OA 
BRANCH   4   6
HETATM    6  C   UNL     1      -9.618   7.769  71.126  1.00  0.00    -0.174 C  
HETATM    7  C   UNL     1     -10.481   8.081  72.122  1.00  0.00    -0.265 C  
HETATM    8  C   UNL     1     -10.672   7.354  73.434  1.00  0.00    -0.407 C  
HETATM    9  N   UNL     1     -11.314   9.176  71.984  1.00  0.00    -0.340 NA 
HETATM   10  C   UNL     1     -11.440   9.943  70.843  1.00  0.00    -0.376 C  
HETATM   11  C   UNL     1     -12.530  10.986  70.907  1.00  0.00    -0.509 C  
HETATM   12  C   UNL     1     -10.619   9.731  69.784  1.00  0.00    -0.285 C  
HETATM   13  C   UNL     1      -9.548   8.628  69.838  1.00  0.00    -0.174 C  
BRANCH  12  14
HETATM   14  C   UNL     1     -10.774  10.570  68.565  1.00  0.00    -0.224 C  
HETATM   15  O   UNL     1     -11.639  10.398  67.719  1.00  0.00    -0.405 OA 
BRANCH  14  16
HETATM   16  O   UNL     1      -9.843  11.554  68.519  1.00  0.00    -0.192 OA 
HETATM   17  C   UNL     1     -10.357  12.821  68.084  1.00  0.00    -0.239 C  
ENDBRANCH  14  16
ENDBRANCH  12  14
BRANCH  13  18
HETATM   18  C   UNL     1      -9.470   7.757  68.566  1.00  0.00    -0.148 A  
HETATM   19  C   UNL     1     -10.657   7.104  68.153  1.00  0.00    -0.241 A  
HETATM   20  C   UNL     1     -10.729   6.404  66.949  1.00  0.00    -0.408 A  
HETATM   21  C   UNL     1      -8.332   7.646  67.739  1.00  0.00    -0.118 A  
HETATM   22  C   UNL     1      -8.416   6.942  66.520  1.00  0.00    -0.125 A  
HETATM   23 CL   UNL     1      -6.836   8.398  68.191  1.00  0.00    -0.068 Cl 
HETATM   24 CL   UNL     1      -7.083   6.824  65.418  1.00  0.00    -0.062 Cl 
HETATM   25  C   UNL     1      -9.612   6.334  66.127  1.00  0.00    -0.059 A  
ENDBRANCH  13  18
ENDBRANCH   4   6
ENDBRANCH   3   4
ENDBRANCH   2   3
TORSDOF 6
ENDMDL
MODEL       77
REMARK 921   NORMALIZED FREE ENERGY PREDICTED BY IDOCK:   -4.22 KCAL/MOL
REMARK 922        TOTAL FREE ENERGY PREDICTED BY IDOCK:   -6.92 KCAL/MOL
REMARK 923 INTER-LIGAND FREE ENERGY PREDICTED BY IDOCK:   -5.92 KCAL/MOL
REMARK 924 INTRA-LIGAND FREE ENERGY PREDICTED BY IDOCK:   -1.00 KCAL/MOL
REMARK 927      BINDING AFFINITY PREDICTED BY RF-SCORE:    0.00 PKD
ROOT
HETATM    1  C   UNL     1      -5.517  10.945  70.819  1.00  0.00    -0.118 C  
HETATM    2  C   UNL     1      -6.676  10.639  69.895  1.00  0.00    -0.147 C  
ENDROOT
BRANCH   2   3
HETATM    3  O   UNL     1      -6.954  11.855  69.196  1.00  0.00    -0.105 OA 
BRANCH   3   4
HETATM    4  C   UNL     1      -6.780  11.890  67.857  1.00  0.00    -0.079 C  
HETATM    5  O   UNL     1      -6.048  11.157  67.204  1.00  0.00    -0.064 OA 
BRANCH   4   6
HETATM    6  C   UNL     1      -7.754  12.841  67.266  1.00  0.00    -0.129 C  
HETATM    7  C   UNL     1      -7.629  14.184  67.383  1.00  0.00    -0.158 C  
HETATM    8  C   UNL     1      -6.513  14.949  68.059  1.00  0.00    -0.161 C  
HETATM    9  N   UNL     1      -8.603  15.007  66.848  1.00  0.00    -0.240 NA 
HETATM   10  C   UNL     1      -9.790  14.578  66.288  1.00  0.00    -0.304 C  
HETATM   11  C   UNL     1     -10.744  15.688  65.916  1.00  0.00    -0.336 C  
HETATM   12  C   UNL     1     -10.020  13.253  66.107  1.00  0.00    -0.295 C  
HETATM   13  C   UNL     1      -8.969  12.215  66.535  1.00  0.00    -0.179 C  
BRANCH  12  14
HETATM   14  C   UNL     1     -11.307  12.816  65.502  1.00  0.00    -0.312 C  
HETATM   15  O   UNL     1     -12.354  12.704  66.122  1.00  0.00    -0.570 OA 
BRANCH  14  16
HETATM   16  O   UNL     1     -11.172  12.568  64.176  1.00  0.00    -0.330 OA 
HETATM   17  C   UNL     1     -12.418  12.391  63.487  1.00  0.00    -0.500 C  
ENDBRANCH  14  16
ENDBRANCH  12  14
BRANCH  13  18
HETATM   18  C   UNL     1      -9.546  11.006  67.302  1.00  0.00    -0.183 A  
HETATM   19  C   UNL     1     -10.007  11.237  68.622  1.00  0.00    -0.210 A  
HETATM   20  C   UNL     1     -10.666  10.248  69.351  1.00  0.00    -0.272 A  
HETATM   21  C   UNL     1      -9.734   9.722  66.750  1.00  0.00    -0.194 A  
HETATM   22  C   UNL     1     -10.407   8.731  67.492  1.00  0.00    -0.268 A  
HETATM   23 CL   UNL     1      -9.174   9.360  65.149  1.00  0.00    -0.293 Cl 
HETATM   24 CL   UNL     1     -10.740   7.154  66.854  1.00  0.00    -0.402 Cl 
HETATM   25  C   UNL     1     -10.877   8.999  68.781  1.00  0.00    -0.067 A  
ENDBRANCH  13  18
ENDBRANCH   4   6
ENDBRANCH   3   4
ENDBRANCH   2   3
TORSDOF 6
ENDMDL
MODEL       78
REMARK 921   NORMALIZED FREE ENERGY PREDICTED BY IDOCK:   -4.19 KCAL/MOL
REMARK 922        TOTAL FREE ENERGY PREDICTED BY IDOCK:   -6.89 KCAL/MOL
REMARK 923 INTER-LIGAND FREE ENERGY PREDICTED BY IDOCK:   -5.43 KCAL/MOL
REMARK 924 INTRA-LIGAND FREE ENERGY PREDICTED BY IDOCK:   -1.45 KCAL/MOL
REMARK 927      BINDING AFFINITY PREDICTED BY RF-SCORE:    0.00 PKD
ROOT
HETATM    1  C   UNL     1      -6.876   8.944  67.127  1.00  0.00    -0.074 C  
HETATM    2  C   UNL     1      -5.997   9.124  68.345  1.00  0.00    -0.045 C  
ENDROOT
BRANCH   2   3
HETATM    3  O   UNL     1      -6.772   8.672  69.459  1.00  0.00    -0.040 OA 
BRANCH   3   4
HETATM    4  C   UNL     1      -7.313   9.590  70.289  1.00  0.00    -0.133 C  
HETATM    5  O   UNL     1      -7.277  10.806  70.145  1.00  0.00    -0.155 OA 
BRANCH   4   6
HETATM    6  C   UNL     1      -8.121   8.894  71.321  1.00  0.00    -0.185 C  
HETATM    7  C   UNL     1      -7.565   8.224  72.357  1.00  0.00    -0.120 C  
HETATM    8  C   UNL     1      -6.094   8.092  72.685  1.00  0.00    -0.056 C  
HETATM    9  N   UNL     1      -8.381   7.556  73.253  1.00  0.00    -0.118 NA 
HETATM   10  C   UNL     1      -9.747   7.405  73.126  1.00  0.00    -0.231 C  
HETATM   11  C   UNL     1     -10.376   6.504  74.163  1.00  0.00    -0.351 C  
HETATM   12  C   UNL     1     -10.415   8.043  72.132  1.00  0.00    -0.329 C  
HETATM   13  C   UNL     1      -9.658   8.931  71.130  1.00  0.00    -0.342 C  
BRANCH  12  14
HETATM   14  C   UNL     1     -11.887   7.864  72.016  1.00  0.00    -0.318 C  
HETATM   15  O   UNL     1     -12.422   6.965  71.383  1.00  0.00    -0.357 OA 
BRANCH  14  16
HETATM   16  O   UNL     1     -12.559   8.816  72.709  1.00  0.00    -0.316 OA 
HETATM   17  C   UNL     1     -13.095   9.864  71.889  1.00  0.00    -0.459 C  
ENDBRANCH  14  16
ENDBRANCH  12  14
BRANCH  13  18
HETATM   18  C   UNL     1     -10.063   8.712  69.656  1.00  0.00    -0.201 A  
HETATM   19  C   UNL     1     -10.495   9.848  68.929  1.00  0.00    -0.229 A  
HETATM   20  C   UNL     1     -10.755   9.786  67.560  1.00  0.00    -0.327 A  
HETATM   21  C   UNL     1      -9.940   7.490  68.964  1.00  0.00    -0.175 A  
HETATM   22  C   UNL     1     -10.198   7.438  67.579  1.00  0.00    -0.224 A  
HETATM   23 CL   UNL     1      -9.438   6.052  69.795  1.00  0.00    -0.164 Cl 
HETATM   24 CL   UNL     1      -9.997   5.991  66.647  1.00  0.00    -0.205 Cl 
HETATM   25  C   UNL     1     -10.594   8.584  66.883  1.00  0.00    -0.279 A  
ENDBRANCH  13  18
ENDBRANCH   4   6
ENDBRANCH   3   4
ENDBRANCH   2   3
TORSDOF 6
ENDMDL
MODEL       79
REMARK 921   NORMALIZED FREE ENERGY PREDICTED BY IDOCK:   -4.19 KCAL/MOL
REMARK 922        TOTAL FREE ENERGY PREDICTED BY IDOCK:   -6.88 KCAL/MOL
REMARK 923 INTER-LIGAND FREE ENERGY PREDICTED BY IDOCK:   -5.94 KCAL/MOL
REMARK 924 INTRA-LIGAND FREE ENERGY PREDICTED BY IDOCK:   -0.94 KCAL/MOL
REMARK 927      BINDING AFFINITY PREDICTED BY RF-SCORE:    0.00 PKD
ROOT
HETATM    1  C   UNL     1      -9.474   8.110  72.471  1.00  0.00    -0.339 C  
HETATM    2  C   UNL     1     -10.812   8.670  72.039  1.00  0.00    -0.360 C  
ENDROOT
BRANCH   2   3
HETATM    3  O   UNL     1     -10.524   9.644  71.033  1.00  0.00    -0.304 OA 
BRANCH   3   4
HETATM    4  C   UNL     1     -11.525  10.065  70.230  1.00  0.00    -0.300 C  
HETATM    5  O   UNL     1     -12.101   9.396  69.381  1.00  0.00     0.618 OA 
BRANCH   4   6
HETATM    6  C   UNL     1     -11.951  11.421  70.655  1.00  0.00    -0.413 C  
HETATM    7  C   UNL     1     -12.959  11.630  71.535  1.00  0.00    -0.358 C  
HETATM    8  C   UNL     1     -13.780  10.587  72.259  1.00  0.00     0.052 C  
HETATM    9  N   UNL     1     -13.333  12.925  71.846  1.00  0.00    -0.469 NA 
HETATM   10  C   UNL     1     -12.841  14.064  71.241  1.00  0.00    -0.358 C  
HETATM   11  C   UNL     1     -13.526  15.343  71.662  1.00  0.00    -0.593 C  
HETATM   12  C   UNL     1     -11.819  13.978  70.353  1.00  0.00    -0.356 C  
HETATM   13  C   UNL     1     -11.206  12.612  70.001  1.00  0.00     0.225 C  
BRANCH  12  14
HETATM   14  C   UNL     1     -11.306  15.220  69.714  1.00  0.00    -0.289 C  
HETATM   15  O   UNL     1     -11.910  15.853  68.861  1.00  0.00    -0.397 OA 
BRANCH  14  16
HETATM   16  O   UNL     1     -10.090  15.565  70.206  1.00  0.00    -0.270 OA 
HETATM   17  C   UNL     1      -9.125  15.893  69.196  1.00  0.00    -0.255 C  
ENDBRANCH  14  16
ENDBRANCH  12  14
BRANCH  13  18
HETATM   18  C   UNL     1     -10.977  12.390  68.490  1.00  0.00    -0.277 A  
HETATM   19  C   UNL     1     -12.019  12.777  67.613  1.00  0.00    -0.331 A  
HETATM   20  C   UNL     1     -11.861  12.744  66.227  1.00  0.00    -0.485 A  
HETATM   21  C   UNL     1      -9.772  11.924  67.923  1.00  0.00    -0.192 A  
HETATM   22  C   UNL     1      -9.619  11.900  66.522  1.00  0.00    -0.214 A  
HETATM   23 CL   UNL     1      -8.461  11.411  68.935  1.00  0.00    -0.083 Cl 
HETATM   24 CL   UNL     1      -8.145  11.410  65.753  1.00  0.00     0.105 Cl 
HETATM   25  C   UNL     1     -10.657  12.318  65.683  1.00  0.00    -0.295 A  
ENDBRANCH  13  18
ENDBRANCH   4   6
ENDBRANCH   3   4
ENDBRANCH   2   3
TORSDOF 6
ENDMDL
MODEL       80
REMARK 921   NORMALIZED FREE ENERGY PREDICTED BY IDOCK:   -4.18 KCAL/MOL
REMARK 922        TOTAL FREE ENERGY PREDICTED BY IDOCK:   -6.87 KCAL/MOL
REMARK 923 INTER-LIGAND FREE ENERGY PREDICTED BY IDOCK:   -5.68 KCAL/MOL
REMARK 924 INTRA-LIGAND FREE ENERGY PREDICTED BY IDOCK:   -1.18 KCAL/MOL
REMARK 927      BINDING AFFINITY PREDICTED BY RF-SCORE:    0.00 PKD
ROOT
HETATM    1  C   UNL     1     -11.391  14.852  70.095  1.00  0.00    -0.299 C  
HETATM    2  C   UNL     1     -12.230  13.592  70.070  1.00  0.00    -0.329 C  
ENDROOT
BRANCH   2   3
HETATM    3  O   UNL     1     -11.318  12.517  69.832  1.00  0.00    -0.137 OA 
BRANCH   3   4
HETATM    4  C   UNL     1     -11.795  11.362  69.319  1.00  0.00    -0.349 C  
HETATM    5  O   UNL     1     -12.974  11.044  69.226  1.00  0.00    -0.024 OA 
BRANCH   4   6
HETATM    6  C   UNL     1     -10.674  10.601  68.714  1.00  0.00    -0.249 C  
HETATM    7  C   UNL     1      -9.878   9.775  69.433  1.00  0.00    -0.205 C  
HETATM    8  C   UNL     1      -9.988   9.440  70.904  1.00  0.00    -0.353 C  
HETATM    9  N   UNL     1      -8.821   9.136  68.810  1.00  0.00    -0.132 NA 
HETATM   10  C   UNL     1      -8.412   9.354  67.510  1.00  0.00    -0.122 C  
HETATM   11  C   UNL     1      -7.139   8.639  67.125  1.00  0.00    -0.075 C  
HETATM   12  C   UNL     1      -9.141  10.153  66.690  1.00  0.00    -0.164 C  
HETATM   13  C   UNL     1     -10.421  10.834  67.203  1.00  0.00    -0.285 C  
BRANCH  12  14
HETATM   14  C   UNL     1      -8.681  10.373  65.293  1.00  0.00    -0.179 C  
HETATM   15  O   UNL     1      -7.653  10.963  64.993  1.00  0.00     0.085 OA 
BRANCH  14  16
HETATM   16  O   UNL     1      -9.538   9.826  64.396  1.00  0.00    -0.258 OA 
HETATM   17  C   UNL     1      -9.348  10.290  63.051  1.00  0.00    -0.310 C  
ENDBRANCH  14  16
ENDBRANCH  12  14
BRANCH  13  18
HETATM   18  C   UNL     1     -10.546  12.324  66.819  1.00  0.00    -0.251 A  
HETATM   19  C   UNL     1     -11.728  12.723  66.150  1.00  0.00    -0.458 A  
HETATM   20  C   UNL     1     -11.999  14.064  65.878  1.00  0.00    -0.424 A  
HETATM   21  C   UNL     1      -9.615  13.323  67.173  1.00  0.00    -0.240 A  
HETATM   22  C   UNL     1      -9.901  14.676  66.901  1.00  0.00    -0.249 A  
HETATM   23 CL   UNL     1      -8.134  12.905  67.974  1.00  0.00    -0.148 Cl 
HETATM   24 CL   UNL     1      -8.842  15.966  67.370  1.00  0.00    -0.194 Cl 
HETATM   25  C   UNL     1     -11.092  15.041  66.265  1.00  0.00    -0.334 A  
ENDBRANCH  13  18
ENDBRANCH   4   6
ENDBRANCH   3   4
ENDBRANCH   2   3
TORSDOF 6
ENDMDL
MODEL       81
REMARK 921   NORMALIZED FREE ENERGY PREDICTED BY IDOCK:   -4.17 KCAL/MOL
REMARK 922        TOTAL FREE ENERGY PREDICTED BY IDOCK:   -6.86 KCAL/MOL
REMARK 923 INTER-LIGAND FREE ENERGY PREDICTED BY IDOCK:   -5.88 KCAL/MOL
REMARK 924 INTRA-LIGAND FREE ENERGY PREDICTED BY IDOCK:   -0.98 KCAL/MOL
REMARK 927      BINDING AFFINITY PREDICTED BY RF-SCORE:    0.00 PKD
ROOT
HETATM    1  C   UNL     1     -12.385  15.167  64.345  1.00  0.00    -0.225 C  
HETATM    2  C   UNL     1     -12.119  13.786  63.787  1.00  0.00    -0.336 C  
ENDROOT
BRANCH   2   3
HETATM    3  O   UNL     1     -11.000  13.276  64.518  1.00  0.00    -0.343 OA 
BRANCH   3   4
HETATM    4  C   UNL     1     -11.209  12.300  65.428  1.00  0.00    -0.328 C  
HETATM    5  O   UNL     1     -12.297  11.877  65.799  1.00  0.00    -0.343 OA 
BRANCH   4   6
HETATM    6  C   UNL     1      -9.907  11.684  65.785  1.00  0.00    -0.268 C  
HETATM    7  C   UNL     1      -9.269  10.800  64.981  1.00  0.00    -0.211 C  
HETATM    8  C   UNL     1      -9.702  10.322  63.613  1.00  0.00    -0.276 C  
HETATM    9  N   UNL     1      -8.083  10.229  65.403  1.00  0.00    -0.144 NA 
HETATM   10  C   UNL     1      -7.523  10.388  66.655  1.00  0.00    -0.114 C  
HETATM   11  C   UNL     1      -6.302   9.535  66.908  1.00  0.00    -0.066 C  
HETATM   12  C   UNL     1      -8.067  11.259  67.541  1.00  0.00    -0.124 C  
HETATM   13  C   UNL     1      -9.320  12.069  67.166  1.00  0.00    -0.187 C  
BRANCH  12  14
HETATM   14  C   UNL     1      -7.446  11.412  68.884  1.00  0.00    -0.113 C  
HETATM   15  O   UNL     1      -7.511  10.573  69.770  1.00  0.00    -0.154 OA 
BRANCH  14  16
HETATM   16  O   UNL     1      -6.790  12.594  68.995  1.00  0.00    -0.097 OA 
HETATM   17  C   UNL     1      -5.362  12.476  68.930  1.00  0.00    -0.058 C  
ENDBRANCH  14  16
ENDBRANCH  12  14
BRANCH  13  18
HETATM   18  C   UNL     1     -10.404  12.105  68.265  1.00  0.00    -0.218 A  
HETATM   19  C   UNL     1     -10.807  10.866  68.819  1.00  0.00    -0.251 A  
HETATM   20  C   UNL     1     -11.678  10.797  69.906  1.00  0.00    -0.412 A  
HETATM   21  C   UNL     1     -10.945  13.285  68.818  1.00  0.00    -0.260 A  
HETATM   22  C   UNL     1     -11.820  13.206  69.921  1.00  0.00    -0.308 A  
HETATM   23 CL   UNL     1     -10.516  14.838  68.176  1.00  0.00    -0.237 Cl 
HETATM   24 CL   UNL     1     -12.467  14.612  70.701  1.00  0.00    -0.384 Cl 
HETATM   25  C   UNL     1     -12.174  11.967  70.464  1.00  0.00    -0.426 A  
ENDBRANCH  13  18
ENDBRANCH   4   6
ENDBRANCH   3   4
ENDBRANCH   2   3
TORSDOF 6
ENDMDL
MODEL       82
REMARK 921   NORMALIZED FREE ENERGY PREDICTED BY IDOCK:   -4.14 KCAL/MOL
REMARK 922        TOTAL FREE ENERGY PREDICTED BY IDOCK:   -6.81 KCAL/MOL
REMARK 923 INTER-LIGAND FREE ENERGY PREDICTED BY IDOCK:   -5.61 KCAL/MOL
REMARK 924 INTRA-LIGAND FREE ENERGY PREDICTED BY IDOCK:   -1.21 KCAL/MOL
REMARK 927      BINDING AFFINITY PREDICTED BY RF-SCORE:    0.00 PKD
ROOT
HETATM    1  C   UNL     1      -6.994  17.881  66.191  1.00  0.00    -0.336 C  
HETATM    2  C   UNL     1      -5.940  16.913  66.684  1.00  0.00    -0.128 C  
ENDROOT
BRANCH   2   3
HETATM    3  O   UNL     1      -6.634  15.706  67.007  1.00  0.00    -0.283 OA 
BRANCH   3   4
HETATM    4  C   UNL     1      -7.025  15.503  68.284  1.00  0.00    -0.115 C  
HETATM    5  O   UNL     1      -6.774  16.225  69.241  1.00  0.00    -0.179 OA 
BRANCH   4   6
HETATM    6  C   UNL     1      -7.966  14.356  68.326  1.00  0.00    -0.140 C  
HETATM    7  C   UNL     1      -7.551  13.068  68.305  1.00  0.00    -0.135 C  
HETATM    8  C   UNL     1      -6.127  12.559  68.283  1.00  0.00    -0.065 C  
HETATM    9  N   UNL     1      -8.489  12.051  68.297  1.00  0.00    -0.165 NA 
HETATM   10  C   UNL     1      -9.854  12.226  68.188  1.00  0.00    -0.212 C  
HETATM   11  C   UNL     1     -10.641  10.944  68.052  1.00  0.00    -0.239 C  
HETATM   12  C   UNL     1     -10.386  13.474  68.213  1.00  0.00    -0.253 C  
HETATM   13  C   UNL     1      -9.475  14.706  68.350  1.00  0.00    -0.209 C  
BRANCH  12  14
HETATM   14  C   UNL     1     -11.860  13.637  68.094  1.00  0.00    -0.372 C  
HETATM   15  O   UNL     1     -12.502  13.359  67.092  1.00  0.00    -0.217 OA 
BRANCH  14  16
HETATM   16  O   UNL     1     -12.399  14.121  69.240  1.00  0.00    -0.311 OA 
HETATM   17  C   UNL     1     -12.349  13.202  70.340  1.00  0.00    -0.279 C  
ENDBRANCH  14  16
ENDBRANCH  12  14
BRANCH  13  18
HETATM   18  C   UNL     1      -9.817  15.858  67.381  1.00  0.00    -0.234 A  
HETATM   19  C   UNL     1      -9.986  15.527  66.014  1.00  0.00    -0.356 A  
HETATM   20  C   UNL     1     -10.425  16.466  65.081  1.00  0.00    -0.218 A  
HETATM   21  C   UNL     1     -10.067  17.189  67.775  1.00  0.00    -0.306 A  
HETATM   22  C   UNL     1     -10.517  18.130  66.826  1.00  0.00    -0.348 A  
HETATM   23 CL   UNL     1      -9.858  17.674  69.427  1.00  0.00    -0.029 Cl 
HETATM   24 CL   UNL     1     -10.915  19.763  67.248  1.00  0.00    -0.468 Cl 
HETATM   25  C   UNL     1     -10.703  17.763  65.490  1.00  0.00    -0.009 A  
ENDBRANCH  13  18
ENDBRANCH   4   6
ENDBRANCH   3   4
ENDBRANCH   2   3
TORSDOF 6
ENDMDL
MODEL       83
REMARK 921   NORMALIZED FREE ENERGY PREDICTED BY IDOCK:   -4.14 KCAL/MOL
REMARK 922        TOTAL FREE ENERGY PREDICTED BY IDOCK:   -6.81 KCAL/MOL
REMARK 923 INTER-LIGAND FREE ENERGY PREDICTED BY IDOCK:   -5.58 KCAL/MOL
REMARK 924 INTRA-LIGAND FREE ENERGY PREDICTED BY IDOCK:   -1.23 KCAL/MOL
REMARK 927      BINDING AFFINITY PREDICTED BY RF-SCORE:    0.00 PKD
ROOT
HETATM    1  C   UNL     1      -6.645   9.112  64.616  1.00  0.00    -0.075 C  
HETATM    2  C   UNL     1      -6.395  10.435  65.308  1.00  0.00    -0.114 C  
ENDROOT
BRANCH   2   3
HETATM    3  O   UNL     1      -6.526  10.177  66.708  1.00  0.00    -0.068 OA 
BRANCH   3   4
HETATM    4  C   UNL     1      -6.833  11.202  67.531  1.00  0.00    -0.086 C  
HETATM    5  O   UNL     1      -6.454  12.361  67.417  1.00  0.00    -0.132 OA 
BRANCH   4   6
HETATM    6  C   UNL     1      -7.855  10.750  68.508  1.00  0.00    -0.122 C  
HETATM    7  C   UNL     1      -7.638   9.736  69.378  1.00  0.00    -0.104 C  
HETATM    8  C   UNL     1      -6.370   8.932  69.558  1.00  0.00    -0.043 C  
HETATM    9  N   UNL     1      -8.656   9.337  70.226  1.00  0.00    -0.189 NA 
HETATM   10  C   UNL     1      -9.953   9.810  70.192  1.00  0.00    -0.263 C  
HETATM   11  C   UNL     1     -10.903   9.100  71.127  1.00  0.00    -0.381 C  
HETATM   12  C   UNL     1     -10.284  10.836  69.369  1.00  0.00    -0.187 C  
HETATM   13  C   UNL     1      -9.224  11.474  68.455  1.00  0.00    -0.167 C  
BRANCH  12  14
HETATM   14  C   UNL     1     -11.688  11.328  69.350  1.00  0.00    -0.339 C  
HETATM   15  O   UNL     1     -12.530  10.970  68.540  1.00  0.00    -0.440 OA 
BRANCH  14  16
HETATM   16  O   UNL     1     -11.916  12.214  70.351  1.00  0.00    -0.343 OA 
HETATM   17  C   UNL     1     -12.093  13.565  69.903  1.00  0.00    -0.341 C  
ENDBRANCH  14  16
ENDBRANCH  12  14
BRANCH  13  18
HETATM   18  C   UNL     1      -9.696  11.713  67.005  1.00  0.00    -0.201 A  
HETATM   19  C   UNL     1      -9.968  10.568  66.216  1.00  0.00    -0.276 A  
HETATM   20  C   UNL     1     -10.526  10.672  64.942  1.00  0.00    -0.282 A  
HETATM   21  C   UNL     1      -9.967  12.980  66.448  1.00  0.00    -0.277 A  
HETATM   22  C   UNL     1     -10.537  13.075  65.162  1.00  0.00    -0.312 A  
HETATM   23 CL   UNL     1      -9.638  14.427  67.346  1.00  0.00    -0.213 Cl 
HETATM   24 CL   UNL     1     -10.965  14.591  64.441  1.00  0.00    -0.237 Cl 
HETATM   25  C   UNL     1     -10.822  11.924  64.421  1.00  0.00    -0.384 A  
ENDBRANCH  13  18
ENDBRANCH   4   6
ENDBRANCH   3   4
ENDBRANCH   2   3
TORSDOF 6
ENDMDL
MODEL       84
REMARK 921   NORMALIZED FREE ENERGY PREDICTED BY IDOCK:   -4.14 KCAL/MOL
REMARK 922        TOTAL FREE ENERGY PREDICTED BY IDOCK:   -6.81 KCAL/MOL
REMARK 923 INTER-LIGAND FREE ENERGY PREDICTED BY IDOCK:   -6.21 KCAL/MOL
REMARK 924 INTRA-LIGAND FREE ENERGY PREDICTED BY IDOCK:   -0.60 KCAL/MOL
REMARK 927      BINDING AFFINITY PREDICTED BY RF-SCORE:    0.00 PKD
ROOT
HETATM    1  C   UNL     1     -10.757  16.166  69.603  1.00  0.00    -0.325 C  
HETATM    2  C   UNL     1     -10.975  14.951  70.479  1.00  0.00    -0.100 C  
ENDROOT
BRANCH   2   3
HETATM    3  O   UNL     1     -10.827  13.816  69.621  1.00  0.00    -0.055 OA 
BRANCH   3   4
HETATM    4  C   UNL     1     -11.873  12.974  69.472  1.00  0.00    -0.323 C  
HETATM    5  O   UNL     1     -13.034  13.198  69.792  1.00  0.00     0.417 OA 
BRANCH   4   6
HETATM    6  C   UNL     1     -11.435  11.792  68.691  1.00  0.00    -0.346 C  
HETATM    7  C   UNL     1     -11.168  10.594  69.262  1.00  0.00    -0.273 C  
HETATM    8  C   UNL     1     -11.298  10.221  70.722  1.00  0.00    -0.421 C  
HETATM    9  N   UNL     1     -10.715   9.549  68.476  1.00  0.00    -0.208 NA 
HETATM   10  C   UNL     1     -10.387   9.643  67.138  1.00  0.00    -0.254 C  
HETATM   11  C   UNL     1      -9.776   8.391  66.554  1.00  0.00    -0.330 C  
HETATM   12  C   UNL     1     -10.624  10.792  66.456  1.00  0.00    -0.279 C  
HETATM   13  C   UNL     1     -11.248  12.005  67.167  1.00  0.00    -0.374 C  
BRANCH  12  14
HETATM   14  C   UNL     1     -10.262  10.868  65.015  1.00  0.00    -0.303 C  
HETATM   15  O   UNL     1     -11.067  11.045  64.113  1.00  0.00    -0.244 OA 
BRANCH  14  16
HETATM   16  O   UNL     1      -8.926  10.728  64.832  1.00  0.00    -0.192 OA 
HETATM   17  C   UNL     1      -8.569  10.158  63.564  1.00  0.00    -0.200 C  
ENDBRANCH  14  16
ENDBRANCH  12  14
BRANCH  13  18
HETATM   18  C   UNL     1     -10.557  13.349  66.852  1.00  0.00    -0.273 A  
HETATM   19  C   UNL     1      -9.195  13.478  67.216  1.00  0.00    -0.233 A  
HETATM   20  C   UNL     1      -8.443  14.597  66.858  1.00  0.00    -0.203 A  
HETATM   21  C   UNL     1     -11.157  14.412  66.144  1.00  0.00    -0.330 A  
HETATM   22  C   UNL     1     -10.388  15.536  65.780  1.00  0.00    -0.363 A  
HETATM   23 CL   UNL     1     -12.828  14.334  65.685  1.00  0.00    -0.434 Cl 
HETATM   24 CL   UNL     1     -11.035  16.846  64.849  1.00  0.00    -0.190 Cl 
HETATM   25  C   UNL     1      -9.037  15.619  66.129  1.00  0.00    -0.378 A  
ENDBRANCH  13  18
ENDBRANCH   4   6
ENDBRANCH   3   4
ENDBRANCH   2   3
TORSDOF 6
ENDMDL
MODEL       85
REMARK 921   NORMALIZED FREE ENERGY PREDICTED BY IDOCK:   -4.10 KCAL/MOL
REMARK 922        TOTAL FREE ENERGY PREDICTED BY IDOCK:   -6.76 KCAL/MOL
REMARK 923 INTER-LIGAND FREE ENERGY PREDICTED BY IDOCK:   -5.91 KCAL/MOL
REMARK 924 INTRA-LIGAND FREE ENERGY PREDICTED BY IDOCK:   -0.85 KCAL/MOL
REMARK 927      BINDING AFFINITY PREDICTED BY RF-SCORE:    0.00 PKD
ROOT
HETATM    1  C   UNL     1      -9.997   8.660  70.857  1.00  0.00    -0.257 C  
HETATM    2  C   UNL     1     -10.978   9.809  70.948  1.00  0.00    -0.341 C  
ENDROOT
BRANCH   2   3
HETATM    3  O   UNL     1     -10.711  10.645  69.819  1.00  0.00    -0.256 OA 
BRANCH   3   4
HETATM    4  C   UNL     1     -11.720  11.377  69.299  1.00  0.00    -0.337 C  
HETATM    5  O   UNL     1     -12.660  10.949  68.641  1.00  0.00    -0.255 OA 
BRANCH   4   6
HETATM    6  C   UNL     1     -11.615  12.770  69.798  1.00  0.00    -0.288 C  
HETATM    7  C   UNL     1     -12.219  13.188  70.936  1.00  0.00    -0.241 C  
HETATM    8  C   UNL     1     -13.037  12.360  71.901  1.00  0.00    -0.471 C  
HETATM    9  N   UNL     1     -12.118  14.515  71.312  1.00  0.00    -0.345 NA 
HETATM   10  C   UNL     1     -11.539  15.516  70.558  1.00  0.00    -0.346 C  
HETATM   11  C   UNL     1     -11.695  16.903  71.134  1.00  0.00     0.882 C  
HETATM   12  C   UNL     1     -10.891  15.213  69.404  1.00  0.00    -0.265 C  
HETATM   13  C   UNL     1     -10.806  13.757  68.918  1.00  0.00    -0.268 C  
BRANCH  12  14
HETATM   14  C   UNL     1     -10.276  16.309  68.609  1.00  0.00    -0.254 C  
HETATM   15  O   UNL     1      -9.102  16.640  68.688  1.00  0.00    -0.228 OA 
BRANCH  14  16
HETATM   16  O   UNL     1     -11.179  16.886  67.778  1.00  0.00    -0.201 OA 
HETATM   17  C   UNL     1     -10.589  17.672  66.732  1.00  0.00    -0.224 C  
ENDBRANCH  14  16
ENDBRANCH  12  14
BRANCH  13  18
HETATM   18  C   UNL     1     -11.107  13.570  67.415  1.00  0.00    -0.300 A  
HETATM   19  C   UNL     1     -12.336  14.082  66.932  1.00  0.00    -0.321 A  
HETATM   20  C   UNL     1     -12.644  14.085  65.572  1.00  0.00    -0.543 A  
HETATM   21  C   UNL     1     -10.206  13.019  66.481  1.00  0.00    -0.268 A  
HETATM   22  C   UNL     1     -10.523  13.033  65.107  1.00  0.00    -0.320 A  
HETATM   23 CL   UNL     1      -8.692  12.352  67.002  1.00  0.00    -0.203 Cl 
HETATM   24 CL   UNL     1      -9.437  12.441  63.893  1.00  0.00     0.152 Cl 
HETATM   25  C   UNL     1     -11.733  13.573  64.659  1.00  0.00    -0.412 A  
ENDBRANCH  13  18
ENDBRANCH   4   6
ENDBRANCH   3   4
ENDBRANCH   2   3
TORSDOF 6
ENDMDL
MODEL       86
REMARK 921   NORMALIZED FREE ENERGY PREDICTED BY IDOCK:   -4.08 KCAL/MOL
REMARK 922        TOTAL FREE ENERGY PREDICTED BY IDOCK:   -6.73 KCAL/MOL
REMARK 923 INTER-LIGAND FREE ENERGY PREDICTED BY IDOCK:   -5.32 KCAL/MOL
REMARK 924 INTRA-LIGAND FREE ENERGY PREDICTED BY IDOCK:   -1.41 KCAL/MOL
REMARK 927      BINDING AFFINITY PREDICTED BY RF-SCORE:    0.00 PKD
ROOT
HETATM    1  C   UNL     1     -10.658  11.318  68.742  1.00  0.00    -0.234 C  
HETATM    2  C   UNL     1      -9.227  10.842  68.616  1.00  0.00    -0.184 C  
ENDROOT
BRANCH   2   3
HETATM    3  O   UNL     1      -8.418  12.021  68.619  1.00  0.00    -0.121 OA 
BRANCH   3   4
HETATM    4  C   UNL     1      -7.832  12.409  67.465  1.00  0.00    -0.169 C  
HETATM    5  O   UNL     1      -7.872  11.812  66.397  1.00  0.00    -0.051 OA 
BRANCH   4   6
HETATM    6  C   UNL     1      -7.274  13.773  67.640  1.00  0.00    -0.183 C  
HETATM    7  C   UNL     1      -6.244  14.041  68.477  1.00  0.00    -0.093 C  
HETATM    8  C   UNL     1      -5.465  13.058  69.322  1.00  0.00    -0.076 C  
HETATM    9  N   UNL     1      -5.809  15.345  68.626  1.00  0.00    -0.092 NA 
HETATM   10  C   UNL     1      -6.416  16.456  68.075  1.00  0.00    -0.136 C  
HETATM   11  C   UNL     1      -5.828  17.775  68.516  1.00  0.00    -0.176 C  
HETATM   12  C   UNL     1      -7.450  16.309  67.208  1.00  0.00    -0.212 C  
HETATM   13  C   UNL     1      -7.965  14.907  66.841  1.00  0.00    -0.067 C  
BRANCH  12  14
HETATM   14  C   UNL     1      -8.088  17.520  66.627  1.00  0.00    -0.255 C  
HETATM   15  O   UNL     1      -7.804  17.989  65.535  1.00  0.00    -0.451 OA 
BRANCH  14  16
HETATM   16  O   UNL     1      -9.032  18.030  67.457  1.00  0.00    -0.247 OA 
HETATM   17  C   UNL     1     -10.220  18.473  66.786  1.00  0.00    -0.393 C  
ENDBRANCH  14  16
ENDBRANCH  12  14
BRANCH  13  18
HETATM   18  C   UNL     1      -9.503  14.770  66.857  1.00  0.00    -0.253 A  
HETATM   19  C   UNL     1     -10.135  14.424  65.639  1.00  0.00    -0.377 A  
HETATM   20  C   UNL     1     -11.500  14.145  65.574  1.00  0.00    -0.324 A  
HETATM   21  C   UNL     1     -10.304  14.870  68.014  1.00  0.00    -0.244 A  
HETATM   22  C   UNL     1     -11.681  14.580  67.941  1.00  0.00    -0.351 A  
HETATM   23 CL   UNL     1      -9.603  15.313  69.538  1.00  0.00    -0.240 Cl 
HETATM   24 CL   UNL     1     -12.716  14.610  69.331  1.00  0.00     0.035 Cl 
HETATM   25  C   UNL     1     -12.270  14.211  66.727  1.00  0.00    -0.429 A  
ENDBRANCH  13  18
ENDBRANCH   4   6
ENDBRANCH   3   4
ENDBRANCH   2   3
TORSDOF 6
ENDMDL
MODEL       87
REMARK 921   NORMALIZED FREE ENERGY PREDICTED BY IDOCK:   -4.07 KCAL/MOL
REMARK 922        TOTAL FREE ENERGY PREDICTED BY IDOCK:   -6.72 KCAL/MOL
REMARK 923 INTER-LIGAND FREE ENERGY PREDICTED BY IDOCK:   -5.50 KCAL/MOL
REMARK 924 INTRA-LIGAND FREE ENERGY PREDICTED BY IDOCK:   -1.22 KCAL/MOL
REMARK 927      BINDING AFFINITY PREDICTED BY RF-SCORE:    0.00 PKD
ROOT
HETATM    1  C   UNL     1     -13.289   9.836  72.073  1.00  0.00    -0.547 C  
HETATM    2  C   UNL     1     -12.687  10.747  71.025  1.00  0.00    -0.415 C  
ENDROOT
BRANCH   2   3
HETATM    3  O   UNL     1     -12.100   9.886  70.046  1.00  0.00    -0.106 OA 
BRANCH   3   4
HETATM    4  C   UNL     1     -10.767   9.675  70.082  1.00  0.00    -0.275 C  
HETATM    5  O   UNL     1     -10.052   9.736  71.075  1.00  0.00    -0.216 OA 
BRANCH   4   6
HETATM    6  C   UNL     1     -10.318   9.177  68.759  1.00  0.00    -0.235 C  
HETATM    7  C   UNL     1      -9.927   7.897  68.551  1.00  0.00    -0.187 C  
HETATM    8  C   UNL     1      -9.912   6.766  69.554  1.00  0.00    -0.172 C  
HETATM    9  N   UNL     1      -9.474   7.518  67.301  1.00  0.00    -0.144 NA 
HETATM   10  C   UNL     1      -9.264   8.372  66.236  1.00  0.00    -0.208 C  
HETATM   11  C   UNL     1      -8.623   7.725  65.031  1.00  0.00     0.015 C  
HETATM   12  C   UNL     1      -9.631   9.675  66.324  1.00  0.00    -0.281 C  
HETATM   13  C   UNL     1     -10.272  10.218  67.612  1.00  0.00    -0.247 C  
BRANCH  12  14
HETATM   14  C   UNL     1      -9.395  10.575  65.163  1.00  0.00    -0.216 C  
HETATM   15  O   UNL     1      -8.304  11.037  64.864  1.00  0.00    -0.009 OA 
BRANCH  14  16
HETATM   16  O   UNL     1     -10.540  10.809  64.475  1.00  0.00    -0.336 OA 
HETATM   17  C   UNL     1     -10.360  11.616  63.303  1.00  0.00    -0.398 C  
ENDBRANCH  14  16
ENDBRANCH  12  14
BRANCH  13  18
HETATM   18  C   UNL     1      -9.699  11.572  68.084  1.00  0.00    -0.192 A  
HETATM   19  C   UNL     1      -8.306  11.636  68.329  1.00  0.00    -0.159 A  
HETATM   20  C   UNL     1      -7.669  12.840  68.628  1.00  0.00    -0.064 A  
HETATM   21  C   UNL     1     -10.446  12.764  68.191  1.00  0.00    -0.236 A  
HETATM   22  C   UNL     1      -9.792  13.978  68.487  1.00  0.00    -0.225 A  
HETATM   23 CL   UNL     1     -12.160  12.759  67.928  1.00  0.00    -0.300 Cl 
HETATM   24 CL   UNL     1     -10.629  15.493  68.564  1.00  0.00    -0.239 Cl 
HETATM   25  C   UNL     1      -8.410  14.012  68.694  1.00  0.00    -0.104 A  
ENDBRANCH  13  18
ENDBRANCH   4   6
ENDBRANCH   3   4
ENDBRANCH   2   3
TORSDOF 6
ENDMDL
MODEL       88
REMARK 921   NORMALIZED FREE ENERGY PREDICTED BY IDOCK:   -4.03 KCAL/MOL
REMARK 922        TOTAL FREE ENERGY PREDICTED BY IDOCK:   -6.67 KCAL/MOL
REMARK 923 INTER-LIGAND FREE ENERGY PREDICTED BY IDOCK:   -5.38 KCAL/MOL
REMARK 924 INTRA-LIGAND FREE ENERGY PREDICTED BY IDOCK:   -1.29 KCAL/MOL
REMARK 927      BINDING AFFINITY PREDICTED BY RF-SCORE:    0.00 PKD
ROOT
HETATM    1  C   UNL     1     -14.146   8.724  72.009  1.00  0.00    -0.508 C  
HETATM    2  C   UNL     1     -12.705   9.166  72.145  1.00  0.00    -0.395 C  
ENDROOT
BRANCH   2   3
HETATM    3  O   UNL     1     -11.984   8.019  72.603  1.00  0.00    -0.356 OA 
BRANCH   3   4
HETATM    4  C   UNL     1     -10.673   7.910  72.297  1.00  0.00    -0.283 C  
HETATM    5  O   UNL     1      -9.759   8.557  72.792  1.00  0.00    -0.257 OA 
BRANCH   4   6
HETATM    6  C   UNL     1     -10.482   6.753  71.388  1.00  0.00    -0.238 C  
HETATM    7  C   UNL     1     -10.166   5.515  71.836  1.00  0.00    -0.199 C  
HETATM    8  C   UNL     1      -9.999   5.069  73.271  1.00  0.00    -0.182 C  
HETATM    9  N   UNL     1      -9.954   4.495  70.925  1.00  0.00    -0.205 NA 
HETATM   10  C   UNL     1      -9.918   4.646  69.554  1.00  0.00    -0.196 C  
HETATM   11  C   UNL     1      -9.519   3.402  68.796  1.00  0.00    -0.201 C  
HETATM   12  C   UNL     1     -10.231   5.840  68.990  1.00  0.00    -0.282 C  
HETATM   13  C   UNL     1     -10.616   7.040  69.871  1.00  0.00    -0.249 C  
BRANCH  12  14
HETATM   14  C   UNL     1     -10.184   5.978  67.509  1.00  0.00    -0.184 C  
HETATM   15  O   UNL     1     -11.155   5.859  66.778  1.00  0.00    -0.262 OA 
BRANCH  14  16
HETATM   16  O   UNL     1      -8.930   6.264  67.077  1.00  0.00    -0.113 OA 
HETATM   17  C   UNL     1      -8.893   7.013  65.854  1.00  0.00    -0.103 C  
ENDBRANCH  14  16
ENDBRANCH  12  14
BRANCH  13  18
HETATM   18  C   UNL     1      -9.935   8.367  69.472  1.00  0.00    -0.190 A  
HETATM   19  C   UNL     1     -10.773   9.414  69.018  1.00  0.00    -0.209 A  
HETATM   20  C   UNL     1     -10.276  10.691  68.760  1.00  0.00    -0.204 A  
HETATM   21  C   UNL     1      -8.558   8.637  69.620  1.00  0.00    -0.131 A  
HETATM   22  C   UNL     1      -8.066   9.932  69.364  1.00  0.00    -0.139 A  
HETATM   23 CL   UNL     1      -7.468   7.396  70.149  1.00  0.00    -0.085 Cl 
HETATM   24 CL   UNL     1      -6.402  10.360  69.593  1.00  0.00    -0.058 Cl 
HETATM   25  C   UNL     1      -8.925  10.953  68.946  1.00  0.00    -0.146 A  
ENDBRANCH  13  18
ENDBRANCH   4   6
ENDBRANCH   3   4
ENDBRANCH   2   3
TORSDOF 6
ENDMDL
MODEL       89
REMARK 921   NORMALIZED FREE ENERGY PREDICTED BY IDOCK:   -4.03 KCAL/MOL
REMARK 922        TOTAL FREE ENERGY PREDICTED BY IDOCK:   -6.66 KCAL/MOL
REMARK 923 INTER-LIGAND FREE ENERGY PREDICTED BY IDOCK:   -5.40 KCAL/MOL
REMARK 924 INTRA-LIGAND FREE ENERGY PREDICTED BY IDOCK:   -1.26 KCAL/MOL
REMARK 927      BINDING AFFINITY PREDICTED BY RF-SCORE:    0.00 PKD
ROOT
HETATM    1  C   UNL     1     -10.291  11.017  63.995  1.00  0.00    -0.436 C  
HETATM    2  C   UNL     1     -10.204  11.006  65.505  1.00  0.00    -0.268 C  
ENDROOT
BRANCH   2   3
HETATM    3  O   UNL     1     -10.182   9.628  65.888  1.00  0.00    -0.259 OA 
BRANCH   3   4
HETATM    4  C   UNL     1      -9.082   9.142  66.502  1.00  0.00    -0.156 C  
HETATM    5  O   UNL     1      -7.990   8.945  65.983  1.00  0.00    -0.103 OA 
BRANCH   4   6
HETATM    6  C   UNL     1      -9.343   9.046  67.960  1.00  0.00    -0.153 C  
HETATM    7  C   UNL     1      -8.824   9.919  68.856  1.00  0.00    -0.145 C  
HETATM    8  C   UNL     1      -7.960  11.127  68.570  1.00  0.00    -0.143 C  
HETATM    9  N   UNL     1      -9.070   9.737  70.205  1.00  0.00    -0.229 NA 
HETATM   10  C   UNL     1      -9.721   8.652  70.757  1.00  0.00    -0.194 C  
HETATM   11  C   UNL     1      -9.725   8.626  72.267  1.00  0.00    -0.357 C  
HETATM   12  C   UNL     1     -10.294   7.719  69.955  1.00  0.00    -0.221 C  
HETATM   13  C   UNL     1     -10.216   7.854  68.425  1.00  0.00    -0.232 C  
BRANCH  12  14
HETATM   14  C   UNL     1     -10.989   6.558  70.574  1.00  0.00    -0.294 C  
HETATM   15  O   UNL     1     -10.416   5.628  71.123  1.00  0.00    -0.221 OA 
BRANCH  14  16
HETATM   16  O   UNL     1     -12.336   6.669  70.462  1.00  0.00    -0.314 OA 
HETATM   17  C   UNL     1     -12.992   7.046  71.681  1.00  0.00    -0.352 C  
ENDBRANCH  14  16
ENDBRANCH  12  14
BRANCH  13  18
HETATM   18  C   UNL     1      -9.847   6.546  67.691  1.00  0.00    -0.146 A  
HETATM   19  C   UNL     1     -10.808   6.012  66.799  1.00  0.00    -0.356 A  
HETATM   20  C   UNL     1     -10.524   4.913  65.988  1.00  0.00    -0.327 A  
HETATM   21  C   UNL     1      -8.592   5.908  67.773  1.00  0.00    -0.105 A  
HETATM   22  C   UNL     1      -8.311   4.803  66.945  1.00  0.00    -0.106 A  
HETATM   23 CL   UNL     1      -7.374   6.493  68.861  1.00  0.00    -0.091 Cl 
HETATM   24 CL   UNL     1      -6.769   4.012  66.935  1.00  0.00    -0.046 Cl 
HETATM   25  C   UNL     1      -9.272   4.317  66.052  1.00  0.00    -0.145 A  
ENDBRANCH  13  18
ENDBRANCH   4   6
ENDBRANCH   3   4
ENDBRANCH   2   3
TORSDOF 6
ENDMDL
MODEL       90
REMARK 921   NORMALIZED FREE ENERGY PREDICTED BY IDOCK:   -4.03 KCAL/MOL
REMARK 922        TOTAL FREE ENERGY PREDICTED BY IDOCK:   -6.66 KCAL/MOL
REMARK 923 INTER-LIGAND FREE ENERGY PREDICTED BY IDOCK:   -5.93 KCAL/MOL
REMARK 924 INTRA-LIGAND FREE ENERGY PREDICTED BY IDOCK:   -0.73 KCAL/MOL
REMARK 927      BINDING AFFINITY PREDICTED BY RF-SCORE:    0.00 PKD
ROOT
HETATM    1  C   UNL     1      -7.127  18.680  67.184  1.00  0.00    -0.212 C  
HETATM    2  C   UNL     1      -7.072  17.305  66.554  1.00  0.00    -0.265 C  
ENDROOT
BRANCH   2   3
HETATM    3  O   UNL     1      -8.039  16.515  67.251  1.00  0.00    -0.154 OA 
BRANCH   3   4
HETATM    4  C   UNL     1      -9.175  16.165  66.611  1.00  0.00    -0.246 C  
HETATM    5  O   UNL     1      -9.313  16.032  65.402  1.00  0.00    -0.339 OA 
BRANCH   4   6
HETATM    6  C   UNL     1     -10.200  15.786  67.615  1.00  0.00    -0.266 C  
HETATM    7  C   UNL     1     -10.789  16.687  68.436  1.00  0.00    -0.361 C  
HETATM    8  C   UNL     1     -10.572  18.184  68.468  1.00  0.00    -0.146 C  
HETATM    9  N   UNL     1     -11.700  16.253  69.383  1.00  0.00    -0.199 NA 
HETATM   10  C   UNL     1     -11.993  14.933  69.659  1.00  0.00    -0.320 C  
HETATM   11  C   UNL     1     -12.912  14.730  70.841  1.00  0.00    -0.422 C  
HETATM   12  C   UNL     1     -11.472  13.942  68.893  1.00  0.00    -0.340 C  
HETATM   13  C   UNL     1     -10.540  14.277  67.716  1.00  0.00    -0.253 C  
BRANCH  12  14
HETATM   14  C   UNL     1     -11.802  12.527  69.211  1.00  0.00    -0.304 C  
HETATM   15  O   UNL     1     -11.788  12.056  70.339  1.00  0.00    -0.322 OA 
BRANCH  14  16
HETATM   16  O   UNL     1     -12.132  11.831  68.095  1.00  0.00    -0.556 OA 
HETATM   17  C   UNL     1     -11.582  10.506  68.052  1.00  0.00    -0.023 C  
ENDBRANCH  14  16
ENDBRANCH  12  14
BRANCH  13  18
HETATM   18  C   UNL     1      -9.276  13.394  67.635  1.00  0.00    -0.212 A  
HETATM   19  C   UNL     1      -8.335  13.513  68.687  1.00  0.00    -0.024 A  
HETATM   20  C   UNL     1      -7.229  12.667  68.780  1.00  0.00    -0.083 A  
HETATM   21  C   UNL     1      -9.045  12.415  66.647  1.00  0.00    -0.204 A  
HETATM   22  C   UNL     1      -7.928  11.561  66.752  1.00  0.00    -0.152 A  
HETATM   23 CL   UNL     1     -10.142  12.228  65.316  1.00  0.00    -0.296 Cl 
HETATM   24 CL   UNL     1      -7.617  10.288  65.618  1.00  0.00    -0.144 Cl 
HETATM   25  C   UNL     1      -7.033  11.684  67.820  1.00  0.00    -0.084 A  
ENDBRANCH  13  18
ENDBRANCH   4   6
ENDBRANCH   3   4
ENDBRANCH   2   3
TORSDOF 6
ENDMDL
MODEL       91
REMARK 921   NORMALIZED FREE ENERGY PREDICTED BY IDOCK:   -4.02 KCAL/MOL
REMARK 922        TOTAL FREE ENERGY PREDICTED BY IDOCK:   -6.66 KCAL/MOL
REMARK 923 INTER-LIGAND FREE ENERGY PREDICTED BY IDOCK:   -5.79 KCAL/MOL
REMARK 924 INTRA-LIGAND FREE ENERGY PREDICTED BY IDOCK:   -0.87 KCAL/MOL
REMARK 927      BINDING AFFINITY PREDICTED BY RF-SCORE:    0.00 PKD
ROOT
HETATM    1  C   UNL     1     -12.434  14.184  70.973  1.00  0.00    -0.438 C  
HETATM    2  C   UNL     1     -11.813  13.837  69.638  1.00  0.00    -0.333 C  
ENDROOT
BRANCH   2   3
HETATM    3  O   UNL     1     -11.179  12.568  69.818  1.00  0.00    -0.105 OA 
BRANCH   3   4
HETATM    4  C   UNL     1     -11.628  11.511  69.108  1.00  0.00    -0.316 C  
HETATM    5  O   UNL     1     -12.780  11.328  68.733  1.00  0.00    -0.126 OA 
BRANCH   4   6
HETATM    6  C   UNL     1     -10.472  10.680  68.690  1.00  0.00    -0.211 C  
HETATM    7  C   UNL     1      -9.906   9.753  69.498  1.00  0.00    -0.214 C  
HETATM    8  C   UNL     1     -10.339   9.361  70.894  1.00  0.00    -0.380 C  
HETATM    9  N   UNL     1      -8.798   9.051  69.058  1.00  0.00    -0.135 NA 
HETATM   10  C   UNL     1      -8.118   9.291  67.881  1.00  0.00    -0.104 C  
HETATM   11  C   UNL     1      -6.854   8.482  67.712  1.00  0.00    -0.067 C  
HETATM   12  C   UNL     1      -8.600  10.190  66.986  1.00  0.00    -0.129 C  
HETATM   13  C   UNL     1      -9.899  10.959  67.277  1.00  0.00    -0.202 C  
BRANCH  12  14
HETATM   14  C   UNL     1      -7.849  10.432  65.725  1.00  0.00    -0.150 C  
HETATM   15  O   UNL     1      -8.287  10.196  64.609  1.00  0.00    -0.154 OA 
BRANCH  14  16
HETATM   16  O   UNL     1      -6.623  10.957  65.971  1.00  0.00    -0.126 OA 
HETATM   17  C   UNL     1      -5.598  10.483  65.085  1.00  0.00    -0.142 C  
ENDBRANCH  14  16
ENDBRANCH  12  14
BRANCH  13  18
HETATM   18  C   UNL     1      -9.825  12.471  66.972  1.00  0.00    -0.217 A  
HETATM   19  C   UNL     1      -8.737  13.190  67.524  1.00  0.00    -0.201 A  
HETATM   20  C   UNL     1      -8.502  14.526  67.202  1.00  0.00    -0.234 A  
HETATM   21  C   UNL     1     -10.703  13.158  66.108  1.00  0.00    -0.278 A  
HETATM   22  C   UNL     1     -10.454  14.507  65.783  1.00  0.00    -0.323 A  
HETATM   23 CL   UNL     1     -12.071  12.349  65.414  1.00  0.00    -0.472 Cl 
HETATM   24 CL   UNL     1     -11.445  15.397  64.673  1.00  0.00    -0.387 Cl 
HETATM   25  C   UNL     1      -9.353  15.180  66.321  1.00  0.00    -0.348 A  
ENDBRANCH  13  18
ENDBRANCH   4   6
ENDBRANCH   3   4
ENDBRANCH   2   3
TORSDOF 6
ENDMDL
MODEL       92
REMARK 921   NORMALIZED FREE ENERGY PREDICTED BY IDOCK:   -4.00 KCAL/MOL
REMARK 922        TOTAL FREE ENERGY PREDICTED BY IDOCK:   -6.62 KCAL/MOL
REMARK 923 INTER-LIGAND FREE ENERGY PREDICTED BY IDOCK:   -5.53 KCAL/MOL
REMARK 924 INTRA-LIGAND FREE ENERGY PREDICTED BY IDOCK:   -1.10 KCAL/MOL
REMARK 927      BINDING AFFINITY PREDICTED BY RF-SCORE:    0.00 PKD
ROOT
HETATM    1  C   UNL     1     -13.233  10.957  72.012  1.00  0.00    -0.456 C  
HETATM    2  C   UNL     1     -12.701  10.414  70.703  1.00  0.00    -0.333 C  
ENDROOT
BRANCH   2   3
HETATM    3  O   UNL     1     -11.276  10.465  70.808  1.00  0.00    -0.326 OA 
BRANCH   3   4
HETATM    4  C   UNL     1     -10.599   9.317  71.025  1.00  0.00    -0.316 C  
HETATM    5  O   UNL     1     -10.093   8.964  72.083  1.00  0.00    -0.325 OA 
BRANCH   4   6
HETATM    6  C   UNL     1     -10.712   8.453  69.824  1.00  0.00    -0.211 C  
HETATM    7  C   UNL     1     -11.292   7.229  69.854  1.00  0.00    -0.117 C  
HETATM    8  C   UNL     1     -11.947   6.550  71.036  1.00  0.00    -0.358 C  
HETATM    9  N   UNL     1     -11.316   6.459  68.705  1.00  0.00    -0.279 NA 
HETATM   10  C   UNL     1     -10.685   6.777  67.519  1.00  0.00    -0.311 C  
HETATM   11  C   UNL     1     -10.744   5.693  66.469  1.00  0.00    -0.296 C  
HETATM   12  C   UNL     1     -10.082   7.983  67.368  1.00  0.00    -0.294 C  
HETATM   13  C   UNL     1     -10.084   9.003  68.519  1.00  0.00    -0.211 C  
BRANCH  12  14
HETATM   14  C   UNL     1      -9.408   8.302  66.081  1.00  0.00    -0.188 C  
HETATM   15  O   UNL     1      -8.456   7.680  65.632  1.00  0.00    -0.141 OA 
BRANCH  14  16
HETATM   16  O   UNL     1      -9.991   9.360  65.465  1.00  0.00    -0.281 OA 
HETATM   17  C   UNL     1      -9.093  10.121  64.644  1.00  0.00    -0.227 C  
ENDBRANCH  14  16
ENDBRANCH  12  14
BRANCH  13  18
HETATM   18  C   UNL     1      -8.717   9.675  68.774  1.00  0.00    -0.126 A  
HETATM   19  C   UNL     1      -7.620   8.825  69.056  1.00  0.00    -0.090 A  
HETATM   20  C   UNL     1      -6.321   9.318  69.169  1.00  0.00    -0.042 A  
HETATM   21  C   UNL     1      -8.469  11.058  68.649  1.00  0.00    -0.157 A  
HETATM   22  C   UNL     1      -7.151  11.547  68.758  1.00  0.00    -0.108 A  
HETATM   23 CL   UNL     1      -9.767  12.163  68.328  1.00  0.00    -0.214 Cl 
HETATM   24 CL   UNL     1      -6.757  13.221  68.545  1.00  0.00    -0.084 Cl 
HETATM   25  C   UNL     1      -6.085  10.677  69.007  1.00  0.00    -0.041 A  
ENDBRANCH  13  18
ENDBRANCH   4   6
ENDBRANCH   3   4
ENDBRANCH   2   3
TORSDOF 6
ENDMDL
MODEL       93
REMARK 921   NORMALIZED FREE ENERGY PREDICTED BY IDOCK:   -3.99 KCAL/MOL
REMARK 922        TOTAL FREE ENERGY PREDICTED BY IDOCK:   -6.61 KCAL/MOL
REMARK 923 INTER-LIGAND FREE ENERGY PREDICTED BY IDOCK:   -5.34 KCAL/MOL
REMARK 924 INTRA-LIGAND FREE ENERGY PREDICTED BY IDOCK:   -1.27 KCAL/MOL
REMARK 927      BINDING AFFINITY PREDICTED BY RF-SCORE:    0.00 PKD
ROOT
HETATM    1  C   UNL     1      -7.434  16.312  67.599  1.00  0.00    -0.161 C  
HETATM    2  C   UNL     1      -7.947  14.990  67.070  1.00  0.00    -0.162 C  
ENDROOT
BRANCH   2   3
HETATM    3  O   UNL     1      -7.700  14.032  68.102  1.00  0.00    -0.119 OA 
BRANCH   3   4
HETATM    4  C   UNL     1      -7.025  12.904  67.792  1.00  0.00    -0.138 C  
HETATM    5  O   UNL     1      -6.113  12.806  66.980  1.00  0.00    -0.282 OA 
BRANCH   4   6
HETATM    6  C   UNL     1      -7.435  11.823  68.721  1.00  0.00    -0.109 C  
HETATM    7  C   UNL     1      -6.611  11.319  69.670  1.00  0.00    -0.136 C  
HETATM    8  C   UNL     1      -5.200  11.760  69.992  1.00  0.00    -0.081 C  
HETATM    9  N   UNL     1      -7.046  10.277  70.468  1.00  0.00    -0.308 NA 
HETATM   10  C   UNL     1      -8.238   9.598  70.312  1.00  0.00    -0.191 C  
HETATM   11  C   UNL     1      -8.403   8.404  71.222  1.00  0.00    -0.174 C  
HETATM   12  C   UNL     1      -9.150  10.021  69.400  1.00  0.00    -0.228 C  
HETATM   13  C   UNL     1      -8.862  11.251  68.524  1.00  0.00    -0.159 C  
BRANCH  12  14
HETATM   14  C   UNL     1     -10.427   9.272  69.250  1.00  0.00    -0.218 C  
HETATM   15  O   UNL     1     -10.610   8.385  68.430  1.00  0.00    -0.190 OA 
BRANCH  14  16
HETATM   16  O   UNL     1     -11.356   9.691  70.145  1.00  0.00    -0.244 OA 
HETATM   17  C   UNL     1     -12.184  10.761  69.666  1.00  0.00    -0.254 C  
ENDBRANCH  14  16
ENDBRANCH  12  14
BRANCH  13  18
HETATM   18  C   UNL     1      -9.208  11.063  67.031  1.00  0.00    -0.164 A  
HETATM   19  C   UNL     1      -8.529  10.034  66.334  1.00  0.00    -0.132 A  
HETATM   20  C   UNL     1      -8.862   9.693  65.024  1.00  0.00    -0.221 A  
HETATM   21  C   UNL     1     -10.216  11.773  66.346  1.00  0.00    -0.215 A  
HETATM   22  C   UNL     1     -10.550  11.417  65.024  1.00  0.00    -0.299 A  
HETATM   23 CL   UNL     1     -11.074  13.062  67.128  1.00  0.00    -0.289 Cl 
HETATM   24 CL   UNL     1     -11.825  12.194  64.143  1.00  0.00    -0.471 Cl 
HETATM   25  C   UNL     1      -9.881  10.376  64.373  1.00  0.00    -0.395 A  
ENDBRANCH  13  18
ENDBRANCH   4   6
ENDBRANCH   3   4
ENDBRANCH   2   3
TORSDOF 6
ENDMDL
MODEL       94
REMARK 921   NORMALIZED FREE ENERGY PREDICTED BY IDOCK:   -3.98 KCAL/MOL
REMARK 922        TOTAL FREE ENERGY PREDICTED BY IDOCK:   -6.60 KCAL/MOL
REMARK 923 INTER-LIGAND FREE ENERGY PREDICTED BY IDOCK:   -5.57 KCAL/MOL
REMARK 924 INTRA-LIGAND FREE ENERGY PREDICTED BY IDOCK:   -1.03 KCAL/MOL
REMARK 927      BINDING AFFINITY PREDICTED BY RF-SCORE:    0.00 PKD
ROOT
HETATM    1  C   UNL     1     -10.926   6.210  67.568  1.00  0.00    -0.404 C  
HETATM    2  C   UNL     1      -9.991   7.399  67.633  1.00  0.00    -0.167 C  
ENDROOT
BRANCH   2   3
HETATM    3  O   UNL     1     -10.721   8.503  67.091  1.00  0.00    -0.280 OA 
BRANCH   3   4
HETATM    4  C   UNL     1     -10.804   9.643  67.810  1.00  0.00    -0.217 C  
HETATM    5  O   UNL     1     -11.834  10.226  68.124  1.00  0.00    -0.238 OA 
BRANCH   4   6
HETATM    6  C   UNL     1      -9.456   9.993  68.320  1.00  0.00    -0.147 C  
HETATM    7  C   UNL     1      -9.115   9.881  69.626  1.00  0.00    -0.227 C  
HETATM    8  C   UNL     1      -9.972   9.363  70.760  1.00  0.00    -0.358 C  
HETATM    9  N   UNL     1      -7.854  10.275  70.037  1.00  0.00    -0.119 NA 
HETATM   10  C   UNL     1      -6.915  10.898  69.241  1.00  0.00    -0.112 C  
HETATM   11  C   UNL     1      -5.677  11.357  69.974  1.00  0.00    -0.113 C  
HETATM   12  C   UNL     1      -7.141  11.053  67.911  1.00  0.00    -0.081 C  
HETATM   13  C   UNL     1      -8.449  10.547  67.281  1.00  0.00    -0.122 C  
BRANCH  12  14
HETATM   14  C   UNL     1      -6.114  11.728  67.074  1.00  0.00    -0.152 C  
HETATM   15  O   UNL     1      -6.014  12.941  66.955  1.00  0.00    -0.292 OA 
BRANCH  14  16
HETATM   16  O   UNL     1      -5.297  10.830  66.470  1.00  0.00    -0.054 OA 
HETATM   17  C   UNL     1      -5.505  10.714  65.055  1.00  0.00    -0.135 C  
ENDBRANCH  14  16
ENDBRANCH  12  14
BRANCH  13  18
HETATM   18  C   UNL     1      -9.113  11.546  66.309  1.00  0.00    -0.215 A  
HETATM   19  C   UNL     1      -9.353  11.101  64.986  1.00  0.00    -0.232 A  
HETATM   20  C   UNL     1     -10.066  11.874  64.070  1.00  0.00    -0.361 A  
HETATM   21  C   UNL     1      -9.582  12.826  66.672  1.00  0.00    -0.255 A  
HETATM   22  C   UNL     1     -10.308  13.598  65.742  1.00  0.00    -0.298 A  
HETATM   23 CL   UNL     1      -9.305  13.447  68.268  1.00  0.00    -0.212 Cl 
HETATM   24 CL   UNL     1     -10.979  15.146  66.137  1.00  0.00    -0.335 Cl 
HETATM   25  C   UNL     1     -10.554  13.116  64.452  1.00  0.00    -0.441 A  
ENDBRANCH  13  18
ENDBRANCH   4   6
ENDBRANCH   3   4
ENDBRANCH   2   3
TORSDOF 6
ENDMDL
MODEL       95
REMARK 921   NORMALIZED FREE ENERGY PREDICTED BY IDOCK:   -3.98 KCAL/MOL
REMARK 922        TOTAL FREE ENERGY PREDICTED BY IDOCK:   -6.60 KCAL/MOL
REMARK 923 INTER-LIGAND FREE ENERGY PREDICTED BY IDOCK:   -5.61 KCAL/MOL
REMARK 924 INTRA-LIGAND FREE ENERGY PREDICTED BY IDOCK:   -0.98 KCAL/MOL
REMARK 927      BINDING AFFINITY PREDICTED BY RF-SCORE:    0.00 PKD
ROOT
HETATM    1  C   UNL     1     -14.251   8.811  72.041  1.00  0.00    -0.493 C  
HETATM    2  C   UNL     1     -13.886   7.466  71.451  1.00  0.00    -0.328 C  
ENDROOT
BRANCH   2   3
HETATM    3  O   UNL     1     -12.514   7.247  71.792  1.00  0.00    -0.320 OA 
BRANCH   3   4
HETATM    4  C   UNL     1     -11.669   6.807  70.834  1.00  0.00    -0.372 C  
HETATM    5  O   UNL     1     -11.987   6.363  69.738  1.00  0.00    -0.257 OA 
BRANCH   4   6
HETATM    6  C   UNL     1     -10.275   7.108  71.242  1.00  0.00    -0.199 C  
HETATM    7  C   UNL     1      -9.760   6.720  72.433  1.00  0.00    -0.154 C  
HETATM    8  C   UNL     1     -10.443   5.907  73.510  1.00  0.00    -0.274 C  
HETATM    9  N   UNL     1      -8.466   7.080  72.765  1.00  0.00    -0.114 NA 
HETATM   10  C   UNL     1      -7.659   7.923  72.027  1.00  0.00    -0.083 C  
HETATM   11  C   UNL     1      -6.347   8.272  72.689  1.00  0.00    -0.086 C  
HETATM   12  C   UNL     1      -8.065   8.365  70.810  1.00  0.00    -0.114 C  
HETATM   13  C   UNL     1      -9.432   7.942  70.245  1.00  0.00    -0.163 C  
BRANCH  12  14
HETATM   14  C   UNL     1      -7.178   9.273  70.034  1.00  0.00    -0.078 C  
HETATM   15  O   UNL     1      -6.394   8.897  69.175  1.00  0.00    -0.042 OA 
BRANCH  14  16
HETATM   16  O   UNL     1      -7.359  10.568  70.393  1.00  0.00    -0.205 OA 
HETATM   17  C   UNL     1      -7.378  11.481  69.286  1.00  0.00    -0.009 C  
ENDBRANCH  14  16
ENDBRANCH  12  14
BRANCH  13  18
HETATM   18  C   UNL     1     -10.247   9.098  69.625  1.00  0.00    -0.211 A  
HETATM   19  C   UNL     1     -10.938   9.954  70.516  1.00  0.00    -0.391 A  
HETATM   20  C   UNL     1     -11.592  11.103  70.071  1.00  0.00    -0.421 A  
HETATM   21  C   UNL     1     -10.270   9.414  68.251  1.00  0.00    -0.196 A  
HETATM   22  C   UNL     1     -10.928  10.581  67.810  1.00  0.00    -0.313 A  
HETATM   23 CL   UNL     1      -9.466   8.399  67.097  1.00  0.00    -0.193 Cl 
HETATM   24 CL   UNL     1     -10.938  11.075  66.149  1.00  0.00    -0.218 Cl 
HETATM   25  C   UNL     1     -11.576  11.422  68.720  1.00  0.00    -0.378 A  
ENDBRANCH  13  18
ENDBRANCH   4   6
ENDBRANCH   3   4
ENDBRANCH   2   3
TORSDOF 6
ENDMDL
MODEL       96
REMARK 921   NORMALIZED FREE ENERGY PREDICTED BY IDOCK:   -3.97 KCAL/MOL
REMARK 922        TOTAL FREE ENERGY PREDICTED BY IDOCK:   -6.59 KCAL/MOL
REMARK 923 INTER-LIGAND FREE ENERGY PREDICTED BY IDOCK:   -5.41 KCAL/MOL
REMARK 924 INTRA-LIGAND FREE ENERGY PREDICTED BY IDOCK:   -1.18 KCAL/MOL
REMARK 927      BINDING AFFINITY PREDICTED BY RF-SCORE:    0.00 PKD
ROOT
HETATM    1  C   UNL     1      -9.778   9.427  65.401  1.00  0.00    -0.248 C  
HETATM    2  C   UNL     1      -9.267   8.262  66.221  1.00  0.00    -0.203 C  
ENDROOT
BRANCH   2   3
HETATM    3  O   UNL     1     -10.074   8.229  67.402  1.00  0.00    -0.191 OA 
BRANCH   3   4
HETATM    4  C   UNL     1     -10.503   7.034  67.861  1.00  0.00    -0.214 C  
HETATM    5  O   UNL     1     -11.392   6.347  67.372  1.00  0.00    -0.283 OA 
BRANCH   4   6
HETATM    6  C   UNL     1      -9.609   6.586  68.957  1.00  0.00    -0.135 C  
HETATM    7  C   UNL     1      -8.921   5.420  68.910  1.00  0.00    -0.117 C  
HETATM    8  C   UNL     1      -8.886   4.416  67.780  1.00  0.00    -0.122 C  
HETATM    9  N   UNL     1      -8.145   5.045  69.992  1.00  0.00    -0.074 NA 
HETATM   10  C   UNL     1      -8.090   5.706  71.202  1.00  0.00    -0.116 C  
HETATM   11  C   UNL     1      -7.280   5.002  72.265  1.00  0.00    -0.089 C  
HETATM   12  C   UNL     1      -8.729   6.893  71.361  1.00  0.00    -0.126 C  
HETATM   13  C   UNL     1      -9.531   7.506  70.201  1.00  0.00    -0.161 C  
BRANCH  12  14
HETATM   14  C   UNL     1      -8.656   7.586  72.675  1.00  0.00    -0.118 C  
HETATM   15  O   UNL     1      -9.309   7.266  73.658  1.00  0.00    -0.189 OA 
BRANCH  14  16
HETATM   16  O   UNL     1      -7.767   8.610  72.647  1.00  0.00    -0.335 OA 
HETATM   17  C   UNL     1      -6.786   8.558  73.693  1.00  0.00    -0.047 C  
ENDBRANCH  14  16
ENDBRANCH  12  14
BRANCH  13  18
HETATM   18  C   UNL     1     -10.918   8.050  70.605  1.00  0.00    -0.250 A  
HETATM   19  C   UNL     1     -11.838   7.127  71.161  1.00  0.00    -0.363 A  
HETATM   20  C   UNL     1     -13.065   7.539  71.681  1.00  0.00    -0.401 A  
HETATM   21  C   UNL     1     -11.294   9.408  70.551  1.00  0.00    -0.274 A  
HETATM   22  C   UNL     1     -12.533   9.816  71.086  1.00  0.00    -0.350 A  
HETATM   23 CL   UNL     1     -10.228  10.591  69.863  1.00  0.00    -0.192 Cl 
HETATM   24 CL   UNL     1     -13.033  11.475  71.121  1.00  0.00    -0.394 Cl 
HETATM   25  C   UNL     1     -13.407   8.884  71.655  1.00  0.00    -0.414 A  
ENDBRANCH  13  18
ENDBRANCH   4   6
ENDBRANCH   3   4
ENDBRANCH   2   3
TORSDOF 6
ENDMDL
MODEL       97
REMARK 921   NORMALIZED FREE ENERGY PREDICTED BY IDOCK:   -3.97 KCAL/MOL
REMARK 922        TOTAL FREE ENERGY PREDICTED BY IDOCK:   -6.58 KCAL/MOL
REMARK 923 INTER-LIGAND FREE ENERGY PREDICTED BY IDOCK:   -5.33 KCAL/MOL
REMARK 924 INTRA-LIGAND FREE ENERGY PREDICTED BY IDOCK:   -1.25 KCAL/MOL
REMARK 927      BINDING AFFINITY PREDICTED BY RF-SCORE:    0.00 PKD
ROOT
HETATM    1  C   UNL     1      -9.339  10.661  66.569  1.00  0.00    -0.192 C  
HETATM    2  C   UNL     1     -10.005   9.446  65.959  1.00  0.00    -0.281 C  
ENDROOT
BRANCH   2   3
HETATM    3  O   UNL     1     -10.739   8.827  67.018  1.00  0.00    -0.262 OA 
BRANCH   3   4
HETATM    4  C   UNL     1     -10.494   7.530  67.306  1.00  0.00    -0.321 C  
HETATM    5  O   UNL     1     -11.172   6.571  66.957  1.00  0.00    -0.397 OA 
BRANCH   4   6
HETATM    6  C   UNL     1      -9.170   7.421  67.966  1.00  0.00    -0.132 C  
HETATM    7  C   UNL     1      -8.118   6.786  67.397  1.00  0.00    -0.118 C  
HETATM    8  C   UNL     1      -8.064   6.135  66.033  1.00  0.00    -0.118 C  
HETATM    9  N   UNL     1      -6.928   6.681  68.094  1.00  0.00    -0.074 NA 
HETATM   10  C   UNL     1      -6.733   7.074  69.403  1.00  0.00    -0.049 C  
HETATM   11  C   UNL     1      -5.382   6.710  69.972  1.00  0.00    -0.014 C  
HETATM   12  C   UNL     1      -7.714   7.733  70.071  1.00  0.00    -0.091 C  
HETATM   13  C   UNL     1      -9.054   8.039  69.382  1.00  0.00    -0.148 C  
BRANCH  12  14
HETATM   14  C   UNL     1      -7.481   8.145  71.481  1.00  0.00    -0.081 C  
HETATM   15  O   UNL     1      -7.425   9.306  71.857  1.00  0.00    -0.320 OA 
BRANCH  14  16
HETATM   16  O   UNL     1      -7.349   7.069  72.296  1.00  0.00    -0.083 OA 
HETATM   17  C   UNL     1      -8.211   7.100  73.444  1.00  0.00    -0.109 C  
ENDBRANCH  14  16
ENDBRANCH  12  14
BRANCH  13  18
HETATM   18  C   UNL     1     -10.296   7.737  70.248  1.00  0.00    -0.215 A  
HETATM   19  C   UNL     1     -10.463   6.405  70.698  1.00  0.00    -0.269 A  
HETATM   20  C   UNL     1     -11.474   6.054  71.593  1.00  0.00    -0.293 A  
HETATM   21  C   UNL     1     -11.215   8.708  70.698  1.00  0.00    -0.252 A  
HETATM   22  C   UNL     1     -12.229   8.346  71.607  1.00  0.00    -0.315 A  
HETATM   23 CL   UNL     1     -11.087  10.355  70.170  1.00  0.00    -0.362 Cl 
HETATM   24 CL   UNL     1     -13.349   9.496  72.261  1.00  0.00    -0.529 Cl 
HETATM   25  C   UNL     1     -12.349   7.027  72.057  1.00  0.00    -0.302 A  
ENDBRANCH  13  18
ENDBRANCH   4   6
ENDBRANCH   3   4
ENDBRANCH   2   3
TORSDOF 6
ENDMDL
MODEL       98
REMARK 921   NORMALIZED FREE ENERGY PREDICTED BY IDOCK:   -3.96 KCAL/MOL
REMARK 922        TOTAL FREE ENERGY PREDICTED BY IDOCK:   -6.57 KCAL/MOL
REMARK 923 INTER-LIGAND FREE ENERGY PREDICTED BY IDOCK:   -5.35 KCAL/MOL
REMARK 924 INTRA-LIGAND FREE ENERGY PREDICTED BY IDOCK:   -1.22 KCAL/MOL
REMARK 927      BINDING AFFINITY PREDICTED BY RF-SCORE:    0.00 PKD
ROOT
HETATM    1  C   UNL     1     -10.949   6.556  67.341  1.00  0.00    -0.458 C  
HETATM    2  C   UNL     1      -9.981   7.692  67.586  1.00  0.00    -0.175 C  
ENDROOT
BRANCH   2   3
HETATM    3  O   UNL     1     -10.773   8.882  67.628  1.00  0.00    -0.244 OA 
BRANCH   3   4
HETATM    4  C   UNL     1     -10.790   9.612  68.764  1.00  0.00    -0.168 C  
HETATM    5  O   UNL     1     -11.754   9.785  69.499  1.00  0.00    -0.023 OA 
BRANCH   4   6
HETATM    6  C   UNL     1      -9.405  10.035  69.088  1.00  0.00    -0.200 C  
HETATM    7  C   UNL     1      -8.751   9.612  70.196  1.00  0.00    -0.231 C  
HETATM    8  C   UNL     1      -9.248   8.642  71.244  1.00  0.00    -0.283 C  
HETATM    9  N   UNL     1      -7.479  10.088  70.459  1.00  0.00    -0.283 NA 
HETATM   10  C   UNL     1      -6.832  11.074  69.741  1.00  0.00    -0.116 C  
HETATM   11  C   UNL     1      -5.512  11.514  70.329  1.00  0.00    -0.121 C  
HETATM   12  C   UNL     1      -7.387  11.565  68.604  1.00  0.00    -0.106 C  
HETATM   13  C   UNL     1      -8.744  11.038  68.109  1.00  0.00    -0.141 C  
BRANCH  12  14
HETATM   14  C   UNL     1      -6.671  12.627  67.847  1.00  0.00    -0.109 C  
HETATM   15  O   UNL     1      -6.012  12.426  66.838  1.00  0.00    -0.273 OA 
BRANCH  14  16
HETATM   16  O   UNL     1      -6.852  13.846  68.413  1.00  0.00    -0.083 OA 
HETATM   17  C   UNL     1      -7.198  14.877  67.477  1.00  0.00    -0.201 C  
ENDBRANCH  14  16
ENDBRANCH  12  14
BRANCH  13  18
HETATM   18  C   UNL     1      -9.728  12.141  67.661  1.00  0.00    -0.188 A  
HETATM   19  C   UNL     1     -10.153  13.068  68.643  1.00  0.00    -0.143 A  
HETATM   20  C   UNL     1     -10.932  14.177  68.316  1.00  0.00    -0.266 A  
HETATM   21  C   UNL     1     -10.150  12.345  66.331  1.00  0.00    -0.236 A  
HETATM   22  C   UNL     1     -10.931  13.473  66.008  1.00  0.00    -0.275 A  
HETATM   23 CL   UNL     1      -9.688  11.238  65.078  1.00  0.00    -0.277 Cl 
HETATM   24 CL   UNL     1     -11.427  13.831  64.386  1.00  0.00    -0.392 Cl 
HETATM   25  C   UNL     1     -11.310  14.386  66.997  1.00  0.00    -0.357 A  
ENDBRANCH  13  18
ENDBRANCH   4   6
ENDBRANCH   3   4
ENDBRANCH   2   3
TORSDOF 6
ENDMDL
MODEL       99
REMARK 921   NORMALIZED FREE ENERGY PREDICTED BY IDOCK:   -3.94 KCAL/MOL
REMARK 922        TOTAL FREE ENERGY PREDICTED BY IDOCK:   -6.55 KCAL/MOL
REMARK 923 INTER-LIGAND FREE ENERGY PREDICTED BY IDOCK:   -5.31 KCAL/MOL
REMARK 924 INTRA-LIGAND FREE ENERGY PREDICTED BY IDOCK:   -1.24 KCAL/MOL
REMARK 927      BINDING AFFINITY PREDICTED BY RF-SCORE:    0.00 PKD
ROOT
HETATM    1  C   UNL     1      -6.637   8.624  65.299  1.00  0.00    -0.064 C  
HETATM    2  C   UNL     1      -8.054   8.389  64.822  1.00  0.00    -0.155 C  
ENDROOT
BRANCH   2   3
HETATM    3  O   UNL     1      -8.686   9.672  64.823  1.00  0.00    -0.166 OA 
BRANCH   3   4
HETATM    4  C   UNL     1      -9.792   9.850  65.578  1.00  0.00    -0.311 C  
HETATM    5  O   UNL     1     -10.410   8.977  66.174  1.00  0.00    -0.212 OA 
BRANCH   4   6
HETATM    6  C   UNL     1     -10.049  11.304  65.725  1.00  0.00    -0.294 C  
HETATM    7  C   UNL     1     -10.415  12.092  64.686  1.00  0.00    -0.297 C  
HETATM    8  C   UNL     1     -10.668  11.671  63.256  1.00  0.00    -0.404 C  
HETATM    9  N   UNL     1     -10.589  13.449  64.890  1.00  0.00    -0.362 NA 
HETATM   10  C   UNL     1     -10.305  14.122  66.061  1.00  0.00    -0.309 C  
HETATM   11  C   UNL     1     -10.442  15.624  65.969  1.00  0.00    -0.343 C  
HETATM   12  C   UNL     1      -9.943  13.435  67.173  1.00  0.00    -0.242 C  
HETATM   13  C   UNL     1      -9.831  11.901  67.138  1.00  0.00    -0.206 C  
BRANCH  12  14
HETATM   14  C   UNL     1      -9.642  14.183  68.423  1.00  0.00    -0.225 C  
HETATM   15  O   UNL     1      -8.514  14.470  68.797  1.00  0.00    -0.163 OA 
BRANCH  14  16
HETATM   16  O   UNL     1     -10.776  14.514  69.088  1.00  0.00    -0.248 OA 
HETATM   17  C   UNL     1     -10.596  15.548  70.067  1.00  0.00    -0.324 C  
ENDBRANCH  14  16
ENDBRANCH  12  14
BRANCH  13  18
HETATM   18  C   UNL     1      -8.560  11.341  67.813  1.00  0.00    -0.126 A  
HETATM   19  C   UNL     1      -7.314  11.700  67.244  1.00  0.00    -0.136 A  
HETATM   20  C   UNL     1      -6.106  11.360  67.852  1.00  0.00    -0.050 A  
HETATM   21  C   UNL     1      -8.552  10.585  69.003  1.00  0.00    -0.157 A  
HETATM   22  C   UNL     1      -7.326  10.251  69.614  1.00  0.00    -0.150 A  
HETATM   23 CL   UNL     1     -10.040  10.089  69.744  1.00  0.00    -0.267 Cl 
HETATM   24 CL   UNL     1      -7.236   9.388  71.114  1.00  0.00    -0.056 Cl 
HETATM   25  C   UNL     1      -6.112  10.647  69.043  1.00  0.00    -0.041 A  
ENDBRANCH  13  18
ENDBRANCH   4   6
ENDBRANCH   3   4
ENDBRANCH   2   3
TORSDOF 6
ENDMDL
MODEL      100
REMARK 921   NORMALIZED FREE ENERGY PREDICTED BY IDOCK:   -3.94 KCAL/MOL
REMARK 922        TOTAL FREE ENERGY PREDICTED BY IDOCK:   -6.54 KCAL/MOL
REMARK 923 INTER-LIGAND FREE ENERGY PREDICTED BY IDOCK:   -5.35 KCAL/MOL
REMARK 924 INTRA-LIGAND FREE ENERGY PREDICTED BY IDOCK:   -1.19 KCAL/MOL
REMARK 927      BINDING AFFINITY PREDICTED BY RF-SCORE:    0.00 PKD
ROOT
HETATM    1  C   UNL     1      -9.662  10.138  69.686  1.00  0.00    -0.250 C  
HETATM    2  C   UNL     1      -9.604  10.986  68.434  1.00  0.00    -0.181 C  
ENDROOT
BRANCH   2   3
HETATM    3  O   UNL     1      -8.398  11.748  68.531  1.00  0.00    -0.156 OA 
BRANCH   3   4
HETATM    4  C   UNL     1      -7.797  12.161  67.394  1.00  0.00    -0.168 C  
HETATM    5  O   UNL     1      -7.819  11.585  66.314  1.00  0.00    -0.086 OA 
BRANCH   4   6
HETATM    6  C   UNL     1      -7.247  13.523  67.605  1.00  0.00    -0.175 C  
HETATM    7  C   UNL     1      -6.093  13.751  68.276  1.00  0.00    -0.111 C  
HETATM    8  C   UNL     1      -5.158  12.725  68.876  1.00  0.00    -0.063 C  
HETATM    9  N   UNL     1      -5.668  15.052  68.476  1.00  0.00    -0.092 NA 
HETATM   10  C   UNL     1      -6.386  16.185  68.148  1.00  0.00    -0.122 C  
HETATM   11  C   UNL     1      -5.759  17.479  68.610  1.00  0.00    -0.162 C  
HETATM   12  C   UNL     1      -7.551  16.079  67.460  1.00  0.00    -0.179 C  
HETATM   13  C   UNL     1      -8.090  14.699  67.050  1.00  0.00    -0.153 C  
BRANCH  12  14
HETATM   14  C   UNL     1      -8.306  17.314  67.118  1.00  0.00    -0.201 C  
HETATM   15  O   UNL     1      -9.102  17.862  67.866  1.00  0.00    -0.251 OA 
BRANCH  14  16
HETATM   16  O   UNL     1      -7.991  17.761  65.877  1.00  0.00    -0.523 OA 
HETATM   17  C   UNL     1      -7.534  19.121  65.846  1.00  0.00    -0.238 C  
ENDBRANCH  14  16
ENDBRANCH  12  14
BRANCH  13  18
HETATM   18  C   UNL     1      -9.599  14.503  67.315  1.00  0.00    -0.226 A  
HETATM   19  C   UNL     1     -10.068  14.776  68.623  1.00  0.00    -0.238 A  
HETATM   20  C   UNL     1     -11.427  14.760  68.933  1.00  0.00    -0.321 A  
HETATM   21  C   UNL     1     -10.549  14.168  66.327  1.00  0.00    -0.284 A  
HETATM   22  C   UNL     1     -11.922  14.161  66.647  1.00  0.00    -0.444 A  
HETATM   23 CL   UNL     1     -10.046  13.798  64.709  1.00  0.00    -0.343 Cl 
HETATM   24 CL   UNL     1     -13.152  13.832  65.472  1.00  0.00    -0.369 Cl 
HETATM   25  C   UNL     1     -12.354  14.465  67.942  1.00  0.00    -0.013 A  
ENDBRANCH  13  18
ENDBRANCH   4   6
ENDBRANCH   3   4
ENDBRANCH   2   3
TORSDOF 6
ENDMDL
MODEL      101
REMARK 921   NORMALIZED FREE ENERGY PREDICTED BY IDOCK:   -3.93 KCAL/MOL
REMARK 922        TOTAL FREE ENERGY PREDICTED BY IDOCK:   -6.54 KCAL/MOL
REMARK 923 INTER-LIGAND FREE ENERGY PREDICTED BY IDOCK:   -5.47 KCAL/MOL
REMARK 924 INTRA-LIGAND FREE ENERGY PREDICTED BY IDOCK:   -1.06 KCAL/MOL
REMARK 927      BINDING AFFINITY PREDICTED BY RF-SCORE:    0.00 PKD
ROOT
HETATM    1  C   UNL     1      -8.725  16.163  66.399  1.00  0.00    -0.360 C  
HETATM    2  C   UNL     1      -9.630  15.152  65.728  1.00  0.00    -0.309 C  
ENDROOT
BRANCH   2   3
HETATM    3  O   UNL     1      -9.494  13.943  66.479  1.00  0.00    -0.276 OA 
BRANCH   3   4
HETATM    4  C   UNL     1     -10.257  12.880  66.143  1.00  0.00    -0.278 C  
HETATM    5  O   UNL     1     -10.348  12.378  65.030  1.00  0.00    -0.281 OA 
BRANCH   4   6
HETATM    6  C   UNL     1     -10.839  12.293  67.375  1.00  0.00    -0.277 C  
HETATM    7  C   UNL     1     -11.713  12.963  68.163  1.00  0.00    -0.352 C  
HETATM    8  C   UNL     1     -12.279  14.347  67.941  1.00  0.00    -0.178 C  
HETATM    9  N   UNL     1     -12.176  12.369  69.324  1.00  0.00    -0.131 NA 
HETATM   10  C   UNL     1     -11.733  11.166  69.835  1.00  0.00    -0.355 C  
HETATM   11  C   UNL     1     -12.294  10.818  71.194  1.00  0.00    -0.498 C  
HETATM   12  C   UNL     1     -10.866  10.400  69.126  1.00  0.00    -0.274 C  
HETATM   13  C   UNL     1     -10.359  10.869  67.751  1.00  0.00    -0.218 C  
BRANCH  12  14
HETATM   14  C   UNL     1     -10.402   9.108  69.699  1.00  0.00    -0.219 C  
HETATM   15  O   UNL     1     -10.815   8.013  69.347  1.00  0.00    -0.199 OA 
BRANCH  14  16
HETATM   16  O   UNL     1      -9.456   9.299  70.651  1.00  0.00    -0.235 OA 
HETATM   17  C   UNL     1      -8.334   8.411  70.544  1.00  0.00    -0.126 C  
ENDBRANCH  14  16
ENDBRANCH  12  14
BRANCH  13  18
HETATM   18  C   UNL     1      -8.838  10.698  67.544  1.00  0.00    -0.132 A  
HETATM   19  C   UNL     1      -7.982  11.361  68.455  1.00  0.00    -0.143 A  
HETATM   20  C   UNL     1      -6.601  11.166  68.439  1.00  0.00    -0.058 A  
HETATM   21  C   UNL     1      -8.251   9.855  66.577  1.00  0.00    -0.121 A  
HETATM   22  C   UNL     1      -6.856   9.658  66.572  1.00  0.00    -0.084 A  
HETATM   23 CL   UNL     1      -9.236   9.028  65.413  1.00  0.00    -0.266 Cl 
HETATM   24 CL   UNL     1      -6.069   8.583  65.463  1.00  0.00    -0.048 Cl 
HETATM   25  C   UNL     1      -6.040  10.305  67.505  1.00  0.00    -0.053 A  
ENDBRANCH  13  18
ENDBRANCH   4   6
ENDBRANCH   3   4
ENDBRANCH   2   3
TORSDOF 6
ENDMDL
MODEL      102
REMARK 921   NORMALIZED FREE ENERGY PREDICTED BY IDOCK:   -3.93 KCAL/MOL
REMARK 922        TOTAL FREE ENERGY PREDICTED BY IDOCK:   -6.54 KCAL/MOL
REMARK 923 INTER-LIGAND FREE ENERGY PREDICTED BY IDOCK:   -5.36 KCAL/MOL
REMARK 924 INTRA-LIGAND FREE ENERGY PREDICTED BY IDOCK:   -1.17 KCAL/MOL
REMARK 927      BINDING AFFINITY PREDICTED BY RF-SCORE:    0.00 PKD
ROOT
HETATM    1  C   UNL     1     -10.592   5.038  66.394  1.00  0.00    -0.317 C  
HETATM    2  C   UNL     1      -9.478   6.062  66.408  1.00  0.00    -0.150 C  
ENDROOT
BRANCH   2   3
HETATM    3  O   UNL     1     -10.117   7.336  66.520  1.00  0.00    -0.188 OA 
BRANCH   3   4
HETATM    4  C   UNL     1      -9.422   8.366  67.051  1.00  0.00    -0.174 C  
HETATM    5  O   UNL     1      -8.300   8.729  66.720  1.00  0.00    -0.106 OA 
BRANCH   4   6
HETATM    6  C   UNL     1     -10.301   9.113  67.984  1.00  0.00    -0.272 C  
HETATM    7  C   UNL     1     -10.650  10.407  67.784  1.00  0.00    -0.250 C  
HETATM    8  C   UNL     1     -10.276  11.291  66.616  1.00  0.00    -0.268 C  
HETATM    9  N   UNL     1     -11.432  11.053  68.724  1.00  0.00    -0.279 NA 
HETATM   10  C   UNL     1     -11.812  10.528  69.943  1.00  0.00    -0.282 C  
HETATM   11  C   UNL     1     -12.539  11.499  70.844  1.00  0.00    -0.438 C  
HETATM   12  C   UNL     1     -11.530   9.236  70.247  1.00  0.00    -0.198 C  
HETATM   13  C   UNL     1     -10.775   8.347  69.245  1.00  0.00    -0.139 C  
BRANCH  12  14
HETATM   14  C   UNL     1     -11.949   8.694  71.568  1.00  0.00    -0.306 C  
HETATM   15  O   UNL     1     -11.246   8.702  72.568  1.00  0.00    -0.329 OA 
BRANCH  14  16
HETATM   16  O   UNL     1     -13.211   8.201  71.523  1.00  0.00    -0.322 OA 
HETATM   17  C   UNL     1     -14.066   8.695  72.564  1.00  0.00    -0.306 C  
ENDBRANCH  14  16
ENDBRANCH  12  14
BRANCH  13  18
HETATM   18  C   UNL     1      -9.641   7.507  69.870  1.00  0.00    -0.160 A  
HETATM   19  C   UNL     1      -9.853   6.111  69.978  1.00  0.00    -0.207 A  
HETATM   20  C   UNL     1      -8.844   5.247  70.403  1.00  0.00    -0.146 A  
HETATM   21  C   UNL     1      -8.380   8.016  70.247  1.00  0.00    -0.125 A  
HETATM   22  C   UNL     1      -7.364   7.135  70.669  1.00  0.00    -0.075 A  
HETATM   23 CL   UNL     1      -8.056   9.718  70.164  1.00  0.00    -0.196 Cl 
HETATM   24 CL   UNL     1      -5.770   7.676  71.078  1.00  0.00    -0.034 Cl 
HETATM   25  C   UNL     1      -7.597   5.757  70.736  1.00  0.00    -0.092 A  
ENDBRANCH  13  18
ENDBRANCH   4   6
ENDBRANCH   3   4
ENDBRANCH   2   3
TORSDOF 6
ENDMDL
MODEL      103
REMARK 921   NORMALIZED FREE ENERGY PREDICTED BY IDOCK:   -3.92 KCAL/MOL
REMARK 922        TOTAL FREE ENERGY PREDICTED BY IDOCK:   -6.52 KCAL/MOL
REMARK 923 INTER-LIGAND FREE ENERGY PREDICTED BY IDOCK:   -5.65 KCAL/MOL
REMARK 924 INTRA-LIGAND FREE ENERGY PREDICTED BY IDOCK:   -0.87 KCAL/MOL
REMARK 927      BINDING AFFINITY PREDICTED BY RF-SCORE:    0.00 PKD
ROOT
HETATM    1  C   UNL     1      -8.829   9.048  64.469  1.00  0.00    -0.123 C  
HETATM    2  C   UNL     1      -9.355  10.453  64.269  1.00  0.00    -0.277 C  
ENDROOT
BRANCH   2   3
HETATM    3  O   UNL     1      -9.990  10.813  65.499  1.00  0.00    -0.235 OA 
BRANCH   3   4
HETATM    4  C   UNL     1      -9.219  11.198  66.539  1.00  0.00    -0.179 C  
HETATM    5  O   UNL     1      -8.040  11.525  66.484  1.00  0.00    -0.164 OA 
BRANCH   4   6
HETATM    6  C   UNL     1     -10.070  11.340  67.746  1.00  0.00    -0.199 C  
HETATM    7  C   UNL     1     -10.790  10.314  68.259  1.00  0.00    -0.255 C  
HETATM    8  C   UNL     1     -10.837   8.885  67.765  1.00  0.00    -0.106 C  
HETATM    9  N   UNL     1     -11.600  10.533  69.358  1.00  0.00    -0.259 NA 
HETATM   10  C   UNL     1     -11.845  11.763  69.935  1.00  0.00    -0.348 C  
HETATM   11  C   UNL     1     -12.886  11.746  71.030  1.00  0.00    -0.309 C  
HETATM   12  C   UNL     1     -11.170  12.862  69.512  1.00  0.00    -0.143 C  
HETATM   13  C   UNL     1     -10.136  12.752  68.380  1.00  0.00    -0.226 C  
BRANCH  12  14
HETATM   14  C   UNL     1     -11.452  14.177  70.149  1.00  0.00    -0.163 C  
HETATM   15  O   UNL     1     -10.694  14.741  70.923  1.00  0.00     0.046 OA 
BRANCH  14  16
HETATM   16  O   UNL     1     -12.651  14.673  69.753  1.00  0.00    -0.250 OA 
HETATM   17  C   UNL     1     -13.359  15.375  70.785  1.00  0.00    -0.334 C  
ENDBRANCH  14  16
ENDBRANCH  12  14
BRANCH  13  18
HETATM   18  C   UNL     1     -10.245  13.861  67.310  1.00  0.00    -0.249 A  
HETATM   19  C   UNL     1     -11.349  13.800  66.425  1.00  0.00    -0.327 A  
HETATM   20  C   UNL     1     -11.614  14.821  65.513  1.00  0.00    -0.301 A  
HETATM   21  C   UNL     1      -9.383  14.973  67.219  1.00  0.00    -0.202 A  
HETATM   22  C   UNL     1      -9.663  16.004  66.298  1.00  0.00    -0.306 A  
HETATM   23 CL   UNL     1      -7.998  15.104  68.254  1.00  0.00    -0.125 Cl 
HETATM   24 CL   UNL     1      -8.693  17.435  66.178  1.00  0.00    -0.231 Cl 
HETATM   25  C   UNL     1     -10.779  15.928  65.459  1.00  0.00    -0.386 A  
ENDBRANCH  13  18
ENDBRANCH   4   6
ENDBRANCH   3   4
ENDBRANCH   2   3
TORSDOF 6
ENDMDL
MODEL      104
REMARK 921   NORMALIZED FREE ENERGY PREDICTED BY IDOCK:   -3.92 KCAL/MOL
REMARK 922        TOTAL FREE ENERGY PREDICTED BY IDOCK:   -6.51 KCAL/MOL
REMARK 923 INTER-LIGAND FREE ENERGY PREDICTED BY IDOCK:   -5.67 KCAL/MOL
REMARK 924 INTRA-LIGAND FREE ENERGY PREDICTED BY IDOCK:   -0.84 KCAL/MOL
REMARK 927      BINDING AFFINITY PREDICTED BY RF-SCORE:    0.00 PKD
ROOT
HETATM    1  C   UNL     1     -12.376  12.198  63.516  1.00  0.00    -0.682 C  
HETATM    2  C   UNL     1     -12.405  12.708  64.940  1.00  0.00    -0.498 C  
ENDROOT
BRANCH   2   3
HETATM    3  O   UNL     1     -11.655  11.765  65.711  1.00  0.00    -0.312 OA 
BRANCH   3   4
HETATM    4  C   UNL     1     -11.528  11.967  67.040  1.00  0.00    -0.316 C  
HETATM    5  O   UNL     1     -12.254  11.511  67.914  1.00  0.00    -0.586 OA 
BRANCH   4   6
HETATM    6  C   UNL     1     -10.257  12.687  67.301  1.00  0.00    -0.227 C  
HETATM    7  C   UNL     1     -10.186  14.036  67.394  1.00  0.00    -0.248 C  
HETATM    8  C   UNL     1     -11.325  15.027  67.304  1.00  0.00    -0.337 C  
HETATM    9  N   UNL     1      -8.957  14.641  67.590  1.00  0.00    -0.181 NA 
HETATM   10  C   UNL     1      -7.739  13.991  67.585  1.00  0.00    -0.177 C  
HETATM   11  C   UNL     1      -6.541  14.907  67.671  1.00  0.00    -0.189 C  
HETATM   12  C   UNL     1      -7.688  12.637  67.511  1.00  0.00    -0.161 C  
HETATM   13  C   UNL     1      -8.983  11.813  67.419  1.00  0.00    -0.173 C  
BRANCH  12  14
HETATM   14  C   UNL     1      -6.363  11.960  67.506  1.00  0.00    -0.105 C  
HETATM   15  O   UNL     1      -5.697  11.762  66.501  1.00  0.00    -0.232 OA 
BRANCH  14  16
HETATM   16  O   UNL     1      -5.985  11.603  68.758  1.00  0.00    -0.047 OA 
HETATM   17  C   UNL     1      -5.748  10.196  68.915  1.00  0.00    -0.034 C  
ENDBRANCH  14  16
ENDBRANCH  12  14
BRANCH  13  18
HETATM   18  C   UNL     1      -8.950  10.694  66.357  1.00  0.00    -0.176 A  
HETATM   19  C   UNL     1      -8.816  11.090  65.003  1.00  0.00    -0.093 A  
HETATM   20  C   UNL     1      -8.642  10.157  63.981  1.00  0.00    -0.197 A  
HETATM   21  C   UNL     1      -8.944   9.313  66.647  1.00  0.00    -0.140 A  
HETATM   22  C   UNL     1      -8.760   8.379  65.608  1.00  0.00    -0.172 A  
HETATM   23 CL   UNL     1      -9.126   8.754  68.278  1.00  0.00    -0.141 Cl 
HETATM   24 CL   UNL     1      -8.668   6.672  65.894  1.00  0.00    -0.157 Cl 
HETATM   25  C   UNL     1      -8.601   8.803  64.285  1.00  0.00    -0.093 A  
ENDBRANCH  13  18
ENDBRANCH   4   6
ENDBRANCH   3   4
ENDBRANCH   2   3
TORSDOF 6
ENDMDL
MODEL      105
REMARK 921   NORMALIZED FREE ENERGY PREDICTED BY IDOCK:   -3.89 KCAL/MOL
REMARK 922        TOTAL FREE ENERGY PREDICTED BY IDOCK:   -6.48 KCAL/MOL
REMARK 923 INTER-LIGAND FREE ENERGY PREDICTED BY IDOCK:   -5.06 KCAL/MOL
REMARK 924 INTRA-LIGAND FREE ENERGY PREDICTED BY IDOCK:   -1.42 KCAL/MOL
REMARK 927      BINDING AFFINITY PREDICTED BY RF-SCORE:    0.00 PKD
ROOT
HETATM    1  C   UNL     1      -8.536  13.743  67.983  1.00  0.00    -0.176 C  
HETATM    2  C   UNL     1      -7.450  13.148  68.853  1.00  0.00     0.011 C  
ENDROOT
BRANCH   2   3
HETATM    3  O   UNL     1      -7.136  11.878  68.276  1.00  0.00    -0.070 OA 
BRANCH   3   4
HETATM    4  C   UNL     1      -7.041  10.802  69.086  1.00  0.00    -0.101 C  
HETATM    5  O   UNL     1      -6.895  10.822  70.302  1.00  0.00    -0.234 OA 
BRANCH   4   6
HETATM    6  C   UNL     1      -7.321   9.576  68.299  1.00  0.00    -0.077 C  
HETATM    7  C   UNL     1      -6.518   9.151  67.295  1.00  0.00    -0.060 C  
HETATM    8  C   UNL     1      -5.222   9.773  66.827  1.00  0.00    -0.041 C  
HETATM    9  N   UNL     1      -6.870   8.026  66.572  1.00  0.00    -0.066 NA 
HETATM   10  C   UNL     1      -8.058   7.335  66.700  1.00  0.00    -0.113 C  
HETATM   11  C   UNL     1      -8.255   6.233  65.686  1.00  0.00    -0.143 C  
HETATM   12  C   UNL     1      -8.936   7.663  67.682  1.00  0.00    -0.127 C  
HETATM   13  C   UNL     1      -8.623   8.814  68.652  1.00  0.00    -0.134 C  
BRANCH  12  14
HETATM   14  C   UNL     1     -10.210   6.904  67.799  1.00  0.00    -0.180 C  
HETATM   15  O   UNL     1     -11.139   6.995  67.010  1.00  0.00    -0.373 OA 
BRANCH  14  16
HETATM   16  O   UNL     1     -10.204   6.091  68.885  1.00  0.00    -0.164 OA 
HETATM   17  C   UNL     1     -11.338   6.266  69.748  1.00  0.00    -0.436 C  
ENDBRANCH  14  16
ENDBRANCH  12  14
BRANCH  13  18
HETATM   18  C   UNL     1      -9.806   9.775  68.899  1.00  0.00    -0.177 A  
HETATM   19  C   UNL     1     -10.295  10.499  67.785  1.00  0.00    -0.248 A  
HETATM   20  C   UNL     1     -11.441  11.290  67.871  1.00  0.00    -0.360 A  
HETATM   21  C   UNL     1     -10.490   9.905  70.126  1.00  0.00    -0.285 A  
HETATM   22  C   UNL     1     -11.651  10.701  70.202  1.00  0.00    -0.330 A  
HETATM   23 CL   UNL     1      -9.935   9.066  71.539  1.00  0.00    -0.389 Cl 
HETATM   24 CL   UNL     1     -12.586  10.852  71.653  1.00  0.00    -0.469 Cl 
HETATM   25  C   UNL     1     -12.126  11.380  69.075  1.00  0.00    -0.316 A  
ENDBRANCH  13  18
ENDBRANCH   4   6
ENDBRANCH   3   4
ENDBRANCH   2   3
TORSDOF 6
ENDMDL
MODEL      106
REMARK 921   NORMALIZED FREE ENERGY PREDICTED BY IDOCK:   -3.86 KCAL/MOL
REMARK 922        TOTAL FREE ENERGY PREDICTED BY IDOCK:   -6.44 KCAL/MOL
REMARK 923 INTER-LIGAND FREE ENERGY PREDICTED BY IDOCK:   -5.56 KCAL/MOL
REMARK 924 INTRA-LIGAND FREE ENERGY PREDICTED BY IDOCK:   -0.88 KCAL/MOL
REMARK 927      BINDING AFFINITY PREDICTED BY RF-SCORE:    0.00 PKD
ROOT
HETATM    1  C   UNL     1      -9.487   9.020  65.951  1.00  0.00    -0.317 C  
HETATM    2  C   UNL     1      -9.709   7.572  66.331  1.00  0.00    -0.110 C  
ENDROOT
BRANCH   2   3
HETATM    3  O   UNL     1      -9.416   7.482  67.727  1.00  0.00    -0.140 OA 
BRANCH   3   4
HETATM    4  C   UNL     1     -10.174   6.675  68.500  1.00  0.00    -0.171 C  
HETATM    5  O   UNL     1     -11.233   6.151  68.177  1.00  0.00    -0.314 OA 
BRANCH   4   6
HETATM    6  C   UNL     1      -9.438   6.370  69.752  1.00  0.00    -0.160 C  
HETATM    7  C   UNL     1      -9.158   5.106  70.147  1.00  0.00    -0.128 C  
HETATM    8  C   UNL     1      -9.476   3.821  69.416  1.00  0.00    -0.257 C  
HETATM    9  N   UNL     1      -8.511   4.897  71.352  1.00  0.00    -0.115 NA 
HETATM   10  C   UNL     1      -8.215   5.877  72.278  1.00  0.00    -0.111 C  
HETATM   11  C   UNL     1      -7.641   5.359  73.576  1.00  0.00    -0.096 C  
HETATM   12  C   UNL     1      -8.440   7.183  71.986  1.00  0.00    -0.113 C  
HETATM   13  C   UNL     1      -9.037   7.585  70.627  1.00  0.00    -0.155 C  
BRANCH  12  14
HETATM   14  C   UNL     1      -8.113   8.221  73.000  1.00  0.00    -0.149 C  
HETATM   15  O   UNL     1      -8.709   8.358  74.058  1.00  0.00    -0.167 OA 
BRANCH  14  16
HETATM   16  O   UNL     1      -7.063   8.985  72.608  1.00  0.00    -0.328 OA 
HETATM   17  C   UNL     1      -5.836   8.680  73.286  1.00  0.00    -0.099 C  
ENDBRANCH  14  16
ENDBRANCH  12  14
BRANCH  13  18
HETATM   18  C   UNL     1     -10.168   8.632  70.715  1.00  0.00    -0.250 A  
HETATM   19  C   UNL     1     -10.005   9.825  69.969  1.00  0.00    -0.299 A  
HETATM   20  C   UNL     1     -11.023  10.774  69.872  1.00  0.00    -0.304 A  
HETATM   21  C   UNL     1     -11.384   8.442  71.403  1.00  0.00    -0.264 A  
HETATM   22  C   UNL     1     -12.410   9.403  71.294  1.00  0.00    -0.341 A  
HETATM   23 CL   UNL     1     -11.645   7.017  72.356  1.00  0.00    -0.298 Cl 
HETATM   24 CL   UNL     1     -13.957   9.206  72.050  1.00  0.00    -0.438 Cl 
HETATM   25  C   UNL     1     -12.229  10.557  70.524  1.00  0.00    -0.435 A  
ENDBRANCH  13  18
ENDBRANCH   4   6
ENDBRANCH   3   4
ENDBRANCH   2   3
TORSDOF 6
ENDMDL
MODEL      107
REMARK 921   NORMALIZED FREE ENERGY PREDICTED BY IDOCK:   -3.84 KCAL/MOL
REMARK 922        TOTAL FREE ENERGY PREDICTED BY IDOCK:   -6.41 KCAL/MOL
REMARK 923 INTER-LIGAND FREE ENERGY PREDICTED BY IDOCK:   -5.34 KCAL/MOL
REMARK 924 INTRA-LIGAND FREE ENERGY PREDICTED BY IDOCK:   -1.07 KCAL/MOL
REMARK 927      BINDING AFFINITY PREDICTED BY RF-SCORE:    0.00 PKD
ROOT
HETATM    1  C   UNL     1      -9.841   4.300  65.562  1.00  0.00    -0.221 C  
HETATM    2  C   UNL     1      -9.503   3.879  66.976  1.00  0.00    -0.200 C  
ENDROOT
BRANCH   2   3
HETATM    3  O   UNL     1     -10.057   4.884  67.828  1.00  0.00    -0.153 OA 
BRANCH   3   4
HETATM    4  C   UNL     1      -9.229   5.576  68.640  1.00  0.00    -0.122 C  
HETATM    5  O   UNL     1      -8.557   5.113  69.553  1.00  0.00    -0.091 OA 
BRANCH   4   6
HETATM    6  C   UNL     1      -9.115   6.970  68.142  1.00  0.00    -0.128 C  
HETATM    7  C   UNL     1      -8.110   7.378  67.332  1.00  0.00    -0.113 C  
HETATM    8  C   UNL     1      -6.989   6.539  66.761  1.00  0.00    -0.067 C  
HETATM    9  N   UNL     1      -8.042   8.706  66.949  1.00  0.00    -0.098 NA 
HETATM   10  C   UNL     1      -8.859   9.714  67.419  1.00  0.00    -0.128 C  
HETATM   11  C   UNL     1      -8.475  11.099  66.953  1.00  0.00    -0.147 C  
HETATM   12  C   UNL     1      -9.908   9.421  68.228  1.00  0.00    -0.180 C  
HETATM   13  C   UNL     1     -10.192   7.967  68.638  1.00  0.00    -0.223 C  
BRANCH  12  14
HETATM   14  C   UNL     1     -10.774  10.526  68.722  1.00  0.00    -0.216 C  
HETATM   15  O   UNL     1     -10.673  11.034  69.829  1.00  0.00    -0.197 OA 
BRANCH  14  16
HETATM   16  O   UNL     1     -11.679  10.904  67.786  1.00  0.00    -0.569 OA 
HETATM   17  C   UNL     1     -11.664  12.309  67.495  1.00  0.00    -0.332 C  
ENDBRANCH  14  16
ENDBRANCH  12  14
BRANCH  13  18
HETATM   18  C   UNL     1     -10.505   7.781  70.139  1.00  0.00    -0.231 A  
HETATM   19  C   UNL     1     -11.734   7.161  70.472  1.00  0.00    -0.314 A  
HETATM   20  C   UNL     1     -12.053   6.825  71.788  1.00  0.00    -0.393 A  
HETATM   21  C   UNL     1      -9.615   8.093  71.188  1.00  0.00    -0.160 A  
HETATM   22  C   UNL     1      -9.942   7.744  72.514  1.00  0.00    -0.225 A  
HETATM   23 CL   UNL     1      -8.102   8.874  70.858  1.00  0.00    -0.174 Cl 
HETATM   24 CL   UNL     1      -8.870   8.029  73.845  1.00  0.00    -0.320 Cl 
HETATM   25  C   UNL     1     -11.152   7.105  72.806  1.00  0.00    -0.339 A  
ENDBRANCH  13  18
ENDBRANCH   4   6
ENDBRANCH   3   4
ENDBRANCH   2   3
TORSDOF 6
ENDMDL
MODEL      108
REMARK 921   NORMALIZED FREE ENERGY PREDICTED BY IDOCK:   -3.84 KCAL/MOL
REMARK 922        TOTAL FREE ENERGY PREDICTED BY IDOCK:   -6.41 KCAL/MOL
REMARK 923 INTER-LIGAND FREE ENERGY PREDICTED BY IDOCK:   -5.13 KCAL/MOL
REMARK 924 INTRA-LIGAND FREE ENERGY PREDICTED BY IDOCK:   -1.28 KCAL/MOL
REMARK 927      BINDING AFFINITY PREDICTED BY RF-SCORE:    0.00 PKD
ROOT
HETATM    1  C   UNL     1      -8.899   9.575  63.257  1.00  0.00    -0.233 C  
HETATM    2  C   UNL     1      -8.142   8.556  64.081  1.00  0.00    -0.154 C  
ENDROOT
BRANCH   2   3
HETATM    3  O   UNL     1      -7.192   9.299  64.849  1.00  0.00    -0.098 OA 
BRANCH   3   4
HETATM    4  C   UNL     1      -7.265   9.252  66.196  1.00  0.00    -0.091 C  
HETATM    5  O   UNL     1      -6.800   8.376  66.916  1.00  0.00    -0.067 OA 
BRANCH   4   6
HETATM    6  C   UNL     1      -7.847  10.522  66.695  1.00  0.00    -0.125 C  
HETATM    7  C   UNL     1      -7.093  11.608  66.987  1.00  0.00    -0.145 C  
HETATM    8  C   UNL     1      -5.596  11.759  66.829  1.00  0.00    -0.113 C  
HETATM    9  N   UNL     1      -7.700  12.742  67.496  1.00  0.00    -0.157 NA 
HETATM   10  C   UNL     1      -9.029  12.841  67.856  1.00  0.00    -0.186 C  
HETATM   11  C   UNL     1      -9.401  14.143  68.525  1.00  0.00    -0.191 C  
HETATM   12  C   UNL     1      -9.884  11.819  67.599  1.00  0.00    -0.192 C  
HETATM   13  C   UNL     1      -9.381  10.536  66.916  1.00  0.00    -0.181 C  
BRANCH  12  14
HETATM   14  C   UNL     1     -11.311  11.949  67.998  1.00  0.00    -0.288 C  
HETATM   15  O   UNL     1     -12.240  12.029  67.208  1.00  0.00    -0.496 OA 
BRANCH  14  16
HETATM   16  O   UNL     1     -11.450  11.956  69.347  1.00  0.00    -0.270 OA 
HETATM   17  C   UNL     1     -12.293  10.909  69.851  1.00  0.00    -0.285 C  
ENDBRANCH  14  16
ENDBRANCH  12  14
BRANCH  13  18
HETATM   18  C   UNL     1      -9.883   9.230  67.569  1.00  0.00    -0.224 A  
HETATM   19  C   UNL     1     -10.635   8.347  66.756  1.00  0.00    -0.227 A  
HETATM   20  C   UNL     1     -11.019   7.085  67.207  1.00  0.00    -0.372 A  
HETATM   21  C   UNL     1      -9.563   8.815  68.879  1.00  0.00    -0.158 A  
HETATM   22  C   UNL     1      -9.950   7.534  69.323  1.00  0.00    -0.179 A  
HETATM   23 CL   UNL     1      -8.665   9.853  69.939  1.00  0.00    -0.231 Cl 
HETATM   24 CL   UNL     1      -9.532   6.925  70.891  1.00  0.00    -0.158 Cl 
HETATM   25  C   UNL     1     -10.666   6.674  68.485  1.00  0.00    -0.308 A  
ENDBRANCH  13  18
ENDBRANCH   4   6
ENDBRANCH   3   4
ENDBRANCH   2   3
TORSDOF 6
ENDMDL
MODEL      109
REMARK 921   NORMALIZED FREE ENERGY PREDICTED BY IDOCK:   -3.83 KCAL/MOL
REMARK 922        TOTAL FREE ENERGY PREDICTED BY IDOCK:   -6.40 KCAL/MOL
REMARK 923 INTER-LIGAND FREE ENERGY PREDICTED BY IDOCK:   -5.20 KCAL/MOL
REMARK 924 INTRA-LIGAND FREE ENERGY PREDICTED BY IDOCK:   -1.20 KCAL/MOL
REMARK 927      BINDING AFFINITY PREDICTED BY RF-SCORE:    0.00 PKD
ROOT
HETATM    1  C   UNL     1      -8.509  13.371  67.529  1.00  0.00    -0.192 C  
HETATM    2  C   UNL     1      -7.525  12.771  68.509  1.00  0.00    -0.120 C  
ENDROOT
BRANCH   2   3
HETATM    3  O   UNL     1      -7.373  11.402  68.124  1.00  0.00    -0.084 OA 
BRANCH   3   4
HETATM    4  C   UNL     1      -7.296  10.460  69.089  1.00  0.00    -0.102 C  
HETATM    5  O   UNL     1      -7.162  10.664  70.290  1.00  0.00    -0.208 OA 
BRANCH   4   6
HETATM    6  C   UNL     1      -7.581   9.131  68.494  1.00  0.00    -0.085 C  
HETATM    7  C   UNL     1      -6.677   8.455  67.746  1.00  0.00    -0.066 C  
HETATM    8  C   UNL     1      -5.258   8.867  67.421  1.00  0.00    -0.034 C  
HETATM    9  N   UNL     1      -7.031   7.243  67.181  1.00  0.00    -0.076 NA 
HETATM   10  C   UNL     1      -8.295   6.689  67.210  1.00  0.00    -0.120 C  
HETATM   11  C   UNL     1      -8.447   5.431  66.388  1.00  0.00    -0.114 C  
HETATM   12  C   UNL     1      -9.280   7.273  67.939  1.00  0.00    -0.131 C  
HETATM   13  C   UNL     1      -9.002   8.561  68.731  1.00  0.00    -0.139 C  
BRANCH  12  14
HETATM   14  C   UNL     1     -10.634   6.658  67.953  1.00  0.00    -0.247 C  
HETATM   15  O   UNL     1     -11.330   6.506  66.960  1.00  0.00    -0.342 OA 
BRANCH  14  16
HETATM   16  O   UNL     1     -10.993   6.277  69.204  1.00  0.00    -0.306 OA 
HETATM   17  C   UNL     1     -10.232   5.174  69.718  1.00  0.00    -0.287 C  
ENDBRANCH  14  16
ENDBRANCH  12  14
BRANCH  13  18
HETATM   18  C   UNL     1     -10.092   9.645  68.582  1.00  0.00    -0.196 A  
HETATM   19  C   UNL     1     -10.695  10.124  69.770  1.00  0.00    -0.317 A  
HETATM   20  C   UNL     1     -11.591  11.194  69.758  1.00  0.00    -0.409 A  
HETATM   21  C   UNL     1     -10.453  10.256  67.363  1.00  0.00    -0.251 A  
HETATM   22  C   UNL     1     -11.354  11.340  67.361  1.00  0.00    -0.276 A  
HETATM   23 CL   UNL     1      -9.773   9.706  65.865  1.00  0.00    -0.321 Cl 
HETATM   24 CL   UNL     1     -11.790  12.188  65.914  1.00  0.00    -0.416 Cl 
HETATM   25  C   UNL     1     -11.910  11.809  68.556  1.00  0.00    -0.365 A  
ENDBRANCH  13  18
ENDBRANCH   4   6
ENDBRANCH   3   4
ENDBRANCH   2   3
TORSDOF 6
ENDMDL
MODEL      110
REMARK 921   NORMALIZED FREE ENERGY PREDICTED BY IDOCK:   -3.83 KCAL/MOL
REMARK 922        TOTAL FREE ENERGY PREDICTED BY IDOCK:   -6.39 KCAL/MOL
REMARK 923 INTER-LIGAND FREE ENERGY PREDICTED BY IDOCK:   -5.47 KCAL/MOL
REMARK 924 INTRA-LIGAND FREE ENERGY PREDICTED BY IDOCK:   -0.92 KCAL/MOL
REMARK 927      BINDING AFFINITY PREDICTED BY RF-SCORE:    0.00 PKD
ROOT
HETATM    1  C   UNL     1     -11.501  12.004  64.105  1.00  0.00    -0.460 C  
HETATM    2  C   UNL     1     -10.342  11.032  64.064  1.00  0.00    -0.371 C  
ENDROOT
BRANCH   2   3
HETATM    3  O   UNL     1     -10.327  10.386  65.340  1.00  0.00    -0.275 OA 
BRANCH   3   4
HETATM    4  C   UNL     1      -9.699  10.995  66.368  1.00  0.00    -0.201 C  
HETATM    5  O   UNL     1      -8.780  11.801  66.280  1.00  0.00    -0.181 OA 
BRANCH   4   6
HETATM    6  C   UNL     1     -10.412  10.676  67.629  1.00  0.00    -0.267 C  
HETATM    7  C   UNL     1     -11.152  11.587  68.304  1.00  0.00    -0.239 C  
HETATM    8  C   UNL     1     -11.426  13.022  67.912  1.00  0.00    -0.352 C  
HETATM    9  N   UNL     1     -11.747  11.230  69.500  1.00  0.00    -0.313 NA 
HETATM   10  C   UNL     1     -11.563  10.029  70.156  1.00  0.00    -0.252 C  
HETATM   11  C   UNL     1     -12.210   9.953  71.518  1.00  0.00    -0.505 C  
HETATM   12  C   UNL     1     -10.850   9.034  69.569  1.00  0.00    -0.177 C  
HETATM   13  C   UNL     1     -10.232   9.236  68.176  1.00  0.00    -0.246 C  
BRANCH  12  14
HETATM   14  C   UNL     1     -10.665   7.749  70.295  1.00  0.00    -0.236 C  
HETATM   15  O   UNL     1     -11.523   6.885  70.393  1.00  0.00    -0.308 OA 
BRANCH  14  16
HETATM   16  O   UNL     1      -9.420   7.655  70.825  1.00  0.00    -0.162 OA 
HETATM   17  C   UNL     1      -9.368   7.905  72.237  1.00  0.00    -0.180 C  
ENDBRANCH  14  16
ENDBRANCH  12  14
BRANCH  13  18
HETATM   18  C   UNL     1      -8.772   8.750  68.052  1.00  0.00    -0.141 A  
HETATM   19  C   UNL     1      -7.778   9.512  68.713  1.00  0.00    -0.080 A  
HETATM   20  C   UNL     1      -6.451   9.087  68.777  1.00  0.00    -0.053 A  
HETATM   21  C   UNL     1      -8.376   7.556  67.415  1.00  0.00    -0.112 A  
HETATM   22  C   UNL     1      -7.034   7.131  67.490  1.00  0.00    -0.079 A  
HETATM   23 CL   UNL     1      -9.535   6.583  66.566  1.00  0.00    -0.193 Cl 
HETATM   24 CL   UNL     1      -6.487   5.640  66.796  1.00  0.00    -0.049 Cl 
HETATM   25  C   UNL     1      -6.082   7.891  68.177  1.00  0.00    -0.042 A  
ENDBRANCH  13  18
ENDBRANCH   4   6
ENDBRANCH   3   4
ENDBRANCH   2   3
TORSDOF 6
ENDMDL
MODEL      111
REMARK 921   NORMALIZED FREE ENERGY PREDICTED BY IDOCK:   -3.83 KCAL/MOL
REMARK 922        TOTAL FREE ENERGY PREDICTED BY IDOCK:   -6.39 KCAL/MOL
REMARK 923 INTER-LIGAND FREE ENERGY PREDICTED BY IDOCK:   -5.17 KCAL/MOL
REMARK 924 INTRA-LIGAND FREE ENERGY PREDICTED BY IDOCK:   -1.22 KCAL/MOL
REMARK 927      BINDING AFFINITY PREDICTED BY RF-SCORE:    0.00 PKD
ROOT
HETATM    1  C   UNL     1      -6.367  11.640  67.310  1.00  0.00    -0.118 C  
HETATM    2  C   UNL     1      -5.745  11.287  68.644  1.00  0.00    -0.042 C  
ENDROOT
BRANCH   2   3
HETATM    3  O   UNL     1      -6.830  10.912  69.496  1.00  0.00    -0.097 OA 
BRANCH   3   4
HETATM    4  C   UNL     1      -7.290   9.643  69.441  1.00  0.00    -0.081 C  
HETATM    5  O   UNL     1      -6.712   8.685  68.944  1.00  0.00    -0.052 OA 
BRANCH   4   6
HETATM    6  C   UNL     1      -8.537   9.544  70.240  1.00  0.00    -0.258 C  
HETATM    7  C   UNL     1      -8.684   8.669  71.263  1.00  0.00    -0.194 C  
HETATM    8  C   UNL     1      -7.654   7.701  71.801  1.00  0.00    -0.086 C  
HETATM    9  N   UNL     1      -9.893   8.599  71.930  1.00  0.00    -0.288 NA 
HETATM   10  C   UNL     1     -11.042   9.275  71.571  1.00  0.00    -0.373 C  
HETATM   11  C   UNL     1     -12.264   8.906  72.378  1.00  0.00    -0.365 C  
HETATM   12  C   UNL     1     -11.011  10.189  70.569  1.00  0.00    -0.380 C  
HETATM   13  C   UNL     1      -9.702  10.473  69.814  1.00  0.00    -0.010 C  
BRANCH  12  14
HETATM   14  C   UNL     1     -12.262  10.904  70.200  1.00  0.00    -0.343 C  
HETATM   15  O   UNL     1     -13.204  10.386  69.618  1.00  0.00     0.118 OA 
BRANCH  14  16
HETATM   16  O   UNL     1     -12.230  12.200  70.600  1.00  0.00    -0.372 OA 
HETATM   17  C   UNL     1     -12.946  12.451  71.818  1.00  0.00    -0.316 C  
ENDBRANCH  14  16
ENDBRANCH  12  14
BRANCH  13  18
HETATM   18  C   UNL     1      -9.855  10.541  68.280  1.00  0.00    -0.162 A  
HETATM   19  C   UNL     1      -9.983   9.313  67.586  1.00  0.00    -0.245 A  
HETATM   20  C   UNL     1     -10.260   9.268  66.220  1.00  0.00    -0.273 A  
HETATM   21  C   UNL     1      -9.974  11.736  67.538  1.00  0.00    -0.192 A  
HETATM   22  C   UNL     1     -10.261  11.680  66.159  1.00  0.00    -0.226 A  
HETATM   23 CL   UNL     1      -9.805  13.277  68.316  1.00  0.00    -0.230 Cl 
HETATM   24 CL   UNL     1     -10.493  13.103  65.197  1.00  0.00    -0.320 Cl 
HETATM   25  C   UNL     1     -10.411  10.451  65.510  1.00  0.00    -0.265 A  
ENDBRANCH  13  18
ENDBRANCH   4   6
ENDBRANCH   3   4
ENDBRANCH   2   3
TORSDOF 6
ENDMDL
MODEL      112
REMARK 921   NORMALIZED FREE ENERGY PREDICTED BY IDOCK:   -3.82 KCAL/MOL
REMARK 922        TOTAL FREE ENERGY PREDICTED BY IDOCK:   -6.38 KCAL/MOL
REMARK 923 INTER-LIGAND FREE ENERGY PREDICTED BY IDOCK:   -5.48 KCAL/MOL
REMARK 924 INTRA-LIGAND FREE ENERGY PREDICTED BY IDOCK:   -0.90 KCAL/MOL
REMARK 927      BINDING AFFINITY PREDICTED BY RF-SCORE:    0.00 PKD
ROOT
HETATM    1  C   UNL     1      -6.295  11.166  67.831  1.00  0.00    -0.054 C  
HETATM    2  C   UNL     1      -5.408  12.381  67.666  1.00  0.00    -0.103 C  
ENDROOT
BRANCH   2   3
HETATM    3  O   UNL     1      -6.266  13.436  67.225  1.00  0.00    -0.313 OA 
BRANCH   3   4
HETATM    4  C   UNL     1      -7.015  14.089  68.139  1.00  0.00    -0.120 C  
HETATM    5  O   UNL     1      -6.912  14.001  69.356  1.00  0.00    -0.110 OA 
BRANCH   4   6
HETATM    6  C   UNL     1      -7.876  15.077  67.443  1.00  0.00    -0.226 C  
HETATM    7  C   UNL     1      -7.698  16.414  67.559  1.00  0.00    -0.142 C  
HETATM    8  C   UNL     1      -6.620  17.135  68.337  1.00  0.00    -0.164 C  
HETATM    9  N   UNL     1      -8.572  17.276  66.920  1.00  0.00    -0.229 NA 
HETATM   10  C   UNL     1      -9.715  16.896  66.246  1.00  0.00    -0.280 C  
HETATM   11  C   UNL     1     -10.571  18.045  65.769  1.00  0.00    -0.174 C  
HETATM   12  C   UNL     1      -9.991  15.581  66.056  1.00  0.00    -0.356 C  
HETATM   13  C   UNL     1      -9.041  14.500  66.598  1.00  0.00    -0.277 C  
BRANCH  12  14
HETATM   14  C   UNL     1     -11.230  15.197  65.327  1.00  0.00    -0.358 C  
HETATM   15  O   UNL     1     -11.386  15.328  64.122  1.00  0.00    -0.146 OA 
BRANCH  14  16
HETATM   16  O   UNL     1     -12.157  14.674  66.168  1.00  0.00    -0.318 OA 
HETATM   17  C   UNL     1     -12.959  13.641  65.578  1.00  0.00    -0.271 C  
ENDBRANCH  14  16
ENDBRANCH  12  14
BRANCH  13  18
HETATM   18  C   UNL     1      -9.751  13.332  67.314  1.00  0.00    -0.231 A  
HETATM   19  C   UNL     1     -10.479  13.640  68.489  1.00  0.00    -0.249 A  
HETATM   20  C   UNL     1     -11.265  12.685  69.136  1.00  0.00    -0.300 A  
HETATM   21  C   UNL     1      -9.805  12.009  66.829  1.00  0.00    -0.204 A  
HETATM   22  C   UNL     1     -10.607  11.052  67.485  1.00  0.00    -0.227 A  
HETATM   23 CL   UNL     1      -8.920  11.553  65.409  1.00  0.00    -0.062 Cl 
HETATM   24 CL   UNL     1     -10.782   9.428  66.908  1.00  0.00    -0.234 Cl 
HETATM   25  C   UNL     1     -11.338  11.396  68.626  1.00  0.00    -0.327 A  
ENDBRANCH  13  18
ENDBRANCH   4   6
ENDBRANCH   3   4
ENDBRANCH   2   3
TORSDOF 6
ENDMDL
MODEL      113
REMARK 921   NORMALIZED FREE ENERGY PREDICTED BY IDOCK:   -3.81 KCAL/MOL
REMARK 922        TOTAL FREE ENERGY PREDICTED BY IDOCK:   -6.37 KCAL/MOL
REMARK 923 INTER-LIGAND FREE ENERGY PREDICTED BY IDOCK:   -5.20 KCAL/MOL
REMARK 924 INTRA-LIGAND FREE ENERGY PREDICTED BY IDOCK:   -1.17 KCAL/MOL
REMARK 927      BINDING AFFINITY PREDICTED BY RF-SCORE:    0.00 PKD
ROOT
HETATM    1  C   UNL     1      -9.581   7.648  73.331  1.00  0.00    -0.346 C  
HETATM    2  C   UNL     1      -9.607   8.531  72.102  1.00  0.00    -0.312 C  
ENDROOT
BRANCH   2   3
HETATM    3  O   UNL     1      -9.543   7.645  70.981  1.00  0.00    -0.163 OA 
BRANCH   3   4
HETATM    4  C   UNL     1     -10.686   7.085  70.529  1.00  0.00    -0.238 C  
HETATM    5  O   UNL     1     -11.813   7.549  70.643  1.00  0.00    -0.267 OA 
BRANCH   4   6
HETATM    6  C   UNL     1     -10.350   5.896  69.707  1.00  0.00    -0.309 C  
HETATM    7  C   UNL     1      -9.958   4.719  70.248  1.00  0.00    -0.250 C  
HETATM    8  C   UNL     1      -9.833   4.376  71.716  1.00  0.00    -0.253 C  
HETATM    9  N   UNL     1      -9.613   3.668  69.416  1.00  0.00    -0.174 NA 
HETATM   10  C   UNL     1      -9.516   3.740  68.041  1.00  0.00    -0.164 C  
HETATM   11  C   UNL     1      -8.975   2.491  67.386  1.00  0.00    -0.187 C  
HETATM   12  C   UNL     1      -9.895   4.866  67.387  1.00  0.00    -0.213 C  
HETATM   13  C   UNL     1     -10.426   6.079  68.170  1.00  0.00    -0.292 C  
BRANCH  12  14
HETATM   14  C   UNL     1      -9.780   4.919  65.905  1.00  0.00    -0.184 C  
HETATM   15  O   UNL     1      -8.758   5.219  65.306  1.00  0.00    -0.147 OA 
BRANCH  14  16
HETATM   16  O   UNL     1     -10.949   4.582  65.304  1.00  0.00    -0.252 OA 
HETATM   17  C   UNL     1     -10.785   3.877  64.066  1.00  0.00    -0.208 C  
ENDBRANCH  14  16
ENDBRANCH  12  14
BRANCH  13  18
HETATM   18  C   UNL     1      -9.836   7.433  67.719  1.00  0.00    -0.187 A  
HETATM   19  C   UNL     1     -10.749   8.425  67.285  1.00  0.00    -0.230 A  
HETATM   20  C   UNL     1     -10.334   9.722  66.986  1.00  0.00    -0.305 A  
HETATM   21  C   UNL     1      -8.472   7.780  67.803  1.00  0.00    -0.121 A  
HETATM   22  C   UNL     1      -8.062   9.096  67.505  1.00  0.00    -0.104 A  
HETATM   23 CL   UNL     1      -7.293   6.611  68.305  1.00  0.00    -0.088 Cl 
HETATM   24 CL   UNL     1      -6.416   9.617  67.655  1.00  0.00    -0.061 Cl 
HETATM   25  C   UNL     1      -8.993  10.061  67.108  1.00  0.00    -0.146 A  
ENDBRANCH  13  18
ENDBRANCH   4   6
ENDBRANCH   3   4
ENDBRANCH   2   3
TORSDOF 6
ENDMDL
MODEL      114
REMARK 921   NORMALIZED FREE ENERGY PREDICTED BY IDOCK:   -3.75 KCAL/MOL
REMARK 922        TOTAL FREE ENERGY PREDICTED BY IDOCK:   -6.29 KCAL/MOL
REMARK 923 INTER-LIGAND FREE ENERGY PREDICTED BY IDOCK:   -5.27 KCAL/MOL
REMARK 924 INTRA-LIGAND FREE ENERGY PREDICTED BY IDOCK:   -1.02 KCAL/MOL
REMARK 927      BINDING AFFINITY PREDICTED BY RF-SCORE:    0.00 PKD
ROOT
HETATM    1  C   UNL     1      -8.785   9.393  65.898  1.00  0.00    -0.177 C  
HETATM    2  C   UNL     1      -9.822   9.890  64.916  1.00  0.00    -0.212 C  
ENDROOT
BRANCH   2   3
HETATM    3  O   UNL     1      -9.947  11.295  65.153  1.00  0.00    -0.236 OA 
BRANCH   3   4
HETATM    4  C   UNL     1     -10.954  11.734  65.939  1.00  0.00    -0.304 C  
HETATM    5  O   UNL     1     -11.751  11.034  66.552  1.00  0.00    -0.134 OA 
BRANCH   4   6
HETATM    6  C   UNL     1     -10.842  13.205  66.095  1.00  0.00    -0.293 C  
HETATM    7  C   UNL     1     -11.280  14.076  65.156  1.00  0.00    -0.329 C  
HETATM    8  C   UNL     1     -11.977  13.753  63.853  1.00  0.00    -0.414 C  
HETATM    9  N   UNL     1     -11.096  15.434  65.348  1.00  0.00    -0.342 NA 
HETATM   10  C   UNL     1     -10.382  16.003  66.384  1.00  0.00    -0.305 C  
HETATM   11  C   UNL     1     -10.207  17.499  66.276  1.00  0.00    -0.356 C  
HETATM   12  C   UNL     1      -9.906  15.228  67.391  1.00  0.00    -0.217 C  
HETATM   13  C   UNL     1     -10.144  13.709  67.384  1.00  0.00    -0.241 C  
BRANCH  12  14
HETATM   14  C   UNL     1      -9.139  15.864  68.495  1.00  0.00    -0.200 C  
HETATM   15  O   UNL     1      -9.567  16.017  69.630  1.00  0.00    -0.236 OA 
BRANCH  14  16
HETATM   16  O   UNL     1      -7.902  16.241  68.087  1.00  0.00    -0.149 OA 
HETATM   17  C   UNL     1      -7.375  17.373  68.795  1.00  0.00    -0.257 C  
ENDBRANCH  14  16
ENDBRANCH  12  14
BRANCH  13  18
HETATM   18  C   UNL     1      -8.897  12.868  67.732  1.00  0.00    -0.188 A  
HETATM   19  C   UNL     1      -7.674  13.241  67.122  1.00  0.00    -0.018 A  
HETATM   20  C   UNL     1      -6.467  12.635  67.469  1.00  0.00    -0.158 A  
HETATM   21  C   UNL     1      -8.872  11.827  68.683  1.00  0.00    -0.060 A  
HETATM   22  C   UNL     1      -7.646  11.225  69.033  1.00  0.00    -0.106 A  
HETATM   23 CL   UNL     1     -10.334  11.301  69.454  1.00  0.00    -0.108 Cl 
HETATM   24 CL   UNL     1      -7.525   9.991  70.244  1.00  0.00    -0.176 Cl 
HETATM   25  C   UNL     1      -6.451  11.636  68.433  1.00  0.00    -0.052 A  
ENDBRANCH  13  18
ENDBRANCH   4   6
ENDBRANCH   3   4
ENDBRANCH   2   3
TORSDOF 6
ENDMDL
MODEL      115
REMARK 921   NORMALIZED FREE ENERGY PREDICTED BY IDOCK:   -3.73 KCAL/MOL
REMARK 922        TOTAL FREE ENERGY PREDICTED BY IDOCK:   -6.27 KCAL/MOL
REMARK 923 INTER-LIGAND FREE ENERGY PREDICTED BY IDOCK:   -4.84 KCAL/MOL
REMARK 924 INTRA-LIGAND FREE ENERGY PREDICTED BY IDOCK:   -1.42 KCAL/MOL
REMARK 927      BINDING AFFINITY PREDICTED BY RF-SCORE:    0.00 PKD
ROOT
HETATM    1  C   UNL     1     -13.869   9.077  72.012  1.00  0.00    -0.501 C  
HETATM    2  C   UNL     1     -12.367   8.894  71.975  1.00  0.00    -0.390 C  
ENDROOT
BRANCH   2   3
HETATM    3  O   UNL     1     -12.130   7.520  72.293  1.00  0.00    -0.287 OA 
BRANCH   3   4
HETATM    4  C   UNL     1     -10.881   7.139  72.637  1.00  0.00    -0.279 C  
HETATM    5  O   UNL     1     -10.191   7.633  73.520  1.00  0.00    -0.334 OA 
BRANCH   4   6
HETATM    6  C   UNL     1     -10.531   5.901  71.898  1.00  0.00    -0.267 C  
HETATM    7  C   UNL     1     -10.586   4.671  72.461  1.00  0.00    -0.179 C  
HETATM    8  C   UNL     1     -11.032   4.319  73.863  1.00  0.00    -0.304 C  
HETATM    9  N   UNL     1     -10.197   3.567  71.725  1.00  0.00    -0.065 NA 
HETATM   10  C   UNL     1      -9.630   3.607  70.467  1.00  0.00    -0.186 C  
HETATM   11  C   UNL     1      -9.159   2.269  69.948  1.00  0.00    -0.173 C  
HETATM   12  C   UNL     1      -9.536   4.784  69.798  1.00  0.00    -0.233 C  
HETATM   13  C   UNL     1     -10.047   6.086  70.437  1.00  0.00    -0.249 C  
BRANCH  12  14
HETATM   14  C   UNL     1      -8.920   4.802  68.443  1.00  0.00    -0.111 C  
HETATM   15  O   UNL     1      -7.726   4.956  68.234  1.00  0.00    -0.081 OA 
BRANCH  14  16
HETATM   16  O   UNL     1      -9.850   4.615  67.474  1.00  0.00    -0.171 OA 
HETATM   17  C   UNL     1     -10.038   5.753  66.621  1.00  0.00    -0.193 C  
ENDBRANCH  14  16
ENDBRANCH  12  14
BRANCH  13  18
HETATM   18  C   UNL     1      -9.084   7.284  70.295  1.00  0.00    -0.152 A  
HETATM   19  C   UNL     1      -7.834   7.191  70.953  1.00  0.00    -0.095 A  
HETATM   20  C   UNL     1      -6.841   8.156  70.780  1.00  0.00    -0.038 A  
HETATM   21  C   UNL     1      -9.323   8.411  69.482  1.00  0.00    -0.158 A  
HETATM   22  C   UNL     1      -8.311   9.378  69.307  1.00  0.00    -0.131 A  
HETATM   23 CL   UNL     1     -10.840   8.604  68.663  1.00  0.00    -0.078 Cl 
HETATM   24 CL   UNL     1      -8.503  10.751  68.267  1.00  0.00    -0.125 Cl 
HETATM   25  C   UNL     1      -7.075   9.242  69.948  1.00  0.00    -0.064 A  
ENDBRANCH  13  18
ENDBRANCH   4   6
ENDBRANCH   3   4
ENDBRANCH   2   3
TORSDOF 6
ENDMDL
MODEL      116
REMARK 921   NORMALIZED FREE ENERGY PREDICTED BY IDOCK:   -3.72 KCAL/MOL
REMARK 922        TOTAL FREE ENERGY PREDICTED BY IDOCK:   -6.24 KCAL/MOL
REMARK 923 INTER-LIGAND FREE ENERGY PREDICTED BY IDOCK:   -4.96 KCAL/MOL
REMARK 924 INTRA-LIGAND FREE ENERGY PREDICTED BY IDOCK:   -1.28 KCAL/MOL
REMARK 927      BINDING AFFINITY PREDICTED BY RF-SCORE:    0.00 PKD
ROOT
HETATM    1  C   UNL     1     -11.782  12.343  67.213  1.00  0.00    -0.419 C  
HETATM    2  C   UNL     1     -11.872  11.449  68.431  1.00  0.00    -0.274 C  
ENDROOT
BRANCH   2   3
HETATM    3  O   UNL     1     -11.163  10.254  68.095  1.00  0.00    -0.278 OA 
BRANCH   3   4
HETATM    4  C   UNL     1      -9.823  10.226  68.257  1.00  0.00    -0.146 C  
HETATM    5  O   UNL     1      -9.170  10.943  69.005  1.00  0.00    -0.176 OA 
BRANCH   4   6
HETATM    6  C   UNL     1      -9.269   9.064  67.519  1.00  0.00    -0.152 C  
HETATM    7  C   UNL     1      -9.246   9.000  66.166  1.00  0.00    -0.216 C  
HETATM    8  C   UNL     1      -9.708  10.054  65.186  1.00  0.00    -0.380 C  
HETATM    9  N   UNL     1      -8.760   7.862  65.547  1.00  0.00    -0.123 NA 
HETATM   10  C   UNL     1      -8.389   6.700  66.193  1.00  0.00    -0.130 C  
HETATM   11  C   UNL     1      -8.035   5.556  65.272  1.00  0.00    -0.112 C  
HETATM   12  C   UNL     1      -8.360   6.652  67.549  1.00  0.00    -0.121 C  
HETATM   13  C   UNL     1      -8.751   7.885  68.380  1.00  0.00    -0.131 C  
BRANCH  12  14
HETATM   14  C   UNL     1      -7.958   5.387  68.222  1.00  0.00    -0.088 C  
HETATM   15  O   UNL     1      -8.697   4.426  68.374  1.00  0.00    -0.096 OA 
BRANCH  14  16
HETATM   16  O   UNL     1      -6.667   5.434  68.634  1.00  0.00    -0.050 OA 
HETATM   17  C   UNL     1      -6.513   5.533  70.057  1.00  0.00    -0.034 C  
ENDBRANCH  14  16
ENDBRANCH  12  14
BRANCH  13  18
HETATM   18  C   UNL     1      -9.691   7.580  69.567  1.00  0.00    -0.164 A  
HETATM   19  C   UNL     1     -10.917   6.936  69.272  1.00  0.00    -0.260 A  
HETATM   20  C   UNL     1     -11.775   6.496  70.280  1.00  0.00    -0.430 A  
HETATM   21  C   UNL     1      -9.370   7.806  70.921  1.00  0.00    -0.153 A  
HETATM   22  C   UNL     1     -10.240   7.352  71.934  1.00  0.00    -0.187 A  
HETATM   23 CL   UNL     1      -7.896   8.610  71.357  1.00  0.00    -0.148 Cl 
HETATM   24 CL   UNL     1      -9.881   7.529  73.620  1.00  0.00    -0.358 Cl 
HETATM   25  C   UNL     1     -11.430   6.693  71.610  1.00  0.00    -0.332 A  
ENDBRANCH  13  18
ENDBRANCH   4   6
ENDBRANCH   3   4
ENDBRANCH   2   3
TORSDOF 6
ENDMDL
MODEL      117
REMARK 921   NORMALIZED FREE ENERGY PREDICTED BY IDOCK:   -3.71 KCAL/MOL
REMARK 922        TOTAL FREE ENERGY PREDICTED BY IDOCK:   -6.23 KCAL/MOL
REMARK 923 INTER-LIGAND FREE ENERGY PREDICTED BY IDOCK:   -5.02 KCAL/MOL
REMARK 924 INTRA-LIGAND FREE ENERGY PREDICTED BY IDOCK:   -1.21 KCAL/MOL
REMARK 927      BINDING AFFINITY PREDICTED BY RF-SCORE:    0.00 PKD
ROOT
HETATM    1  C   UNL     1     -11.845  12.428  63.484  1.00  0.00    -0.605 C  
HETATM    2  C   UNL     1     -11.535  13.139  64.783  1.00  0.00    -0.323 C  
ENDROOT
BRANCH   2   3
HETATM    3  O   UNL     1     -11.512  12.125  65.790  1.00  0.00    -0.347 OA 
BRANCH   3   4
HETATM    4  C   UNL     1     -10.482  12.099  66.663  1.00  0.00    -0.220 C  
HETATM    5  O   UNL     1      -9.752  13.040  66.949  1.00  0.00    -0.225 OA 
BRANCH   4   6
HETATM    6  C   UNL     1     -10.476  10.793  67.367  1.00  0.00    -0.268 C  
HETATM    7  C   UNL     1     -11.098  10.598  68.554  1.00  0.00    -0.263 C  
HETATM    8  C   UNL     1     -11.918  11.597  69.339  1.00  0.00    -0.381 C  
HETATM    9  N   UNL     1     -11.007   9.366  69.176  1.00  0.00    -0.149 NA 
HETATM   10  C   UNL     1     -10.222   8.313  68.749  1.00  0.00    -0.210 C  
HETATM   11  C   UNL     1     -10.189   7.133  69.691  1.00  0.00    -0.215 C  
HETATM   12  C   UNL     1      -9.563   8.390  67.565  1.00  0.00    -0.194 C  
HETATM   13  C   UNL     1      -9.672   9.652  66.694  1.00  0.00    -0.266 C  
BRANCH  12  14
HETATM   14  C   UNL     1      -8.723   7.243  67.126  1.00  0.00    -0.121 C  
HETATM   15  O   UNL     1      -9.075   6.410  66.304  1.00  0.00    -0.153 OA 
BRANCH  14  16
HETATM   16  O   UNL     1      -7.517   7.246  67.745  1.00  0.00    -0.096 OA 
HETATM   17  C   UNL     1      -7.026   5.938  68.071  1.00  0.00    -0.069 C  
ENDBRANCH  14  16
ENDBRANCH  12  14
BRANCH  13  18
HETATM   18  C   UNL     1      -8.324  10.152  66.128  1.00  0.00    -0.131 A  
HETATM   19  C   UNL     1      -7.371  10.634  67.058  1.00  0.00    -0.102 A  
HETATM   20  C   UNL     1      -6.078  10.982  66.667  1.00  0.00    -0.124 A  
HETATM   21  C   UNL     1      -7.944  10.068  64.773  1.00  0.00    -0.144 A  
HETATM   22  C   UNL     1      -6.633  10.415  64.388  1.00  0.00    -0.014 A  
HETATM   23 CL   UNL     1      -9.067   9.508  63.574  1.00  0.00    -0.220 Cl 
HETATM   24 CL   UNL     1      -6.071  10.271  62.755  1.00  0.00    -0.132 Cl 
HETATM   25  C   UNL     1      -5.706  10.861  65.335  1.00  0.00    -0.047 A  
ENDBRANCH  13  18
ENDBRANCH   4   6
ENDBRANCH   3   4
ENDBRANCH   2   3
TORSDOF 6
ENDMDL
MODEL      118
REMARK 921   NORMALIZED FREE ENERGY PREDICTED BY IDOCK:   -3.70 KCAL/MOL
REMARK 922        TOTAL FREE ENERGY PREDICTED BY IDOCK:   -6.22 KCAL/MOL
REMARK 923 INTER-LIGAND FREE ENERGY PREDICTED BY IDOCK:   -5.20 KCAL/MOL
REMARK 924 INTRA-LIGAND FREE ENERGY PREDICTED BY IDOCK:   -1.01 KCAL/MOL
REMARK 927      BINDING AFFINITY PREDICTED BY RF-SCORE:    0.00 PKD
ROOT
HETATM    1  C   UNL     1      -5.253   8.184  68.978  1.00  0.00    -0.027 C  
HETATM    2  C   UNL     1      -6.693   8.432  68.587  1.00  0.00    -0.059 C  
ENDROOT
BRANCH   2   3
HETATM    3  O   UNL     1      -6.795   9.834  68.328  1.00  0.00    -0.067 OA 
BRANCH   3   4
HETATM    4  C   UNL     1      -6.771  10.262  67.047  1.00  0.00    -0.079 C  
HETATM    5  O   UNL     1      -6.258   9.679  66.099  1.00  0.00    -0.065 OA 
BRANCH   4   6
HETATM    6  C   UNL     1      -7.623  11.470  66.923  1.00  0.00    -0.151 C  
HETATM    7  C   UNL     1      -7.221  12.695  67.335  1.00  0.00    -0.138 C  
HETATM    8  C   UNL     1      -5.881  13.074  67.927  1.00  0.00    -0.128 C  
HETATM    9  N   UNL     1      -8.089  13.767  67.233  1.00  0.00    -0.167 NA 
HETATM   10  C   UNL     1      -9.412  13.687  66.847  1.00  0.00    -0.262 C  
HETATM   11  C   UNL     1     -10.179  14.983  66.966  1.00  0.00    -0.257 C  
HETATM   12  C   UNL     1      -9.924  12.512  66.402  1.00  0.00    -0.262 C  
HETATM   13  C   UNL     1      -9.040  11.255  66.333  1.00  0.00    -0.201 C  
BRANCH  12  14
HETATM   14  C   UNL     1     -11.352  12.450  65.992  1.00  0.00    -0.353 C  
HETATM   15  O   UNL     1     -12.253  12.030  66.703  1.00  0.00    -0.550 OA 
BRANCH  14  16
HETATM   16  O   UNL     1     -11.529  12.930  64.736  1.00  0.00    -0.302 OA 
HETATM   17  C   UNL     1     -11.795  11.915  63.757  1.00  0.00    -0.458 C  
ENDBRANCH  14  16
ENDBRANCH  12  14
BRANCH  13  18
HETATM   18  C   UNL     1      -9.709   9.978  66.887  1.00  0.00    -0.237 A  
HETATM   19  C   UNL     1      -9.777   8.857  66.024  1.00  0.00    -0.308 A  
HETATM   20  C   UNL     1     -10.238   7.617  66.468  1.00  0.00    -0.178 A  
HETATM   21  C   UNL     1     -10.163   9.821  68.213  1.00  0.00    -0.183 A  
HETATM   22  C   UNL     1     -10.621   8.564  68.654  1.00  0.00    -0.118 A  
HETATM   23 CL   UNL     1     -10.131  11.157  69.319  1.00  0.00    -0.133 Cl 
HETATM   24 CL   UNL     1     -11.126   8.275  70.287  1.00  0.00    -0.247 Cl 
HETATM   25  C   UNL     1     -10.647   7.468  67.786  1.00  0.00    -0.274 A  
ENDBRANCH  13  18
ENDBRANCH   4   6
ENDBRANCH   3   4
ENDBRANCH   2   3
TORSDOF 6
ENDMDL
MODEL      119
REMARK 921   NORMALIZED FREE ENERGY PREDICTED BY IDOCK:   -3.68 KCAL/MOL
REMARK 922        TOTAL FREE ENERGY PREDICTED BY IDOCK:   -6.19 KCAL/MOL
REMARK 923 INTER-LIGAND FREE ENERGY PREDICTED BY IDOCK:   -5.77 KCAL/MOL
REMARK 924 INTRA-LIGAND FREE ENERGY PREDICTED BY IDOCK:   -0.42 KCAL/MOL
REMARK 927      BINDING AFFINITY PREDICTED BY RF-SCORE:    0.00 PKD
ROOT
HETATM    1  C   UNL     1     -13.871  16.048  72.982  1.00  0.00    -0.389 C  
HETATM    2  C   UNL     1     -12.591  15.333  72.606  1.00  0.00    -0.378 C  
ENDROOT
BRANCH   2   3
HETATM    3  O   UNL     1     -12.197  15.872  71.342  1.00  0.00    -0.412 OA 
BRANCH   3   4
HETATM    4  C   UNL     1     -11.027  15.469  70.800  1.00  0.00    -0.325 C  
HETATM    5  O   UNL     1     -10.007  15.178  71.414  1.00  0.00     0.970 OA 
BRANCH   4   6
HETATM    6  C   UNL     1     -11.215  15.256  69.344  1.00  0.00    -0.291 C  
HETATM    7  C   UNL     1     -11.788  14.141  68.834  1.00  0.00    -0.347 C  
HETATM    8  C   UNL     1     -12.364  12.970  69.599  1.00  0.00    -0.104 C  
HETATM    9  N   UNL     1     -11.884  13.990  67.462  1.00  0.00    -0.387 NA 
HETATM   10  C   UNL     1     -11.331  14.841  66.527  1.00  0.00    -0.344 C  
HETATM   11  C   UNL     1     -11.455  14.367  65.098  1.00  0.00    -0.362 C  
HETATM   12  C   UNL     1     -10.742  15.999  66.920  1.00  0.00    -0.262 C  
HETATM   13  C   UNL     1     -10.673  16.369  68.411  1.00  0.00    -0.327 C  
BRANCH  12  14
HETATM   14  C   UNL     1     -10.153  16.899  65.893  1.00  0.00    -0.283 C  
HETATM   15  O   UNL     1     -10.738  17.852  65.398  1.00  0.00    -0.634 OA 
BRANCH  14  16
HETATM   16  O   UNL     1      -8.884  16.536  65.584  1.00  0.00    -0.428 OA 
HETATM   17  C   UNL     1      -7.928  17.598  65.711  1.00  0.00     0.138 C  
ENDBRANCH  14  16
ENDBRANCH  12  14
BRANCH  13  18
HETATM   18  C   UNL     1      -9.295  16.890  68.873  1.00  0.00    -0.229 A  
HETATM   19  C   UNL     1      -8.301  15.924  69.161  1.00  0.00    -0.253 A  
HETATM   20  C   UNL     1      -6.987  16.288  69.455  1.00  0.00    -0.212 A  
HETATM   21  C   UNL     1      -8.932  18.252  68.931  1.00  0.00    -0.127 A  
HETATM   22  C   UNL     1      -7.600  18.611  69.223  1.00  0.00    -0.004 A  
HETATM   23 CL   UNL     1     -10.102  19.492  68.614  1.00  0.00    -0.528 Cl 
HETATM   24 CL   UNL     1      -7.061  20.258  69.241  1.00  0.00    -0.098 Cl 
HETATM   25  C   UNL     1      -6.634  17.631  69.473  1.00  0.00    -0.149 A  
ENDBRANCH  13  18
ENDBRANCH   4   6
ENDBRANCH   3   4
ENDBRANCH   2   3
TORSDOF 6
ENDMDL
MODEL      120
REMARK 921   NORMALIZED FREE ENERGY PREDICTED BY IDOCK:   -3.66 KCAL/MOL
REMARK 922        TOTAL FREE ENERGY PREDICTED BY IDOCK:   -6.16 KCAL/MOL
REMARK 923 INTER-LIGAND FREE ENERGY PREDICTED BY IDOCK:   -4.71 KCAL/MOL
REMARK 924 INTRA-LIGAND FREE ENERGY PREDICTED BY IDOCK:   -1.45 KCAL/MOL
REMARK 927      BINDING AFFINITY PREDICTED BY RF-SCORE:    0.00 PKD
ROOT
HETATM    1  C   UNL     1      -6.264   9.340  71.312  1.00  0.00    -0.079 C  
HETATM    2  C   UNL     1      -7.335   8.358  71.736  1.00  0.00    -0.100 C  
ENDROOT
BRANCH   2   3
HETATM    3  O   UNL     1      -8.583   9.020  71.517  1.00  0.00    -0.303 OA 
BRANCH   3   4
HETATM    4  C   UNL     1      -9.527   8.398  70.778  1.00  0.00    -0.169 C  
HETATM    5  O   UNL     1     -10.057   7.325  71.036  1.00  0.00    -0.192 OA 
BRANCH   4   6
HETATM    6  C   UNL     1      -9.961   9.303  69.685  1.00  0.00    -0.201 C  
HETATM    7  C   UNL     1     -11.089  10.048  69.755  1.00  0.00    -0.274 C  
HETATM    8  C   UNL     1     -12.058  10.144  70.912  1.00  0.00    -0.453 C  
HETATM    9  N   UNL     1     -11.456  10.831  68.676  1.00  0.00    -0.291 NA 
HETATM   10  C   UNL     1     -10.827  10.841  67.447  1.00  0.00    -0.290 C  
HETATM   11  C   UNL     1     -11.519  11.674  66.395  1.00  0.00    -0.238 C  
HETATM   12  C   UNL     1      -9.679  10.141  67.263  1.00  0.00    -0.203 C  
HETATM   13  C   UNL     1      -9.073   9.322  68.415  1.00  0.00    -0.128 C  
BRANCH  12  14
HETATM   14  C   UNL     1      -9.019  10.166  65.929  1.00  0.00    -0.157 C  
HETATM   15  O   UNL     1      -9.340   9.451  64.992  1.00  0.00    -0.251 OA 
BRANCH  14  16
HETATM   16  O   UNL     1      -8.028  11.090  65.884  1.00  0.00    -0.140 OA 
HETATM   17  C   UNL     1      -6.725  10.534  65.656  1.00  0.00    -0.110 C  
ENDBRANCH  14  16
ENDBRANCH  12  14
BRANCH  13  18
HETATM   18  C   UNL     1      -8.611   7.905  68.011  1.00  0.00    -0.126 A  
HETATM   19  C   UNL     1      -7.263   7.563  68.278  1.00  0.00    -0.093 A  
HETATM   20  C   UNL     1      -6.781   6.270  68.077  1.00  0.00    -0.064 A  
HETATM   21  C   UNL     1      -9.457   6.904  67.491  1.00  0.00    -0.128 A  
HETATM   22  C   UNL     1      -8.963   5.598  67.297  1.00  0.00    -0.111 A  
HETATM   23 CL   UNL     1     -11.114   7.256  67.117  1.00  0.00    -0.288 Cl 
HETATM   24 CL   UNL     1      -9.960   4.298  66.730  1.00  0.00    -0.234 Cl 
HETATM   25  C   UNL     1      -7.634   5.285  67.599  1.00  0.00    -0.088 A  
ENDBRANCH  13  18
ENDBRANCH   4   6
ENDBRANCH   3   4
ENDBRANCH   2   3
TORSDOF 6
ENDMDL
MODEL      121
REMARK 921   NORMALIZED FREE ENERGY PREDICTED BY IDOCK:   -3.65 KCAL/MOL
REMARK 922        TOTAL FREE ENERGY PREDICTED BY IDOCK:   -6.15 KCAL/MOL
REMARK 923 INTER-LIGAND FREE ENERGY PREDICTED BY IDOCK:   -5.75 KCAL/MOL
REMARK 924 INTRA-LIGAND FREE ENERGY PREDICTED BY IDOCK:   -0.40 KCAL/MOL
REMARK 927      BINDING AFFINITY PREDICTED BY RF-SCORE:    0.00 PKD
ROOT
HETATM    1  C   UNL     1     -12.546  15.681  70.617  1.00  0.00    -0.461 C  
HETATM    2  C   UNL     1     -12.277  14.594  69.600  1.00  0.00    -0.283 C  
ENDROOT
BRANCH   2   3
HETATM    3  O   UNL     1     -11.914  15.267  68.392  1.00  0.00    -0.303 OA 
BRANCH   3   4
HETATM    4  C   UNL     1     -11.397  14.544  67.375  1.00  0.00    -0.356 C  
HETATM    5  O   UNL     1     -11.973  14.237  66.339  1.00  0.00    -0.402 OA 
BRANCH   4   6
HETATM    6  C   UNL     1      -9.951  14.323  67.624  1.00  0.00    -0.225 C  
HETATM    7  C   UNL     1      -9.478  13.238  68.282  1.00  0.00    -0.209 C  
HETATM    8  C   UNL     1     -10.274  12.073  68.827  1.00  0.00    -0.145 C  
HETATM    9  N   UNL     1      -8.120  13.125  68.521  1.00  0.00    -0.124 NA 
HETATM   10  C   UNL     1      -7.179  14.097  68.246  1.00  0.00    -0.116 C  
HETATM   11  C   UNL     1      -5.788  13.779  68.743  1.00  0.00    -0.084 C  
HETATM   12  C   UNL     1      -7.535  15.222  67.576  1.00  0.00    -0.216 C  
HETATM   13  C   UNL     1      -8.990  15.433  67.128  1.00  0.00    -0.236 C  
BRANCH  12  14
HETATM   14  C   UNL     1      -6.502  16.255  67.293  1.00  0.00    -0.188 C  
HETATM   15  O   UNL     1      -6.162  16.595  66.170  1.00  0.00    -0.066 OA 
BRANCH  14  16
HETATM   16  O   UNL     1      -5.997  16.778  68.438  1.00  0.00    -0.122 OA 
HETATM   17  C   UNL     1      -5.318  18.029  68.256  1.00  0.00    -0.160 C  
ENDBRANCH  14  16
ENDBRANCH  12  14
BRANCH  13  18
HETATM   18  C   UNL     1      -9.544  16.846  67.413  1.00  0.00    -0.241 A  
HETATM   19  C   UNL     1      -9.282  17.399  68.690  1.00  0.00    -0.265 A  
HETATM   20  C   UNL     1      -9.620  18.715  69.003  1.00  0.00    -0.268 A  
HETATM   21  C   UNL     1     -10.202  17.656  66.463  1.00  0.00    -0.355 A  
HETATM   22  C   UNL     1     -10.533  18.987  66.786  1.00  0.00    -0.431 A  
HETATM   23 CL   UNL     1     -10.577  17.039  64.886  1.00  0.00     0.031 Cl 
HETATM   24 CL   UNL     1     -11.276  20.065  65.649  1.00  0.00     0.028 Cl 
HETATM   25  C   UNL     1     -10.234  19.513  68.047  1.00  0.00    -0.552 A  
ENDBRANCH  13  18
ENDBRANCH   4   6
ENDBRANCH   3   4
ENDBRANCH   2   3
TORSDOF 6
ENDMDL
MODEL      122
REMARK 921   NORMALIZED FREE ENERGY PREDICTED BY IDOCK:   -3.63 KCAL/MOL
REMARK 922        TOTAL FREE ENERGY PREDICTED BY IDOCK:   -6.13 KCAL/MOL
REMARK 923 INTER-LIGAND FREE ENERGY PREDICTED BY IDOCK:   -4.96 KCAL/MOL
REMARK 924 INTRA-LIGAND FREE ENERGY PREDICTED BY IDOCK:   -1.17 KCAL/MOL
REMARK 927      BINDING AFFINITY PREDICTED BY RF-SCORE:    0.00 PKD
ROOT
HETATM    1  C   UNL     1     -13.388   8.952  72.478  1.00  0.00    -0.451 C  
HETATM    2  C   UNL     1     -12.132   8.226  72.045  1.00  0.00    -0.348 C  
ENDROOT
BRANCH   2   3
HETATM    3  O   UNL     1     -11.760   8.799  70.790  1.00  0.00    -0.279 OA 
BRANCH   3   4
HETATM    4  C   UNL     1     -10.540   9.367  70.671  1.00  0.00    -0.290 C  
HETATM    5  O   UNL     1      -9.727   9.529  71.573  1.00  0.00    -0.195 OA 
BRANCH   4   6
HETATM    6  C   UNL     1     -10.255   9.608  69.235  1.00  0.00    -0.215 C  
HETATM    7  C   UNL     1     -10.911  10.540  68.504  1.00  0.00    -0.252 C  
HETATM    8  C   UNL     1     -11.975  11.503  68.982  1.00  0.00    -0.377 C  
HETATM    9  N   UNL     1     -10.626  10.674  67.157  1.00  0.00    -0.245 NA 
HETATM   10  C   UNL     1      -9.792   9.846  66.433  1.00  0.00    -0.227 C  
HETATM   11  C   UNL     1      -9.772  10.121  64.948  1.00  0.00    -0.392 C  
HETATM   12  C   UNL     1      -9.071   8.884  67.062  1.00  0.00    -0.161 C  
HETATM   13  C   UNL     1      -9.183   8.697  68.584  1.00  0.00    -0.138 C  
BRANCH  12  14
HETATM   14  C   UNL     1      -8.180   8.004  66.259  1.00  0.00    -0.116 C  
HETATM   15  O   UNL     1      -8.569   7.051  65.600  1.00  0.00    -0.151 OA 
BRANCH  14  16
HETATM   16  O   UNL     1      -6.886   8.399  66.344  1.00  0.00    -0.068 OA 
HETATM   17  C   UNL     1      -5.939   7.340  66.144  1.00  0.00    -0.036 C  
ENDBRANCH  14  16
ENDBRANCH  12  14
BRANCH  13  18
HETATM   18  C   UNL     1      -9.324   7.227  69.035  1.00  0.00    -0.148 A  
HETATM   19  C   UNL     1     -10.467   6.520  68.589  1.00  0.00    -0.252 A  
HETATM   20  C   UNL     1     -10.623   5.154  68.826  1.00  0.00    -0.030 A  
HETATM   21  C   UNL     1      -8.353   6.518  69.772  1.00  0.00    -0.127 A  
HETATM   22  C   UNL     1      -8.515   5.137  70.001  1.00  0.00    -0.096 A  
HETATM   23 CL   UNL     1      -6.938   7.324  70.371  1.00  0.00    -0.056 Cl 
HETATM   24 CL   UNL     1      -7.331   4.184  70.834  1.00  0.00    -0.040 Cl 
HETATM   25  C   UNL     1      -9.642   4.461  69.521  1.00  0.00    -0.271 A  
ENDBRANCH  13  18
ENDBRANCH   4   6
ENDBRANCH   3   4
ENDBRANCH   2   3
TORSDOF 6
ENDMDL
MODEL      123
REMARK 921   NORMALIZED FREE ENERGY PREDICTED BY IDOCK:   -3.63 KCAL/MOL
REMARK 922        TOTAL FREE ENERGY PREDICTED BY IDOCK:   -6.12 KCAL/MOL
REMARK 923 INTER-LIGAND FREE ENERGY PREDICTED BY IDOCK:   -5.21 KCAL/MOL
REMARK 924 INTRA-LIGAND FREE ENERGY PREDICTED BY IDOCK:   -0.91 KCAL/MOL
REMARK 927      BINDING AFFINITY PREDICTED BY RF-SCORE:    0.00 PKD
ROOT
HETATM    1  C   UNL     1      -5.344  11.620  68.065  1.00  0.00    -0.045 C  
HETATM    2  C   UNL     1      -5.633  11.768  66.587  1.00  0.00    -0.059 C  
ENDROOT
BRANCH   2   3
HETATM    3  O   UNL     1      -5.806  10.440  66.086  1.00  0.00    -0.068 OA 
BRANCH   3   4
HETATM    4  C   UNL     1      -6.862  10.180  65.285  1.00  0.00    -0.137 C  
HETATM    5  O   UNL     1      -6.931  10.405  64.083  1.00  0.00    -0.088 OA 
BRANCH   4   6
HETATM    6  C   UNL     1      -7.872   9.408  66.050  1.00  0.00    -0.099 C  
HETATM    7  C   UNL     1      -7.952   8.057  66.003  1.00  0.00    -0.101 C  
HETATM    8  C   UNL     1      -7.053   7.108  65.243  1.00  0.00    -0.060 C  
HETATM    9  N   UNL     1      -8.952   7.409  66.705  1.00  0.00    -0.140 NA 
HETATM   10  C   UNL     1      -9.983   8.031  67.380  1.00  0.00    -0.207 C  
HETATM   11  C   UNL     1     -11.026   7.090  67.936  1.00  0.00    -0.202 C  
HETATM   12  C   UNL     1     -10.001   9.382  67.505  1.00  0.00    -0.250 C  
HETATM   13  C   UNL     1      -8.881  10.236  66.887  1.00  0.00    -0.141 C  
BRANCH  12  14
HETATM   14  C   UNL     1     -11.123  10.029  68.237  1.00  0.00    -0.190 C  
HETATM   15  O   UNL     1     -11.973  10.731  67.709  1.00  0.00    -0.470 OA 
BRANCH  14  16
HETATM   16  O   UNL     1     -11.089   9.732  69.560  1.00  0.00    -0.232 OA 
HETATM   17  C   UNL     1     -11.537  10.799  70.407  1.00  0.00    -0.339 C  
ENDBRANCH  14  16
ENDBRANCH  12  14
BRANCH  13  18
HETATM   18  C   UNL     1      -9.380  11.481  66.123  1.00  0.00    -0.230 A  
HETATM   19  C   UNL     1      -9.977  11.268  64.857  1.00  0.00    -0.323 A  
HETATM   20  C   UNL     1     -10.580  12.306  64.146  1.00  0.00    -0.408 A  
HETATM   21  C   UNL     1      -9.370  12.794  66.638  1.00  0.00    -0.242 A  
HETATM   22  C   UNL     1      -9.987  13.836  65.917  1.00  0.00    -0.293 A  
HETATM   23 CL   UNL     1      -8.635  13.135  68.172  1.00  0.00    -0.176 Cl 
HETATM   24 CL   UNL     1     -10.080  15.459  66.517  1.00  0.00    -0.268 Cl 
HETATM   25  C   UNL     1     -10.596  13.587  64.682  1.00  0.00    -0.441 A  
ENDBRANCH  13  18
ENDBRANCH   4   6
ENDBRANCH   3   4
ENDBRANCH   2   3
TORSDOF 6
ENDMDL
MODEL      124
REMARK 921   NORMALIZED FREE ENERGY PREDICTED BY IDOCK:   -3.62 KCAL/MOL
REMARK 922        TOTAL FREE ENERGY PREDICTED BY IDOCK:   -6.12 KCAL/MOL
REMARK 923 INTER-LIGAND FREE ENERGY PREDICTED BY IDOCK:   -4.91 KCAL/MOL
REMARK 924 INTRA-LIGAND FREE ENERGY PREDICTED BY IDOCK:   -1.21 KCAL/MOL
REMARK 927      BINDING AFFINITY PREDICTED BY RF-SCORE:    0.00 PKD
ROOT
HETATM    1  C   UNL     1      -7.554   9.341  70.760  1.00  0.00    -0.154 C  
HETATM    2  C   UNL     1      -9.043   9.450  70.509  1.00  0.00    -0.256 C  
ENDROOT
BRANCH   2   3
HETATM    3  O   UNL     1      -9.187  10.284  69.356  1.00  0.00    -0.197 OA 
BRANCH   3   4
HETATM    4  C   UNL     1     -10.327  10.204  68.635  1.00  0.00    -0.188 C  
HETATM    5  O   UNL     1     -11.461  10.092  69.084  1.00  0.00    -0.192 OA 
BRANCH   4   6
HETATM    6  C   UNL     1     -10.015  10.453  67.206  1.00  0.00    -0.229 C  
HETATM    7  C   UNL     1     -10.614  11.429  66.485  1.00  0.00    -0.263 C  
HETATM    8  C   UNL     1     -11.631  12.439  66.969  1.00  0.00    -0.434 C  
HETATM    9  N   UNL     1     -10.309  11.570  65.143  1.00  0.00    -0.266 NA 
HETATM   10  C   UNL     1      -9.512  10.711  64.413  1.00  0.00    -0.269 C  
HETATM   11  C   UNL     1      -9.462  11.009  62.933  1.00  0.00    -0.378 C  
HETATM   12  C   UNL     1      -8.848   9.702  65.033  1.00  0.00    -0.221 C  
HETATM   13  C   UNL     1      -8.986   9.497  66.550  1.00  0.00    -0.173 C  
BRANCH  12  14
HETATM   14  C   UNL     1      -7.996   8.790  64.224  1.00  0.00    -0.146 C  
HETATM   15  O   UNL     1      -8.425   7.862  63.555  1.00  0.00     0.016 OA 
BRANCH  14  16
HETATM   16  O   UNL     1      -6.685   9.126  64.315  1.00  0.00    -0.082 OA 
HETATM   17  C   UNL     1      -5.790   8.007  64.226  1.00  0.00    -0.052 C  
ENDBRANCH  14  16
ENDBRANCH  12  14
BRANCH  13  18
HETATM   18  C   UNL     1      -9.207   8.030  66.975  1.00  0.00    -0.181 A  
HETATM   19  C   UNL     1     -10.504   7.490  66.788  1.00  0.00    -0.319 A  
HETATM   20  C   UNL     1     -10.775   6.141  67.013  1.00  0.00    -0.423 A  
HETATM   21  C   UNL     1      -8.192   7.168  67.441  1.00  0.00    -0.116 A  
HETATM   22  C   UNL     1      -8.474   5.804  67.658  1.00  0.00    -0.103 A  
HETATM   23 CL   UNL     1      -6.587   7.764  67.715  1.00  0.00    -0.058 Cl 
HETATM   24 CL   UNL     1      -7.264   4.670  68.159  1.00  0.00    -0.064 Cl 
HETATM   25  C   UNL     1      -9.758   5.296  67.435  1.00  0.00    -0.162 A  
ENDBRANCH  13  18
ENDBRANCH   4   6
ENDBRANCH   3   4
ENDBRANCH   2   3
TORSDOF 6
ENDMDL
MODEL      125
REMARK 921   NORMALIZED FREE ENERGY PREDICTED BY IDOCK:   -3.60 KCAL/MOL
REMARK 922        TOTAL FREE ENERGY PREDICTED BY IDOCK:   -6.08 KCAL/MOL
REMARK 923 INTER-LIGAND FREE ENERGY PREDICTED BY IDOCK:   -4.95 KCAL/MOL
REMARK 924 INTRA-LIGAND FREE ENERGY PREDICTED BY IDOCK:   -1.13 KCAL/MOL
REMARK 927      BINDING AFFINITY PREDICTED BY RF-SCORE:    0.00 PKD
ROOT
HETATM    1  C   UNL     1     -10.744  11.196  66.215  1.00  0.00    -0.298 C  
HETATM    2  C   UNL     1      -9.863   9.966  66.252  1.00  0.00    -0.245 C  
ENDROOT
BRANCH   2   3
HETATM    3  O   UNL     1      -8.907  10.199  67.290  1.00  0.00    -0.131 OA 
BRANCH   3   4
HETATM    4  C   UNL     1      -8.212   9.150  67.780  1.00  0.00    -0.109 C  
HETATM    5  O   UNL     1      -7.297   8.561  67.217  1.00  0.00    -0.086 OA 
BRANCH   4   6
HETATM    6  C   UNL     1      -8.606   8.925  69.193  1.00  0.00    -0.134 C  
HETATM    7  C   UNL     1      -7.884   9.393  70.238  1.00  0.00    -0.156 C  
HETATM    8  C   UNL     1      -6.626  10.232  70.186  1.00  0.00    -0.138 C  
HETATM    9  N   UNL     1      -8.286   9.100  71.529  1.00  0.00    -0.331 NA 
HETATM   10  C   UNL     1      -9.322   8.254  71.868  1.00  0.00    -0.216 C  
HETATM   11  C   UNL     1      -9.456   7.991  73.350  1.00  0.00    -0.307 C  
HETATM   12  C   UNL     1     -10.124   7.735  70.904  1.00  0.00    -0.195 C  
HETATM   13  C   UNL     1      -9.881   8.074  69.424  1.00  0.00    -0.181 C  
BRANCH  12  14
HETATM   14  C   UNL     1     -11.234   6.825  71.295  1.00  0.00    -0.276 C  
HETATM   15  O   UNL     1     -12.411   7.150  71.323  1.00  0.00    -0.356 OA 
BRANCH  14  16
HETATM   16  O   UNL     1     -10.774   5.587  71.604  1.00  0.00    -0.243 OA 
HETATM   17  C   UNL     1     -11.314   5.053  72.821  1.00  0.00    -0.195 C  
ENDBRANCH  14  16
ENDBRANCH  12  14
BRANCH  13  18
HETATM   18  C   UNL     1      -9.944   6.858  68.475  1.00  0.00    -0.149 A  
HETATM   19  C   UNL     1     -10.917   6.888  67.447  1.00  0.00    -0.374 A  
HETATM   20  C   UNL     1     -10.970   5.906  66.458  1.00  0.00    -0.142 A  
HETATM   21  C   UNL     1      -9.042   5.774  68.501  1.00  0.00    -0.114 A  
HETATM   22  C   UNL     1      -9.098   4.789  67.494  1.00  0.00    -0.118 A  
HETATM   23 CL   UNL     1      -7.837   5.658  69.745  1.00  0.00    -0.085 Cl 
HETATM   24 CL   UNL     1      -7.979   3.468  67.417  1.00  0.00    -0.082 Cl 
HETATM   25  C   UNL     1     -10.053   4.864  66.475  1.00  0.00    -0.285 A  
ENDBRANCH  13  18
ENDBRANCH   4   6
ENDBRANCH   3   4
ENDBRANCH   2   3
TORSDOF 6
ENDMDL
MODEL      126
REMARK 921   NORMALIZED FREE ENERGY PREDICTED BY IDOCK:   -3.56 KCAL/MOL
REMARK 922        TOTAL FREE ENERGY PREDICTED BY IDOCK:   -6.03 KCAL/MOL
REMARK 923 INTER-LIGAND FREE ENERGY PREDICTED BY IDOCK:   -5.26 KCAL/MOL
REMARK 924 INTRA-LIGAND FREE ENERGY PREDICTED BY IDOCK:   -0.77 KCAL/MOL
REMARK 927      BINDING AFFINITY PREDICTED BY RF-SCORE:    0.00 PKD
ROOT
HETATM    1  C   UNL     1      -8.493   3.801  69.039  1.00  0.00    -0.099 C  
HETATM    2  C   UNL     1      -7.655   4.750  69.868  1.00  0.00    -0.055 C  
ENDROOT
BRANCH   2   3
HETATM    3  O   UNL     1      -8.387   5.978  69.919  1.00  0.00    -0.119 OA 
BRANCH   3   4
HETATM    4  C   UNL     1      -8.459   6.643  71.092  1.00  0.00    -0.126 C  
HETATM    5  O   UNL     1      -7.512   7.042  71.757  1.00  0.00    -0.085 OA 
BRANCH   4   6
HETATM    6  C   UNL     1      -9.877   6.979  71.372  1.00  0.00    -0.180 C  
HETATM    7  C   UNL     1     -10.780   6.059  71.787  1.00  0.00    -0.244 C  
HETATM    8  C   UNL     1     -10.535   4.596  72.080  1.00  0.00    -0.198 C  
HETATM    9  N   UNL     1     -12.097   6.436  71.980  1.00  0.00    -0.336 NA 
HETATM   10  C   UNL     1     -12.625   7.673  71.670  1.00  0.00    -0.339 C  
HETATM   11  C   UNL     1     -14.123   7.775  71.839  1.00  0.00    -0.462 C  
HETATM   12  C   UNL     1     -11.813   8.679  71.258  1.00  0.00    -0.344 C  
HETATM   13  C   UNL     1     -10.298   8.449  71.118  1.00  0.00    -0.264 C  
BRANCH  12  14
HETATM   14  C   UNL     1     -12.406  10.003  70.929  1.00  0.00    -0.341 C  
HETATM   15  O   UNL     1     -12.633  10.391  69.793  1.00  0.00    -0.143 OA 
BRANCH  14  16
HETATM   16  O   UNL     1     -12.672  10.719  72.050  1.00  0.00    -0.345 OA 
HETATM   17  C   UNL     1     -13.279  11.994  71.796  1.00  0.00    -0.317 C  
ENDBRANCH  14  16
ENDBRANCH  12  14
BRANCH  13  18
HETATM   18  C   UNL     1      -9.688   9.008  69.815  1.00  0.00    -0.183 A  
HETATM   19  C   UNL     1      -8.827  10.126  69.931  1.00  0.00    -0.089 A  
HETATM   20  C   UNL     1      -8.120  10.624  68.837  1.00  0.00    -0.139 A  
HETATM   21  C   UNL     1      -9.850   8.427  68.540  1.00  0.00    -0.173 A  
HETATM   22  C   UNL     1      -9.127   8.932  67.441  1.00  0.00    -0.132 A  
HETATM   23 CL   UNL     1     -10.908   7.070  68.318  1.00  0.00    -0.222 Cl 
HETATM   24 CL   UNL     1      -9.218   8.226  65.861  1.00  0.00    -0.216 Cl 
HETATM   25  C   UNL     1      -8.261  10.019  67.595  1.00  0.00    -0.114 A  
ENDBRANCH  13  18
ENDBRANCH   4   6
ENDBRANCH   3   4
ENDBRANCH   2   3
TORSDOF 6
ENDMDL
MODEL      127
REMARK 921   NORMALIZED FREE ENERGY PREDICTED BY IDOCK:   -3.56 KCAL/MOL
REMARK 922        TOTAL FREE ENERGY PREDICTED BY IDOCK:   -6.03 KCAL/MOL
REMARK 923 INTER-LIGAND FREE ENERGY PREDICTED BY IDOCK:   -4.98 KCAL/MOL
REMARK 924 INTRA-LIGAND FREE ENERGY PREDICTED BY IDOCK:   -1.05 KCAL/MOL
REMARK 927      BINDING AFFINITY PREDICTED BY RF-SCORE:    0.00 PKD
ROOT
HETATM    1  C   UNL     1     -12.560   8.994  72.345  1.00  0.00    -0.403 C  
HETATM    2  C   UNL     1     -12.858  10.137  71.399  1.00  0.00    -0.428 C  
ENDROOT
BRANCH   2   3
HETATM    3  O   UNL     1     -11.599  10.527  70.844  1.00  0.00    -0.338 OA 
BRANCH   3   4
HETATM    4  C   UNL     1     -11.495  10.670  69.505  1.00  0.00    -0.291 C  
HETATM    5  O   UNL     1     -12.422  10.678  68.704  1.00  0.00    -0.252 OA 
BRANCH   4   6
HETATM    6  C   UNL     1     -10.090  11.000  69.160  1.00  0.00    -0.167 C  
HETATM    7  C   UNL     1      -9.753  12.075  68.409  1.00  0.00    -0.199 C  
HETATM    8  C   UNL     1     -10.679  13.127  67.840  1.00  0.00    -0.249 C  
HETATM    9  N   UNL     1      -8.426  12.290  68.086  1.00  0.00    -0.170 NA 
HETATM   10  C   UNL     1      -7.387  11.425  68.366  1.00  0.00    -0.095 C  
HETATM   11  C   UNL     1      -6.058  11.829  67.771  1.00  0.00    -0.061 C  
HETATM   12  C   UNL     1      -7.603  10.321  69.124  1.00  0.00    -0.111 C  
HETATM   13  C   UNL     1      -9.008  10.014  69.668  1.00  0.00    -0.221 C  
BRANCH  12  14
HETATM   14  C   UNL     1      -6.468   9.404  69.411  1.00  0.00    -0.044 C  
HETATM   15  O   UNL     1      -5.819   9.418  70.447  1.00  0.00    -0.037 OA 
BRANCH  14  16
HETATM   16  O   UNL     1      -6.252   8.544  68.384  1.00  0.00    -0.051 OA 
HETATM   17  C   UNL     1      -5.733   7.270  68.791  1.00  0.00    -0.022 C  
ENDBRANCH  14  16
ENDBRANCH  12  14
BRANCH  13  18
HETATM   18  C   UNL     1      -9.445   8.542  69.504  1.00  0.00    -0.165 A  
HETATM   19  C   UNL     1      -9.641   7.789  70.688  1.00  0.00    -0.166 A  
HETATM   20  C   UNL     1     -10.163   6.496  70.655  1.00  0.00    -0.220 A  
HETATM   21  C   UNL     1      -9.754   7.930  68.271  1.00  0.00    -0.160 A  
HETATM   22  C   UNL     1     -10.287   6.625  68.249  1.00  0.00    -0.190 A  
HETATM   23 CL   UNL     1      -9.516   8.783  66.779  1.00  0.00    -0.226 Cl 
HETATM   24 CL   UNL     1     -10.758   5.836  66.780  1.00  0.00    -0.373 Cl 
HETATM   25  C   UNL     1     -10.497   5.920  69.438  1.00  0.00    -0.343 A  
ENDBRANCH  13  18
ENDBRANCH   4   6
ENDBRANCH   3   4
ENDBRANCH   2   3
TORSDOF 6
ENDMDL
MODEL      128
REMARK 921   NORMALIZED FREE ENERGY PREDICTED BY IDOCK:   -3.55 KCAL/MOL
REMARK 922        TOTAL FREE ENERGY PREDICTED BY IDOCK:   -6.01 KCAL/MOL
REMARK 923 INTER-LIGAND FREE ENERGY PREDICTED BY IDOCK:   -4.78 KCAL/MOL
REMARK 924 INTRA-LIGAND FREE ENERGY PREDICTED BY IDOCK:   -1.23 KCAL/MOL
REMARK 927      BINDING AFFINITY PREDICTED BY RF-SCORE:    0.00 PKD
ROOT
HETATM    1  C   UNL     1     -10.094   4.178  65.106  1.00  0.00    -0.219 C  
HETATM    2  C   UNL     1      -9.501   3.774  66.438  1.00  0.00    -0.183 C  
ENDROOT
BRANCH   2   3
HETATM    3  O   UNL     1      -9.891   4.790  67.366  1.00  0.00    -0.168 OA 
BRANCH   3   4
HETATM    4  C   UNL     1      -8.947   5.625  67.849  1.00  0.00    -0.108 C  
HETATM    5  O   UNL     1      -7.738   5.429  67.848  1.00  0.00    -0.090 OA 
BRANCH   4   6
HETATM    6  C   UNL     1      -9.584   6.911  68.226  1.00  0.00    -0.128 C  
HETATM    7  C   UNL     1      -9.491   8.026  67.463  1.00  0.00    -0.146 C  
HETATM    8  C   UNL     1      -8.800   8.171  66.125  1.00  0.00    -0.194 C  
HETATM    9  N   UNL     1     -10.070   9.203  67.903  1.00  0.00    -0.187 NA 
HETATM   10  C   UNL     1     -10.655   9.389  69.139  1.00  0.00    -0.218 C  
HETATM   11  C   UNL     1     -11.076  10.812  69.425  1.00  0.00    -0.324 C  
HETATM   12  C   UNL     1     -10.815   8.340  69.984  1.00  0.00    -0.232 C  
HETATM   13  C   UNL     1     -10.337   6.935  69.580  1.00  0.00    -0.224 C  
BRANCH  12  14
HETATM   14  C   UNL     1     -11.448   8.566  71.311  1.00  0.00    -0.277 C  
HETATM   15  O   UNL     1     -10.825   8.742  72.348  1.00  0.00    -0.320 OA 
BRANCH  14  16
HETATM   16  O   UNL     1     -12.801   8.564  71.223  1.00  0.00    -0.280 OA 
HETATM   17  C   UNL     1     -13.400   7.291  71.502  1.00  0.00    -0.369 C  
ENDBRANCH  14  16
ENDBRANCH  12  14
BRANCH  13  18
HETATM   18  C   UNL     1      -9.562   6.186  70.685  1.00  0.00    -0.195 A  
HETATM   19  C   UNL     1     -10.151   5.007  71.204  1.00  0.00    -0.293 A  
HETATM   20  C   UNL     1      -9.475   4.185  72.105  1.00  0.00    -0.189 A  
HETATM   21  C   UNL     1      -8.274   6.537  71.140  1.00  0.00    -0.121 A  
HETATM   22  C   UNL     1      -7.595   5.697  72.046  1.00  0.00    -0.100 A  
HETATM   23 CL   UNL     1      -7.499   7.980  70.567  1.00  0.00    -0.070 Cl 
HETATM   24 CL   UNL     1      -5.984   6.024  72.593  1.00  0.00    -0.037 Cl 
HETATM   25  C   UNL     1      -8.193   4.524  72.516  1.00  0.00    -0.109 A  
ENDBRANCH  13  18
ENDBRANCH   4   6
ENDBRANCH   3   4
ENDBRANCH   2   3
TORSDOF 6
ENDMDL
MODEL      129
REMARK 921   NORMALIZED FREE ENERGY PREDICTED BY IDOCK:   -3.53 KCAL/MOL
REMARK 922        TOTAL FREE ENERGY PREDICTED BY IDOCK:   -5.99 KCAL/MOL
REMARK 923 INTER-LIGAND FREE ENERGY PREDICTED BY IDOCK:   -5.07 KCAL/MOL
REMARK 924 INTRA-LIGAND FREE ENERGY PREDICTED BY IDOCK:   -0.92 KCAL/MOL
REMARK 927      BINDING AFFINITY PREDICTED BY RF-SCORE:    0.00 PKD
ROOT
HETATM    1  C   UNL     1      -9.811   3.886  71.358  1.00  0.00    -0.243 C  
HETATM    2  C   UNL     1      -8.698   4.804  71.815  1.00  0.00    -0.123 C  
ENDROOT
BRANCH   2   3
HETATM    3  O   UNL     1      -8.808   5.984  71.016  1.00  0.00    -0.137 OA 
BRANCH   3   4
HETATM    4  C   UNL     1      -8.318   7.145  71.500  1.00  0.00    -0.111 C  
HETATM    5  O   UNL     1      -7.160   7.358  71.835  1.00  0.00    -0.062 OA 
BRANCH   4   6
HETATM    6  C   UNL     1      -9.365   8.192  71.400  1.00  0.00    -0.200 C  
HETATM    7  C   UNL     1     -10.409   8.269  72.258  1.00  0.00    -0.316 C  
HETATM    8  C   UNL     1     -10.684   7.385  73.454  1.00  0.00    -0.407 C  
HETATM    9  N   UNL     1     -11.374   9.243  72.072  1.00  0.00    -0.284 NA 
HETATM   10  C   UNL     1     -11.441  10.102  70.993  1.00  0.00    -0.354 C  
HETATM   11  C   UNL     1     -12.679  10.967  70.958  1.00  0.00    -0.485 C  
HETATM   12  C   UNL     1     -10.442  10.124  70.075  1.00  0.00    -0.325 C  
HETATM   13  C   UNL     1      -9.232   9.186  70.218  1.00  0.00    -0.249 C  
BRANCH  12  14
HETATM   14  C   UNL     1     -10.538  11.059  68.921  1.00  0.00    -0.207 C  
HETATM   15  O   UNL     1      -9.762  11.981  68.718  1.00  0.00    -0.141 OA 
BRANCH  14  16
HETATM   16  O   UNL     1     -11.587  10.750  68.119  1.00  0.00    -0.441 OA 
HETATM   17  C   UNL     1     -11.281  10.795  66.718  1.00  0.00     0.025 C  
ENDBRANCH  14  16
ENDBRANCH  12  14
BRANCH  13  18
HETATM   18  C   UNL     1      -8.821   8.476  68.910  1.00  0.00    -0.139 A  
HETATM   19  C   UNL     1      -7.548   8.790  68.375  1.00  0.00    -0.095 A  
HETATM   20  C   UNL     1      -7.027   8.109  67.275  1.00  0.00    -0.075 A  
HETATM   21  C   UNL     1      -9.579   7.473  68.271  1.00  0.00    -0.152 A  
HETATM   22  C   UNL     1      -9.041   6.785  67.164  1.00  0.00    -0.126 A  
HETATM   23 CL   UNL     1     -11.157   7.051  68.855  1.00  0.00    -0.145 Cl 
HETATM   24 CL   UNL     1      -9.880   5.491  66.372  1.00  0.00    -0.182 Cl 
HETATM   25  C   UNL     1      -7.767   7.098  66.678  1.00  0.00    -0.097 A  
ENDBRANCH  13  18
ENDBRANCH   4   6
ENDBRANCH   3   4
ENDBRANCH   2   3
TORSDOF 6
ENDMDL
MODEL      130
REMARK 921   NORMALIZED FREE ENERGY PREDICTED BY IDOCK:   -3.52 KCAL/MOL
REMARK 922        TOTAL FREE ENERGY PREDICTED BY IDOCK:   -5.98 KCAL/MOL
REMARK 923 INTER-LIGAND FREE ENERGY PREDICTED BY IDOCK:   -5.28 KCAL/MOL
REMARK 924 INTRA-LIGAND FREE ENERGY PREDICTED BY IDOCK:   -0.70 KCAL/MOL
REMARK 927      BINDING AFFINITY PREDICTED BY RF-SCORE:    0.00 PKD
ROOT
HETATM    1  C   UNL     1     -10.362  11.609  63.285  1.00  0.00    -0.444 C  
HETATM    2  C   UNL     1      -9.887  10.261  63.782  1.00  0.00    -0.151 C  
ENDROOT
BRANCH   2   3
HETATM    3  O   UNL     1     -10.369  10.145  65.124  1.00  0.00    -0.257 OA 
BRANCH   3   4
HETATM    4  C   UNL     1      -9.711  10.793  66.109  1.00  0.00    -0.207 C  
HETATM    5  O   UNL     1      -8.649  11.394  65.996  1.00  0.00    -0.169 OA 
BRANCH   4   6
HETATM    6  C   UNL     1     -10.562  10.821  67.323  1.00  0.00    -0.304 C  
HETATM    7  C   UNL     1     -11.399  11.847  67.607  1.00  0.00    -0.304 C  
HETATM    8  C   UNL     1     -11.660  13.080  66.772  1.00  0.00    -0.420 C  
HETATM    9  N   UNL     1     -12.125  11.827  68.785  1.00  0.00    -0.388 NA 
HETATM   10  C   UNL     1     -11.990  10.889  69.789  1.00  0.00    -0.351 C  
HETATM   11  C   UNL     1     -12.795  11.183  71.033  1.00  0.00    -0.424 C  
HETATM   12  C   UNL     1     -11.189   9.808  69.610  1.00  0.00    -0.216 C  
HETATM   13  C   UNL     1     -10.413   9.623  68.295  1.00  0.00    -0.259 C  
BRANCH  12  14
HETATM   14  C   UNL     1     -11.060   8.812  70.707  1.00  0.00    -0.260 C  
HETATM   15  O   UNL     1     -10.360   8.967  71.697  1.00  0.00    -0.290 OA 
BRANCH  14  16
HETATM   16  O   UNL     1     -11.824   7.716  70.474  1.00  0.00    -0.210 OA 
HETATM   17  C   UNL     1     -11.876   6.797  71.575  1.00  0.00    -0.333 C  
ENDBRANCH  14  16
ENDBRANCH  12  14
BRANCH  13  18
HETATM   18  C   UNL     1      -8.937   9.210  68.482  1.00  0.00    -0.133 A  
HETATM   19  C   UNL     1      -8.598   7.867  68.185  1.00  0.00    -0.123 A  
HETATM   20  C   UNL     1      -7.275   7.427  68.192  1.00  0.00    -0.090 A  
HETATM   21  C   UNL     1      -7.895  10.095  68.829  1.00  0.00    -0.098 A  
HETATM   22  C   UNL     1      -6.560   9.643  68.826  1.00  0.00    -0.047 A  
HETATM   23 CL   UNL     1      -8.238  11.748  69.228  1.00  0.00     0.293 Cl 
HETATM   24 CL   UNL     1      -5.221  10.688  69.170  1.00  0.00    -0.042 Cl 
HETATM   25  C   UNL     1      -6.255   8.318  68.499  1.00  0.00    -0.053 A  
ENDBRANCH  13  18
ENDBRANCH   4   6
ENDBRANCH   3   4
ENDBRANCH   2   3
TORSDOF 6
ENDMDL
MODEL      131
REMARK 921   NORMALIZED FREE ENERGY PREDICTED BY IDOCK:   -3.52 KCAL/MOL
REMARK 922        TOTAL FREE ENERGY PREDICTED BY IDOCK:   -5.97 KCAL/MOL
REMARK 923 INTER-LIGAND FREE ENERGY PREDICTED BY IDOCK:   -4.99 KCAL/MOL
REMARK 924 INTRA-LIGAND FREE ENERGY PREDICTED BY IDOCK:   -0.98 KCAL/MOL
REMARK 927      BINDING AFFINITY PREDICTED BY RF-SCORE:    0.00 PKD
ROOT
HETATM    1  C   UNL     1      -7.577  15.939  67.030  1.00  0.00    -0.264 C  
HETATM    2  C   UNL     1      -8.472  14.722  67.117  1.00  0.00    -0.223 C  
ENDROOT
BRANCH   2   3
HETATM    3  O   UNL     1      -7.894  13.881  68.119  1.00  0.00    -0.123 OA 
BRANCH   3   4
HETATM    4  C   UNL     1      -7.329  12.714  67.742  1.00  0.00    -0.128 C  
HETATM    5  O   UNL     1      -6.514  12.564  66.840  1.00  0.00    -0.138 OA 
BRANCH   4   6
HETATM    6  C   UNL     1      -7.710  11.655  68.709  1.00  0.00    -0.111 C  
HETATM    7  C   UNL     1      -6.845  11.149  69.619  1.00  0.00    -0.117 C  
HETATM    8  C   UNL     1      -5.411  11.565  69.857  1.00  0.00    -0.078 C  
HETATM    9  N   UNL     1      -7.258  10.127  70.456  1.00  0.00    -0.306 NA 
HETATM   10  C   UNL     1      -8.470   9.471  70.374  1.00  0.00    -0.201 C  
HETATM   11  C   UNL     1      -8.609   8.294  71.310  1.00  0.00    -0.179 C  
HETATM   12  C   UNL     1      -9.422   9.900  69.507  1.00  0.00    -0.239 C  
HETATM   13  C   UNL     1      -9.157  11.111  68.597  1.00  0.00    -0.166 C  
BRANCH  12  14
HETATM   14  C   UNL     1     -10.719   9.176  69.437  1.00  0.00    -0.198 C  
HETATM   15  O   UNL     1     -11.641   9.342  70.222  1.00  0.00    -0.225 OA 
BRANCH  14  16
HETATM   16  O   UNL     1     -10.753   8.318  68.387  1.00  0.00    -0.143 OA 
HETATM   17  C   UNL     1     -10.661   6.936  68.762  1.00  0.00    -0.219 C  
ENDBRANCH  14  16
ENDBRANCH  12  14
BRANCH  13  18
HETATM   18  C   UNL     1      -9.587  10.908  67.128  1.00  0.00    -0.187 A  
HETATM   19  C   UNL     1     -10.614  11.748  66.632  1.00  0.00    -0.275 A  
HETATM   20  C   UNL     1     -10.982  11.738  65.287  1.00  0.00    -0.350 A  
HETATM   21  C   UNL     1      -8.964  10.020  66.227  1.00  0.00    -0.148 A  
HETATM   22  C   UNL     1      -9.338  10.022  64.868  1.00  0.00    -0.266 A  
HETATM   23 CL   UNL     1      -7.715   8.945  66.768  1.00  0.00    -0.096 Cl 
HETATM   24 CL   UNL     1      -8.570   9.012  63.687  1.00  0.00    -0.179 Cl 
HETATM   25  C   UNL     1     -10.336  10.885  64.403  1.00  0.00    -0.430 A  
ENDBRANCH  13  18
ENDBRANCH   4   6
ENDBRANCH   3   4
ENDBRANCH   2   3
TORSDOF 6
ENDMDL
MODEL      132
REMARK 921   NORMALIZED FREE ENERGY PREDICTED BY IDOCK:   -3.51 KCAL/MOL
REMARK 922        TOTAL FREE ENERGY PREDICTED BY IDOCK:   -5.96 KCAL/MOL
REMARK 923 INTER-LIGAND FREE ENERGY PREDICTED BY IDOCK:   -5.21 KCAL/MOL
REMARK 924 INTRA-LIGAND FREE ENERGY PREDICTED BY IDOCK:   -0.75 KCAL/MOL
REMARK 927      BINDING AFFINITY PREDICTED BY RF-SCORE:    0.00 PKD
ROOT
HETATM    1  C   UNL     1      -6.860  15.111  68.663  1.00  0.00    -0.105 C  
HETATM    2  C   UNL     1      -7.416  14.749  67.304  1.00  0.00    -0.141 C  
ENDROOT
BRANCH   2   3
HETATM    3  O   UNL     1      -7.611  13.332  67.324  1.00  0.00    -0.146 OA 
BRANCH   3   4
HETATM    4  C   UNL     1      -8.662  12.831  68.007  1.00  0.00    -0.194 C  
HETATM    5  O   UNL     1      -9.695  13.427  68.287  1.00  0.00    -0.222 OA 
BRANCH   4   6
HETATM    6  C   UNL     1      -8.453  11.377  68.219  1.00  0.00    -0.154 C  
HETATM    7  C   UNL     1      -7.500  10.886  69.045  1.00  0.00    -0.124 C  
HETATM    8  C   UNL     1      -6.537  11.671  69.909  1.00  0.00    -0.030 C  
HETATM    9  N   UNL     1      -7.331   9.518  69.154  1.00  0.00    -0.070 NA 
HETATM   10  C   UNL     1      -7.984   8.571  68.390  1.00  0.00    -0.118 C  
HETATM   11  C   UNL     1      -7.506   7.154  68.605  1.00  0.00    -0.102 C  
HETATM   12  C   UNL     1      -8.970   8.945  67.536  1.00  0.00    -0.142 C  
HETATM   13  C   UNL     1      -9.363  10.425  67.400  1.00  0.00    -0.162 C  
BRANCH  12  14
HETATM   14  C   UNL     1      -9.659   7.906  66.724  1.00  0.00    -0.215 C  
HETATM   15  O   UNL     1      -9.190   7.402  65.714  1.00  0.00    -0.042 OA 
BRANCH  14  16
HETATM   16  O   UNL     1     -10.865   7.583  67.252  1.00  0.00    -0.299 OA 
HETATM   17  C   UNL     1     -10.942   6.238  67.748  1.00  0.00    -0.332 C  
ENDBRANCH  14  16
ENDBRANCH  12  14
BRANCH  13  18
HETATM   18  C   UNL     1      -9.538  10.905  65.943  1.00  0.00    -0.257 A  
HETATM   19  C   UNL     1      -8.545  10.518  65.011  1.00  0.00    -0.184 A  
HETATM   20  C   UNL     1      -8.676  10.784  63.648  1.00  0.00    -0.096 A  
HETATM   21  C   UNL     1     -10.659  11.612  65.462  1.00  0.00    -0.279 A  
HETATM   22  C   UNL     1     -10.787  11.869  64.082  1.00  0.00    -0.356 A  
HETATM   23 CL   UNL     1     -11.904  12.138  66.549  1.00  0.00    -0.391 Cl 
HETATM   24 CL   UNL     1     -12.169  12.667  63.406  1.00  0.00    -0.636 Cl 
HETATM   25  C   UNL     1      -9.803  11.448  63.182  1.00  0.00    -0.413 A  
ENDBRANCH  13  18
ENDBRANCH   4   6
ENDBRANCH   3   4
ENDBRANCH   2   3
TORSDOF 6
ENDMDL
MODEL      133
REMARK 921   NORMALIZED FREE ENERGY PREDICTED BY IDOCK:   -3.50 KCAL/MOL
REMARK 922        TOTAL FREE ENERGY PREDICTED BY IDOCK:   -5.94 KCAL/MOL
REMARK 923 INTER-LIGAND FREE ENERGY PREDICTED BY IDOCK:   -4.66 KCAL/MOL
REMARK 924 INTRA-LIGAND FREE ENERGY PREDICTED BY IDOCK:   -1.29 KCAL/MOL
REMARK 927      BINDING AFFINITY PREDICTED BY RF-SCORE:    0.00 PKD
ROOT
HETATM    1  C   UNL     1      -6.112  15.254  70.338  1.00  0.00    -0.071 C  
HETATM    2  C   UNL     1      -5.313  14.171  69.646  1.00  0.00    -0.092 C  
ENDROOT
BRANCH   2   3
HETATM    3  O   UNL     1      -6.210  13.070  69.473  1.00  0.00    -0.107 OA 
BRANCH   3   4
HETATM    4  C   UNL     1      -6.568  12.715  68.220  1.00  0.00    -0.079 C  
HETATM    5  O   UNL     1      -6.097  13.157  67.180  1.00  0.00    -0.301 OA 
BRANCH   4   6
HETATM    6  C   UNL     1      -7.503  11.565  68.292  1.00  0.00    -0.103 C  
HETATM    7  C   UNL     1      -7.149  10.309  67.930  1.00  0.00    -0.084 C  
HETATM    8  C   UNL     1      -5.794   9.836  67.452  1.00  0.00    -0.050 C  
HETATM    9  N   UNL     1      -8.090   9.297  67.976  1.00  0.00    -0.103 NA 
HETATM   10  C   UNL     1      -9.431   9.467  68.254  1.00  0.00    -0.133 C  
HETATM   11  C   UNL     1     -10.268   8.220  68.091  1.00  0.00    -0.255 C  
HETATM   12  C   UNL     1      -9.900  10.680  68.641  1.00  0.00    -0.183 C  
HETATM   13  C   UNL     1      -8.945  11.880  68.763  1.00  0.00     0.045 C  
BRANCH  12  14
HETATM   14  C   UNL     1     -11.349  10.839  68.934  1.00  0.00    -0.284 C  
HETATM   15  O   UNL     1     -12.232  10.772  68.091  1.00  0.00    -0.399 OA 
BRANCH  14  16
HETATM   16  O   UNL     1     -11.567  11.056  70.255  1.00  0.00    -0.306 OA 
HETATM   17  C   UNL     1     -12.367  10.046  70.886  1.00  0.00    -0.341 C  
ENDBRANCH  14  16
ENDBRANCH  12  14
BRANCH  13  18
HETATM   18  C   UNL     1      -9.484  13.186  68.141  1.00  0.00    -0.222 A  
HETATM   19  C   UNL     1      -9.581  14.316  68.990  1.00  0.00    -0.010 A  
HETATM   20  C   UNL     1      -9.927  15.574  68.498  1.00  0.00    -0.208 A  
HETATM   21  C   UNL     1      -9.792  13.356  66.775  1.00  0.00    -0.265 A  
HETATM   22  C   UNL     1     -10.134  14.633  66.286  1.00  0.00    -0.294 A  
HETATM   23 CL   UNL     1      -9.719  12.012  65.681  1.00  0.00    -0.255 Cl 
HETATM   24 CL   UNL     1     -10.453  14.934  64.609  1.00  0.00    -0.278 Cl 
HETATM   25  C   UNL     1     -10.191  15.735  67.145  1.00  0.00    -0.279 A  
ENDBRANCH  13  18
ENDBRANCH   4   6
ENDBRANCH   3   4
ENDBRANCH   2   3
TORSDOF 6
ENDMDL
MODEL      134
REMARK 921   NORMALIZED FREE ENERGY PREDICTED BY IDOCK:   -3.50 KCAL/MOL
REMARK 922        TOTAL FREE ENERGY PREDICTED BY IDOCK:   -5.94 KCAL/MOL
REMARK 923 INTER-LIGAND FREE ENERGY PREDICTED BY IDOCK:   -7.25 KCAL/MOL
REMARK 924 INTRA-LIGAND FREE ENERGY PREDICTED BY IDOCK:    1.30 KCAL/MOL
REMARK 927      BINDING AFFINITY PREDICTED BY RF-SCORE:    0.00 PKD
ROOT
HETATM    1  C   UNL     1     -14.407  14.754  71.530  1.00  0.00    -0.592 C  
HETATM    2  C   UNL     1     -13.592  13.486  71.394  1.00  0.00    -0.092 C  
ENDROOT
BRANCH   2   3
HETATM    3  O   UNL     1     -12.239  13.907  71.206  1.00  0.00    -0.345 OA 
BRANCH   3   4
HETATM    4  C   UNL     1     -11.622  13.612  70.041  1.00  0.00    -0.180 C  
HETATM    5  O   UNL     1     -11.771  12.590  69.383  1.00  0.00    -0.293 OA 
BRANCH   4   6
HETATM    6  C   UNL     1     -10.862  14.800  69.580  1.00  0.00    -0.247 C  
HETATM    7  C   UNL     1     -10.935  16.001  70.200  1.00  0.00    -0.367 C  
HETATM    8  C   UNL     1     -11.722  16.350  71.444  1.00  0.00    -0.293 C  
HETATM    9  N   UNL     1     -10.237  17.078  69.683  1.00  0.00    -0.096 NA 
HETATM   10  C   UNL     1      -9.539  17.077  68.492  1.00  0.00    -0.273 C  
HETATM   11  C   UNL     1      -8.992  18.425  68.086  1.00  0.00    -0.325 C  
HETATM   12  C   UNL     1      -9.388  15.925  67.790  1.00  0.00    -0.207 C  
HETATM   13  C   UNL     1     -10.000  14.613  68.306  1.00  0.00    -0.222 C  
BRANCH  12  14
HETATM   14  C   UNL     1      -8.632  15.951  66.508  1.00  0.00    -0.310 C  
HETATM   15  O   UNL     1      -9.055  16.441  65.472  1.00  0.00    -0.390 OA 
BRANCH  14  16
HETATM   16  O   UNL     1      -7.413  15.372  66.640  1.00  0.00    -0.058 OA 
HETATM   17  C   UNL     1      -6.365  16.292  66.976  1.00  0.00    -0.099 C  
ENDBRANCH  14  16
ENDBRANCH  12  14
BRANCH  13  18
HETATM   18  C   UNL     1     -10.735  13.788  67.228  1.00  0.00    -0.286 A  
HETATM   19  C   UNL     1     -11.925  14.336  66.692  1.00  0.00    -0.454 A  
HETATM   20  C   UNL     1     -12.591  13.738  65.622  1.00  0.00    -0.551 A  
HETATM   21  C   UNL     1     -10.253  12.583  66.674  1.00  0.00    -0.230 A  
HETATM   22  C   UNL     1     -10.928  11.989  65.589  1.00  0.00    -0.297 A  
HETATM   23 CL   UNL     1      -8.813  11.840  67.295  1.00  0.00    -0.162 Cl 
HETATM   24 CL   UNL     1     -10.358  10.551  64.809  1.00  0.00    -0.375 Cl 
HETATM   25  C   UNL     1     -12.086  12.572  65.063  1.00  0.00    -0.504 A  
ENDBRANCH  13  18
ENDBRANCH   4   6
ENDBRANCH   3   4
ENDBRANCH   2   3
TORSDOF 6
ENDMDL
MODEL      135
REMARK 921   NORMALIZED FREE ENERGY PREDICTED BY IDOCK:   -3.44 KCAL/MOL
REMARK 922        TOTAL FREE ENERGY PREDICTED BY IDOCK:   -5.86 KCAL/MOL
REMARK 923 INTER-LIGAND FREE ENERGY PREDICTED BY IDOCK:   -4.71 KCAL/MOL
REMARK 924 INTRA-LIGAND FREE ENERGY PREDICTED BY IDOCK:   -1.15 KCAL/MOL
REMARK 927      BINDING AFFINITY PREDICTED BY RF-SCORE:    0.00 PKD
ROOT
HETATM    1  C   UNL     1     -11.511  11.654  68.028  1.00  0.00    -0.385 C  
HETATM    2  C   UNL     1     -11.217  10.548  69.019  1.00  0.00    -0.259 C  
ENDROOT
BRANCH   2   3
HETATM    3  O   UNL     1     -10.430   9.586  68.311  1.00  0.00    -0.205 OA 
BRANCH   3   4
HETATM    4  C   UNL     1      -9.118   9.473  68.611  1.00  0.00    -0.132 C  
HETATM    5  O   UNL     1      -8.425  10.323  69.155  1.00  0.00    -0.141 OA 
BRANCH   4   6
HETATM    6  C   UNL     1      -8.678   8.081  68.342  1.00  0.00    -0.130 C  
HETATM    7  C   UNL     1      -8.547   7.584  67.090  1.00  0.00    -0.121 C  
HETATM    8  C   UNL     1      -8.764   8.312  65.782  1.00  0.00    -0.196 C  
HETATM    9  N   UNL     1      -8.180   6.261  66.918  1.00  0.00    -0.109 NA 
HETATM   10  C   UNL     1      -8.040   5.334  67.931  1.00  0.00    -0.099 C  
HETATM   11  C   UNL     1      -7.778   3.924  67.459  1.00  0.00    -0.075 C  
HETATM   12  C   UNL     1      -8.137   5.721  69.228  1.00  0.00    -0.101 C  
HETATM   13  C   UNL     1      -8.414   7.192  69.583  1.00  0.00    -0.134 C  
BRANCH  12  14
HETATM   14  C   UNL     1      -7.983   4.704  70.303  1.00  0.00    -0.064 C  
HETATM   15  O   UNL     1      -6.950   4.517  70.929  1.00  0.00    -0.035 OA 
BRANCH  14  16
HETATM   16  O   UNL     1      -9.136   4.020  70.506  1.00  0.00    -0.093 OA 
HETATM   17  C   UNL     1      -8.942   2.638  70.843  1.00  0.00    -0.093 C  
ENDBRANCH  14  16
ENDBRANCH  12  14
BRANCH  13  18
HETATM   18  C   UNL     1      -9.488   7.390  70.675  1.00  0.00    -0.164 A  
HETATM   19  C   UNL     1      -9.079   8.011  71.881  1.00  0.00    -0.210 A  
HETATM   20  C   UNL     1      -9.994   8.357  72.874  1.00  0.00    -0.209 A  
HETATM   21  C   UNL     1     -10.856   7.087  70.518  1.00  0.00    -0.251 A  
HETATM   22  C   UNL     1     -11.775   7.446  71.524  1.00  0.00    -0.284 A  
HETATM   23 CL   UNL     1     -11.427   6.305  69.078  1.00  0.00    -0.333 Cl 
HETATM   24 CL   UNL     1     -13.480   7.173  71.371  1.00  0.00    -0.423 Cl 
HETATM   25  C   UNL     1     -11.343   8.086  72.690  1.00  0.00    -0.469 A  
ENDBRANCH  13  18
ENDBRANCH   4   6
ENDBRANCH   3   4
ENDBRANCH   2   3
TORSDOF 6
ENDMDL
MODEL      136
REMARK 921   NORMALIZED FREE ENERGY PREDICTED BY IDOCK:   -3.43 KCAL/MOL
REMARK 922        TOTAL FREE ENERGY PREDICTED BY IDOCK:   -5.85 KCAL/MOL
REMARK 923 INTER-LIGAND FREE ENERGY PREDICTED BY IDOCK:   -4.87 KCAL/MOL
REMARK 924 INTRA-LIGAND FREE ENERGY PREDICTED BY IDOCK:   -0.98 KCAL/MOL
REMARK 927      BINDING AFFINITY PREDICTED BY RF-SCORE:    0.00 PKD
ROOT
HETATM    1  C   UNL     1      -6.445  16.448  67.032  1.00  0.00    -0.202 C  
HETATM    2  C   UNL     1      -7.820  15.824  66.930  1.00  0.00    -0.236 C  
ENDROOT
BRANCH   2   3
HETATM    3  O   UNL     1      -7.619  14.412  67.029  1.00  0.00    -0.069 OA 
BRANCH   3   4
HETATM    4  C   UNL     1      -7.617  13.840  68.253  1.00  0.00    -0.129 C  
HETATM    5  O   UNL     1      -7.727  14.424  69.324  1.00  0.00    -0.101 OA 
BRANCH   4   6
HETATM    6  C   UNL     1      -7.642  12.365  68.098  1.00  0.00    -0.129 C  
HETATM    7  C   UNL     1      -6.571  11.655  67.671  1.00  0.00    -0.082 C  
HETATM    8  C   UNL     1      -5.195  12.181  67.328  1.00  0.00    -0.106 C  
HETATM    9  N   UNL     1      -6.684  10.287  67.504  1.00  0.00    -0.071 NA 
HETATM   10  C   UNL     1      -7.853   9.563  67.623  1.00  0.00    -0.102 C  
HETATM   11  C   UNL     1      -7.730   8.107  67.241  1.00  0.00    -0.098 C  
HETATM   12  C   UNL     1      -8.989  10.166  68.057  1.00  0.00    -0.125 C  
HETATM   13  C   UNL     1      -8.988  11.663  68.409  1.00  0.00    -0.176 C  
BRANCH  12  14
HETATM   14  C   UNL     1     -10.236   9.365  68.176  1.00  0.00    -0.200 C  
HETATM   15  O   UNL     1     -10.803   8.833  67.233  1.00  0.00    -0.214 OA 
BRANCH  14  16
HETATM   16  O   UNL     1     -10.657   9.292  69.463  1.00  0.00    -0.217 OA 
HETATM   17  C   UNL     1     -10.316   8.061  70.118  1.00  0.00    -0.215 C  
ENDBRANCH  14  16
ENDBRANCH  12  14
BRANCH  13  18
HETATM   18  C   UNL     1     -10.193  12.448  67.846  1.00  0.00    -0.213 A  
HETATM   19  C   UNL     1     -11.019  13.122  68.778  1.00  0.00    -0.298 A  
HETATM   20  C   UNL     1     -12.050  13.966  68.366  1.00  0.00    -0.327 A  
HETATM   21  C   UNL     1     -10.466  12.619  66.473  1.00  0.00    -0.247 A  
HETATM   22  C   UNL     1     -11.506  13.480  66.066  1.00  0.00    -0.325 A  
HETATM   23 CL   UNL     1      -9.511  11.807  65.275  1.00  0.00    -0.183 Cl 
HETATM   24 CL   UNL     1     -11.855  13.798  64.399  1.00  0.00    -0.435 Cl 
HETATM   25  C   UNL     1     -12.285  14.155  67.011  1.00  0.00    -0.374 A  
ENDBRANCH  13  18
ENDBRANCH   4   6
ENDBRANCH   3   4
ENDBRANCH   2   3
TORSDOF 6
ENDMDL
MODEL      137
REMARK 921   NORMALIZED FREE ENERGY PREDICTED BY IDOCK:   -3.41 KCAL/MOL
REMARK 922        TOTAL FREE ENERGY PREDICTED BY IDOCK:   -5.83 KCAL/MOL
REMARK 923 INTER-LIGAND FREE ENERGY PREDICTED BY IDOCK:   -4.60 KCAL/MOL
REMARK 924 INTRA-LIGAND FREE ENERGY PREDICTED BY IDOCK:   -1.22 KCAL/MOL
REMARK 927      BINDING AFFINITY PREDICTED BY RF-SCORE:    0.00 PKD
ROOT
HETATM    1  C   UNL     1     -12.490   7.108  71.335  1.00  0.00    -0.427 C  
HETATM    2  C   UNL     1     -11.759   8.023  72.294  1.00  0.00    -0.371 C  
ENDROOT
BRANCH   2   3
HETATM    3  O   UNL     1     -10.952   8.880  71.482  1.00  0.00    -0.275 OA 
BRANCH   3   4
HETATM    4  C   UNL     1      -9.615   8.687  71.463  1.00  0.00    -0.257 C  
HETATM    5  O   UNL     1      -8.818   9.058  72.315  1.00  0.00    -0.363 OA 
BRANCH   4   6
HETATM    6  C   UNL     1      -9.271   7.793  70.330  1.00  0.00    -0.156 C  
HETATM    7  C   UNL     1      -8.868   6.512  70.503  1.00  0.00    -0.151 C  
HETATM    8  C   UNL     1      -8.738   5.757  71.807  1.00  0.00    -0.136 C  
HETATM    9  N   UNL     1      -8.516   5.754  69.402  1.00  0.00    -0.111 NA 
HETATM   10  C   UNL     1      -8.421   6.224  68.107  1.00  0.00    -0.114 C  
HETATM   11  C   UNL     1      -7.870   5.226  67.117  1.00  0.00    -0.100 C  
HETATM   12  C   UNL     1      -8.811   7.490  67.811  1.00  0.00    -0.132 C  
HETATM   13  C   UNL     1      -9.350   8.416  68.913  1.00  0.00    -0.147 C  
BRANCH  12  14
HETATM   14  C   UNL     1      -8.698   7.974  66.409  1.00  0.00    -0.151 C  
HETATM   15  O   UNL     1      -7.657   7.986  65.768  1.00  0.00    -0.078 OA 
BRANCH  14  16
HETATM   16  O   UNL     1      -9.897   8.389  65.930  1.00  0.00    -0.116 OA 
HETATM   17  C   UNL     1      -9.865   9.695  65.335  1.00  0.00    -0.252 C  
ENDBRANCH  14  16
ENDBRANCH  12  14
BRANCH  13  18
HETATM   18  C   UNL     1      -8.772   9.848  68.879  1.00  0.00    -0.140 A  
HETATM   19  C   UNL     1      -7.372   9.985  69.043  1.00  0.00    -0.083 A  
HETATM   20  C   UNL     1      -6.734  11.216  68.895  1.00  0.00    -0.077 A  
HETATM   21  C   UNL     1      -9.523  11.008  68.599  1.00  0.00    -0.195 A  
HETATM   22  C   UNL     1      -8.869  12.247  68.444  1.00  0.00    -0.137 A  
HETATM   23 CL   UNL     1     -11.245  10.921  68.409  1.00  0.00    -0.319 Cl 
HETATM   24 CL   UNL     1      -9.713  13.703  68.029  1.00  0.00    -0.220 Cl 
HETATM   25  C   UNL     1      -7.481  12.344  68.583  1.00  0.00    -0.095 A  
ENDBRANCH  13  18
ENDBRANCH   4   6
ENDBRANCH   3   4
ENDBRANCH   2   3
TORSDOF 6
ENDMDL
MODEL      138
REMARK 921   NORMALIZED FREE ENERGY PREDICTED BY IDOCK:   -3.41 KCAL/MOL
REMARK 922        TOTAL FREE ENERGY PREDICTED BY IDOCK:   -5.82 KCAL/MOL
REMARK 923 INTER-LIGAND FREE ENERGY PREDICTED BY IDOCK:   -4.82 KCAL/MOL
REMARK 924 INTRA-LIGAND FREE ENERGY PREDICTED BY IDOCK:   -1.00 KCAL/MOL
REMARK 927      BINDING AFFINITY PREDICTED BY RF-SCORE:    0.00 PKD
ROOT
HETATM    1  C   UNL     1      -9.340   4.610  65.170  1.00  0.00    -0.153 C  
HETATM    2  C   UNL     1      -8.535   5.839  65.536  1.00  0.00    -0.150 C  
ENDROOT
BRANCH   2   3
HETATM    3  O   UNL     1      -9.004   6.247  66.824  1.00  0.00    -0.119 OA 
BRANCH   3   4
HETATM    4  C   UNL     1      -8.131   6.274  67.854  1.00  0.00    -0.114 C  
HETATM    5  O   UNL     1      -6.938   6.540  67.784  1.00  0.00    -0.076 OA 
BRANCH   4   6
HETATM    6  C   UNL     1      -8.877   6.105  69.125  1.00  0.00    -0.123 C  
HETATM    7  C   UNL     1      -9.469   4.939  69.478  1.00  0.00    -0.148 C  
HETATM    8  C   UNL     1      -9.456   3.633  68.717  1.00  0.00    -0.214 C  
HETATM    9  N   UNL     1     -10.190   4.871  70.656  1.00  0.00    -0.234 NA 
HETATM   10  C   UNL     1     -10.472   5.941  71.482  1.00  0.00    -0.233 C  
HETATM   11  C   UNL     1     -11.404   5.622  72.626  1.00  0.00    -0.356 C  
HETATM   12  C   UNL     1      -9.921   7.157  71.235  1.00  0.00    -0.192 C  
HETATM   13  C   UNL     1      -8.988   7.359  70.029  1.00  0.00    -0.144 C  
BRANCH  12  14
HETATM   14  C   UNL     1     -10.240   8.295  72.139  1.00  0.00    -0.285 C  
HETATM   15  O   UNL     1     -11.341   8.820  72.220  1.00  0.00    -0.355 OA 
BRANCH  14  16
HETATM   16  O   UNL     1      -9.159   8.668  72.867  1.00  0.00    -0.314 OA 
HETATM   17  C   UNL     1      -8.817   7.748  73.914  1.00  0.00    -0.272 C  
ENDBRANCH  14  16
ENDBRANCH  12  14
BRANCH  13  18
HETATM   18  C   UNL     1      -9.276   8.636  69.211  1.00  0.00    -0.150 A  
HETATM   19  C   UNL     1     -10.497   8.685  68.495  1.00  0.00    -0.209 A  
HETATM   20  C   UNL     1     -10.914   9.842  67.835  1.00  0.00    -0.246 A  
HETATM   21  C   UNL     1      -8.460   9.786  69.208  1.00  0.00    -0.152 A  
HETATM   22  C   UNL     1      -8.892  10.953  68.544  1.00  0.00    -0.153 A  
HETATM   23 CL   UNL     1      -6.940   9.792  70.044  1.00  0.00    -0.089 Cl 
HETATM   24 CL   UNL     1      -7.979  12.426  68.557  1.00  0.00    -0.138 Cl 
HETATM   25  C   UNL     1     -10.117  10.978  67.871  1.00  0.00    -0.199 A  
ENDBRANCH  13  18
ENDBRANCH   4   6
ENDBRANCH   3   4
ENDBRANCH   2   3
TORSDOF 6
ENDMDL
MODEL      139
REMARK 921   NORMALIZED FREE ENERGY PREDICTED BY IDOCK:   -3.38 KCAL/MOL
REMARK 922        TOTAL FREE ENERGY PREDICTED BY IDOCK:   -5.79 KCAL/MOL
REMARK 923 INTER-LIGAND FREE ENERGY PREDICTED BY IDOCK:   -4.62 KCAL/MOL
REMARK 924 INTRA-LIGAND FREE ENERGY PREDICTED BY IDOCK:   -1.17 KCAL/MOL
REMARK 927      BINDING AFFINITY PREDICTED BY RF-SCORE:    0.00 PKD
ROOT
HETATM    1  C   UNL     1     -14.371   6.731  72.310  1.00  0.00    -0.069 C  
HETATM    2  C   UNL     1     -13.310   6.864  71.238  1.00  0.00    -0.116 C  
ENDROOT
BRANCH   2   3
HETATM    3  O   UNL     1     -13.033   8.263  71.132  1.00  0.00    -0.198 OA 
BRANCH   3   4
HETATM    4  C   UNL     1     -11.928   8.753  71.733  1.00  0.00    -0.349 C  
HETATM    5  O   UNL     1     -11.434   8.351  72.780  1.00  0.00    -0.350 OA 
BRANCH   4   6
HETATM    6  C   UNL     1     -11.289   9.749  70.837  1.00  0.00    -0.439 C  
HETATM    7  C   UNL     1     -11.820  10.973  70.606  1.00  0.00    -0.333 C  
HETATM    8  C   UNL     1     -13.073  11.562  71.213  1.00  0.00    -0.281 C  
HETATM    9  N   UNL     1     -11.194  11.829  69.718  1.00  0.00    -0.155 NA 
HETATM   10  C   UNL     1     -10.108  11.506  68.930  1.00  0.00    -0.127 C  
HETATM   11  C   UNL     1      -9.713  12.575  67.939  1.00  0.00    -0.205 C  
HETATM   12  C   UNL     1      -9.484  10.311  69.084  1.00  0.00    -0.225 C  
HETATM   13  C   UNL     1      -9.987   9.299  70.127  1.00  0.00    -0.251 C  
BRANCH  12  14
HETATM   14  C   UNL     1      -8.316   9.985  68.222  1.00  0.00    -0.110 C  
HETATM   15  O   UNL     1      -8.402   9.502  67.103  1.00  0.00    -0.128 OA 
BRANCH  14  16
HETATM   16  O   UNL     1      -7.147  10.303  68.831  1.00  0.00    -0.068 OA 
HETATM   17  C   UNL     1      -6.010   9.599  68.311  1.00  0.00    -0.047 C  
ENDBRANCH  14  16
ENDBRANCH  12  14
BRANCH  13  18
HETATM   18  C   UNL     1     -10.082   7.848  69.609  1.00  0.00    -0.197 A  
HETATM   19  C   UNL     1     -10.940   7.608  68.508  1.00  0.00     0.105 A  
HETATM   20  C   UNL     1     -10.996   6.364  67.880  1.00  0.00    -0.416 A  
HETATM   21  C   UNL     1      -9.307   6.773  70.091  1.00  0.00    -0.159 A  
HETATM   22  C   UNL     1      -9.365   5.520  69.446  1.00  0.00    -0.118 A  
HETATM   23 CL   UNL     1      -8.252   6.986  71.452  1.00  0.00    -0.109 Cl 
HETATM   24 CL   UNL     1      -8.389   4.174  69.934  1.00  0.00    -0.072 Cl 
HETATM   25  C   UNL     1     -10.200   5.324  68.342  1.00  0.00    -0.206 A  
ENDBRANCH  13  18
ENDBRANCH   4   6
ENDBRANCH   3   4
ENDBRANCH   2   3
TORSDOF 6
ENDMDL
MODEL      140
REMARK 921   NORMALIZED FREE ENERGY PREDICTED BY IDOCK:   -3.38 KCAL/MOL
REMARK 922        TOTAL FREE ENERGY PREDICTED BY IDOCK:   -5.79 KCAL/MOL
REMARK 923 INTER-LIGAND FREE ENERGY PREDICTED BY IDOCK:   -4.61 KCAL/MOL
REMARK 924 INTRA-LIGAND FREE ENERGY PREDICTED BY IDOCK:   -1.18 KCAL/MOL
REMARK 927      BINDING AFFINITY PREDICTED BY RF-SCORE:    0.00 PKD
ROOT
HETATM    1  C   UNL     1     -13.025  10.943  71.404  1.00  0.00    -0.527 C  
HETATM    2  C   UNL     1     -12.197  10.474  70.227  1.00  0.00    -0.311 C  
ENDROOT
BRANCH   2   3
HETATM    3  O   UNL     1     -10.862  10.331  70.719  1.00  0.00    -0.269 OA 
BRANCH   3   4
HETATM    4  C   UNL     1     -10.491   9.149  71.257  1.00  0.00    -0.328 C  
HETATM    5  O   UNL     1     -10.355   8.908  72.450  1.00  0.00    -0.259 OA 
BRANCH   4   6
HETATM    6  C   UNL     1     -10.444   8.122  70.187  1.00  0.00    -0.225 C  
HETATM    7  C   UNL     1     -11.279   7.056  70.157  1.00  0.00    -0.284 C  
HETATM    8  C   UNL     1     -12.396   6.735  71.124  1.00  0.00    -0.386 C  
HETATM    9  N   UNL     1     -11.143   6.113  69.154  1.00  0.00    -0.380 NA 
HETATM   10  C   UNL     1     -10.132   6.089  68.214  1.00  0.00    -0.164 C  
HETATM   11  C   UNL     1     -10.132   4.867  67.326  1.00  0.00    -0.212 C  
HETATM   12  C   UNL     1      -9.244   7.113  68.140  1.00  0.00    -0.131 C  
HETATM   13  C   UNL     1      -9.346   8.303  69.108  1.00  0.00    -0.151 C  
BRANCH  12  14
HETATM   14  C   UNL     1      -8.164   7.064  67.119  1.00  0.00    -0.118 C  
HETATM   15  O   UNL     1      -8.155   7.732  66.096  1.00  0.00    -0.103 OA 
BRANCH  14  16
HETATM   16  O   UNL     1      -7.187   6.192  67.472  1.00  0.00    -0.072 OA 
HETATM   17  C   UNL     1      -6.498   5.607  66.358  1.00  0.00    -0.044 C  
ENDBRANCH  14  16
ENDBRANCH  12  14
BRANCH  13  18
HETATM   18  C   UNL     1      -7.998   8.738  69.723  1.00  0.00    -0.095 A  
HETATM   19  C   UNL     1      -7.536  10.041  69.415  1.00  0.00    -0.123 A  
HETATM   20  C   UNL     1      -6.403  10.579  70.023  1.00  0.00    -0.117 A  
HETATM   21  C   UNL     1      -7.251   7.970  70.641  1.00  0.00    -0.052 A  
HETATM   22  C   UNL     1      -6.111   8.525  71.256  1.00  0.00    -0.042 A  
HETATM   23 CL   UNL     1      -7.743   6.358  71.048  1.00  0.00    -0.100 Cl 
HETATM   24 CL   UNL     1      -5.185   7.672  72.446  1.00  0.00    -0.036 Cl 
HETATM   25  C   UNL     1      -5.698   9.826  70.953  1.00  0.00    -0.079 A  
ENDBRANCH  13  18
ENDBRANCH   4   6
ENDBRANCH   3   4
ENDBRANCH   2   3
TORSDOF 6
ENDMDL
MODEL      141
REMARK 921   NORMALIZED FREE ENERGY PREDICTED BY IDOCK:   -3.36 KCAL/MOL
REMARK 922        TOTAL FREE ENERGY PREDICTED BY IDOCK:   -5.76 KCAL/MOL
REMARK 923 INTER-LIGAND FREE ENERGY PREDICTED BY IDOCK:   -4.92 KCAL/MOL
REMARK 924 INTRA-LIGAND FREE ENERGY PREDICTED BY IDOCK:   -0.84 KCAL/MOL
REMARK 927      BINDING AFFINITY PREDICTED BY RF-SCORE:    0.00 PKD
ROOT
HETATM    1  C   UNL     1     -12.468   9.138  71.343  1.00  0.00    -0.396 C  
HETATM    2  C   UNL     1     -11.444  10.178  70.946  1.00  0.00    -0.360 C  
ENDROOT
BRANCH   2   3
HETATM    3  O   UNL     1     -10.756   9.639  69.814  1.00  0.00    -0.220 OA 
BRANCH   3   4
HETATM    4  C   UNL     1     -11.287   9.818  68.585  1.00  0.00     0.083 C  
HETATM    5  O   UNL     1     -12.147  10.635  68.281  1.00  0.00    -0.423 OA 
BRANCH   4   6
HETATM    6  C   UNL     1     -10.540   8.988  67.608  1.00  0.00    -0.298 C  
HETATM    7  C   UNL     1     -10.372   7.653  67.758  1.00  0.00    -0.219 C  
HETATM    8  C   UNL     1     -10.919   6.775  68.862  1.00  0.00    -0.272 C  
HETATM    9  N   UNL     1      -9.620   6.953  66.832  1.00  0.00    -0.156 NA 
HETATM   10  C   UNL     1      -8.903   7.518  65.797  1.00  0.00    -0.090 C  
HETATM   11  C   UNL     1      -8.047   6.543  65.023  1.00  0.00    -0.127 C  
HETATM   12  C   UNL     1      -9.004   8.847  65.542  1.00  0.00    -0.246 C  
HETATM   13  C   UNL     1      -9.908   9.739  66.409  1.00  0.00    -0.298 C  
BRANCH  12  14
HETATM   14  C   UNL     1      -8.221   9.433  64.421  1.00  0.00    -0.147 C  
HETATM   15  O   UNL     1      -8.688   9.703  63.325  1.00  0.00    -0.200 OA 
BRANCH  14  16
HETATM   16  O   UNL     1      -6.928   9.638  64.774  1.00  0.00    -0.100 OA 
HETATM   17  C   UNL     1      -6.122  10.204  63.730  1.00  0.00    -0.138 C  
ENDBRANCH  14  16
ENDBRANCH  12  14
BRANCH  13  18
HETATM   18  C   UNL     1      -9.259  11.072  66.840  1.00  0.00    -0.168 A  
HETATM   19  C   UNL     1      -9.856  12.266  66.367  1.00  0.00    -0.242 A  
HETATM   20  C   UNL     1      -9.432  13.521  66.803  1.00  0.00    -0.272 A  
HETATM   21  C   UNL     1      -8.181  11.184  67.743  1.00  0.00    -0.119 A  
HETATM   22  C   UNL     1      -7.763  12.456  68.183  1.00  0.00    -0.139 A  
HETATM   23 CL   UNL     1      -7.384   9.766  68.345  1.00  0.00    -0.078 Cl 
HETATM   24 CL   UNL     1      -6.495  12.670  69.346  1.00  0.00    -0.113 Cl 
HETATM   25  C   UNL     1      -8.394  13.615  67.721  1.00  0.00    -0.181 A  
ENDBRANCH  13  18
ENDBRANCH   4   6
ENDBRANCH   3   4
ENDBRANCH   2   3
TORSDOF 6
ENDMDL
MODEL      142
REMARK 921   NORMALIZED FREE ENERGY PREDICTED BY IDOCK:   -3.32 KCAL/MOL
REMARK 922        TOTAL FREE ENERGY PREDICTED BY IDOCK:   -5.70 KCAL/MOL
REMARK 923 INTER-LIGAND FREE ENERGY PREDICTED BY IDOCK:   -4.42 KCAL/MOL
REMARK 924 INTRA-LIGAND FREE ENERGY PREDICTED BY IDOCK:   -1.28 KCAL/MOL
REMARK 927      BINDING AFFINITY PREDICTED BY RF-SCORE:    0.00 PKD
ROOT
HETATM    1  C   UNL     1     -12.146  10.776  70.370  1.00  0.00    -0.443 C  
HETATM    2  C   UNL     1     -11.924  11.996  69.502  1.00  0.00    -0.283 C  
ENDROOT
BRANCH   2   3
HETATM    3  O   UNL     1     -11.307  11.519  68.304  1.00  0.00    -0.237 OA 
BRANCH   3   4
HETATM    4  C   UNL     1     -10.039  11.897  68.031  1.00  0.00    -0.195 C  
HETATM    5  O   UNL     1      -9.387  12.736  68.640  1.00  0.00    -0.116 OA 
BRANCH   4   6
HETATM    6  C   UNL     1      -9.484  11.009  66.980  1.00  0.00    -0.191 C  
HETATM    7  C   UNL     1      -9.746  11.180  65.663  1.00  0.00    -0.225 C  
HETATM    8  C   UNL     1     -10.571  12.274  65.023  1.00  0.00    -0.322 C  
HETATM    9  N   UNL     1      -9.233  10.282  64.744  1.00  0.00    -0.218 NA 
HETATM   10  C   UNL     1      -8.553   9.122  65.057  1.00  0.00    -0.180 C  
HETATM   11  C   UNL     1      -8.232   8.244  63.871  1.00  0.00    -0.088 C  
HETATM   12  C   UNL     1      -8.222   8.852  66.345  1.00  0.00    -0.115 C  
HETATM   13  C   UNL     1      -8.611   9.826  67.470  1.00  0.00    -0.125 C  
BRANCH  12  14
HETATM   14  C   UNL     1      -7.489   7.596  66.658  1.00  0.00    -0.093 C  
HETATM   15  O   UNL     1      -7.965   6.476  66.543  1.00  0.00    -0.105 OA 
BRANCH  14  16
HETATM   16  O   UNL     1      -6.224   7.850  67.075  1.00  0.00    -0.051 OA 
HETATM   17  C   UNL     1      -5.218   7.552  66.096  1.00  0.00    -0.025 C  
ENDBRANCH  14  16
ENDBRANCH  12  14
BRANCH  13  18
HETATM   18  C   UNL     1      -9.210   9.145  68.720  1.00  0.00    -0.136 A  
HETATM   19  C   UNL     1     -10.385   8.376  68.538  1.00  0.00    -0.232 A  
HETATM   20  C   UNL     1     -10.929   7.614  69.572  1.00  0.00    -0.108 A  
HETATM   21  C   UNL     1      -8.617   9.157  70.000  1.00  0.00    -0.163 A  
HETATM   22  C   UNL     1      -9.170   8.378  71.037  1.00  0.00    -0.168 A  
HETATM   23 CL   UNL     1      -7.190  10.095  70.303  1.00  0.00    -0.160 Cl 
HETATM   24 CL   UNL     1      -8.458   8.283  72.614  1.00  0.00    -0.244 Cl 
HETATM   25  C   UNL     1     -10.315   7.605  70.816  1.00  0.00    -0.203 A  
ENDBRANCH  13  18
ENDBRANCH   4   6
ENDBRANCH   3   4
ENDBRANCH   2   3
TORSDOF 6
ENDMDL
MODEL      143
REMARK 921   NORMALIZED FREE ENERGY PREDICTED BY IDOCK:   -3.28 KCAL/MOL
REMARK 922        TOTAL FREE ENERGY PREDICTED BY IDOCK:   -5.65 KCAL/MOL
REMARK 923 INTER-LIGAND FREE ENERGY PREDICTED BY IDOCK:   -4.34 KCAL/MOL
REMARK 924 INTRA-LIGAND FREE ENERGY PREDICTED BY IDOCK:   -1.31 KCAL/MOL
REMARK 927      BINDING AFFINITY PREDICTED BY RF-SCORE:    0.00 PKD
ROOT
HETATM    1  C   UNL     1      -6.232  10.135  67.000  1.00  0.00    -0.063 C  
HETATM    2  C   UNL     1      -5.324  10.064  68.208  1.00  0.00    -0.035 C  
ENDROOT
BRANCH   2   3
HETATM    3  O   UNL     1      -6.016   9.269  69.174  1.00  0.00    -0.041 OA 
BRANCH   3   4
HETATM    4  C   UNL     1      -6.726   9.892  70.140  1.00  0.00    -0.112 C  
HETATM    5  O   UNL     1      -6.775  11.100  70.337  1.00  0.00    -0.233 OA 
BRANCH   4   6
HETATM    6  C   UNL     1      -7.589   8.898  70.824  1.00  0.00    -0.110 C  
HETATM    7  C   UNL     1      -7.129   8.073  71.795  1.00  0.00    -0.075 C  
HETATM    8  C   UNL     1      -5.735   8.028  72.380  1.00  0.00    -0.038 C  
HETATM    9  N   UNL     1      -7.981   7.137  72.353  1.00  0.00    -0.096 NA 
HETATM   10  C   UNL     1      -9.266   6.873  71.924  1.00  0.00    -0.141 C  
HETATM   11  C   UNL     1      -9.926   5.699  72.609  1.00  0.00    -0.198 C  
HETATM   12  C   UNL     1      -9.838   7.645  70.966  1.00  0.00    -0.181 C  
HETATM   13  C   UNL     1      -9.058   8.812  70.338  1.00  0.00    -0.198 C  
BRANCH  12  14
HETATM   14  C   UNL     1     -11.224   7.340  70.520  1.00  0.00    -0.279 C  
HETATM   15  O   UNL     1     -11.497   6.652  69.548  1.00  0.00    -0.320 OA 
BRANCH  14  16
HETATM   16  O   UNL     1     -12.144   7.913  71.335  1.00  0.00    -0.296 OA 
HETATM   17  C   UNL     1     -13.386   7.197  71.405  1.00  0.00    -0.307 C  
ENDBRANCH  14  16
ENDBRANCH  12  14
BRANCH  13  18
HETATM   18  C   UNL     1      -9.163   8.892  68.800  1.00  0.00    -0.140 A  
HETATM   19  C   UNL     1      -8.754   7.753  68.063  1.00  0.00    -0.125 A  
HETATM   20  C   UNL     1      -8.933   7.671  66.682  1.00  0.00    -0.181 A  
HETATM   21  C   UNL     1      -9.725   9.973  68.090  1.00  0.00    -0.140 A  
HETATM   22  C   UNL     1      -9.908   9.878  66.695  1.00  0.00    -0.207 A  
HETATM   23 CL   UNL     1     -10.227  11.410  68.922  1.00  0.00    -0.209 Cl 
HETATM   24 CL   UNL     1     -10.658  11.134  65.765  1.00  0.00    -0.309 Cl 
HETATM   25  C   UNL     1      -9.521   8.728  66.001  1.00  0.00    -0.302 A  
ENDBRANCH  13  18
ENDBRANCH   4   6
ENDBRANCH   3   4
ENDBRANCH   2   3
TORSDOF 6
ENDMDL
MODEL      144
REMARK 921   NORMALIZED FREE ENERGY PREDICTED BY IDOCK:   -3.25 KCAL/MOL
REMARK 922        TOTAL FREE ENERGY PREDICTED BY IDOCK:   -5.61 KCAL/MOL
REMARK 923 INTER-LIGAND FREE ENERGY PREDICTED BY IDOCK:   -4.58 KCAL/MOL
REMARK 924 INTRA-LIGAND FREE ENERGY PREDICTED BY IDOCK:   -1.03 KCAL/MOL
REMARK 927      BINDING AFFINITY PREDICTED BY RF-SCORE:    0.00 PKD
ROOT
HETATM    1  C   UNL     1      -5.488  10.578  66.048  1.00  0.00    -0.091 C  
HETATM    2  C   UNL     1      -5.262   9.090  65.889  1.00  0.00    -0.036 C  
ENDROOT
BRANCH   2   3
HETATM    3  O   UNL     1      -6.304   8.453  66.633  1.00  0.00    -0.053 OA 
BRANCH   3   4
HETATM    4  C   UNL     1      -7.587   8.662  66.265  1.00  0.00    -0.094 C  
HETATM    5  O   UNL     1      -7.970   9.058  65.172  1.00  0.00    -0.109 OA 
BRANCH   4   6
HETATM    6  C   UNL     1      -8.485   8.165  67.336  1.00  0.00    -0.126 C  
HETATM    7  C   UNL     1      -9.181   7.008  67.231  1.00  0.00    -0.129 C  
HETATM    8  C   UNL     1      -9.153   6.018  66.089  1.00  0.00    -0.159 C  
HETATM    9  N   UNL     1     -10.039   6.634  68.250  1.00  0.00    -0.151 NA 
HETATM   10  C   UNL     1     -10.353   7.406  69.350  1.00  0.00    -0.210 C  
HETATM   11  C   UNL     1     -11.431   6.825  70.235  1.00  0.00    -0.414 C  
HETATM   12  C   UNL     1      -9.709   8.580  69.568  1.00  0.00    -0.176 C  
HETATM   13  C   UNL     1      -8.631   9.070  68.586  1.00  0.00    -0.129 C  
BRANCH  12  14
HETATM   14  C   UNL     1     -10.066   9.395  70.760  1.00  0.00    -0.298 C  
HETATM   15  O   UNL     1      -9.536   9.279  71.855  1.00  0.00    -0.291 OA 
BRANCH  14  16
HETATM   16  O   UNL     1     -11.047  10.287  70.475  1.00  0.00    -0.302 OA 
HETATM   17  C   UNL     1     -12.208  10.163  71.309  1.00  0.00    -0.398 C  
ENDBRANCH  14  16
ENDBRANCH  12  14
BRANCH  13  18
HETATM   18  C   UNL     1      -8.746  10.562  68.209  1.00  0.00    -0.135 A  
HETATM   19  C   UNL     1      -7.736  11.431  68.687  1.00  0.00    -0.137 A  
HETATM   20  C   UNL     1      -7.672  12.768  68.295  1.00  0.00    -0.136 A  
HETATM   21  C   UNL     1      -9.726  11.097  67.347  1.00  0.00    -0.173 A  
HETATM   22  C   UNL     1      -9.650  12.448  66.950  1.00  0.00    -0.219 A  
HETATM   23 CL   UNL     1     -11.008  10.099  66.740  1.00  0.00    -0.131 Cl 
HETATM   24 CL   UNL     1     -10.774  13.158  65.837  1.00  0.00    -0.281 Cl 
HETATM   25  C   UNL     1      -8.622  13.273  67.417  1.00  0.00    -0.204 A  
ENDBRANCH  13  18
ENDBRANCH   4   6
ENDBRANCH   3   4
ENDBRANCH   2   3
TORSDOF 6
ENDMDL
MODEL      145
REMARK 921   NORMALIZED FREE ENERGY PREDICTED BY IDOCK:   -3.25 KCAL/MOL
REMARK 922        TOTAL FREE ENERGY PREDICTED BY IDOCK:   -5.61 KCAL/MOL
REMARK 923 INTER-LIGAND FREE ENERGY PREDICTED BY IDOCK:   -4.65 KCAL/MOL
REMARK 924 INTRA-LIGAND FREE ENERGY PREDICTED BY IDOCK:   -0.97 KCAL/MOL
REMARK 927      BINDING AFFINITY PREDICTED BY RF-SCORE:    0.00 PKD
ROOT
HETATM    1  C   UNL     1      -8.879   4.699  64.594  1.00  0.00    -0.153 C  
HETATM    2  C   UNL     1      -7.634   5.376  65.124  1.00  0.00    -0.079 C  
ENDROOT
BRANCH   2   3
HETATM    3  O   UNL     1      -8.056   6.147  66.252  1.00  0.00    -0.107 OA 
BRANCH   3   4
HETATM    4  C   UNL     1      -7.473   5.919  67.449  1.00  0.00    -0.078 C  
HETATM    5  O   UNL     1      -6.276   5.757  67.652  1.00  0.00    -0.027 OA 
BRANCH   4   6
HETATM    6  C   UNL     1      -8.489   6.073  68.520  1.00  0.00    -0.113 C  
HETATM    7  C   UNL     1      -9.383   5.104  68.827  1.00  0.00    -0.125 C  
HETATM    8  C   UNL     1      -9.495   3.727  68.211  1.00  0.00    -0.215 C  
HETATM    9  N   UNL     1     -10.333   5.338  69.804  1.00  0.00    -0.293 NA 
HETATM   10  C   UNL     1     -10.541   6.546  70.440  1.00  0.00    -0.233 C  
HETATM   11  C   UNL     1     -11.741   6.572  71.357  1.00  0.00    -0.378 C  
HETATM   12  C   UNL     1      -9.699   7.587  70.221  1.00  0.00    -0.179 C  
HETATM   13  C   UNL     1      -8.512   7.438  69.255  1.00  0.00    -0.136 C  
BRANCH  12  14
HETATM   14  C   UNL     1      -9.944   8.878  70.918  1.00  0.00    -0.242 C  
HETATM   15  O   UNL     1     -10.908   9.600  70.707  1.00  0.00    -0.282 OA 
BRANCH  14  16
HETATM   16  O   UNL     1      -8.971   9.146  71.824  1.00  0.00    -0.345 OA 
HETATM   17  C   UNL     1      -9.017   8.312  72.991  1.00  0.00    -0.241 C  
ENDBRANCH  14  16
ENDBRANCH  12  14
BRANCH  13  18
HETATM   18  C   UNL     1      -8.334   8.622  68.281  1.00  0.00    -0.127 A  
HETATM   19  C   UNL     1      -7.116   9.342  68.353  1.00  0.00    -0.072 A  
HETATM   20  C   UNL     1      -6.800  10.341  67.432  1.00  0.00    -0.077 A  
HETATM   21  C   UNL     1      -9.250   8.971  67.267  1.00  0.00    -0.134 A  
HETATM   22  C   UNL     1      -8.919   9.976  66.337  1.00  0.00    -0.144 A  
HETATM   23 CL   UNL     1     -10.772   8.148  67.132  1.00  0.00    -0.345 Cl 
HETATM   24 CL   UNL     1      -9.961  10.410  65.021  1.00  0.00    -0.381 Cl 
HETATM   25  C   UNL     1      -7.695  10.648  66.417  1.00  0.00    -0.141 A  
ENDBRANCH  13  18
ENDBRANCH   4   6
ENDBRANCH   3   4
ENDBRANCH   2   3
TORSDOF 6
ENDMDL
MODEL      146
REMARK 921   NORMALIZED FREE ENERGY PREDICTED BY IDOCK:   -3.25 KCAL/MOL
REMARK 922        TOTAL FREE ENERGY PREDICTED BY IDOCK:   -5.61 KCAL/MOL
REMARK 923 INTER-LIGAND FREE ENERGY PREDICTED BY IDOCK:   -4.65 KCAL/MOL
REMARK 924 INTRA-LIGAND FREE ENERGY PREDICTED BY IDOCK:   -0.96 KCAL/MOL
REMARK 927      BINDING AFFINITY PREDICTED BY RF-SCORE:    0.00 PKD
ROOT
HETATM    1  C   UNL     1      -6.643  17.046  68.107  1.00  0.00    -0.149 C  
HETATM    2  C   UNL     1      -6.206  15.623  68.381  1.00  0.00    -0.102 C  
ENDROOT
BRANCH   2   3
HETATM    3  O   UNL     1      -7.068  14.790  67.600  1.00  0.00    -0.156 OA 
BRANCH   3   4
HETATM    4  C   UNL     1      -8.300  14.504  68.075  1.00  0.00    -0.153 C  
HETATM    5  O   UNL     1      -8.715  14.746  69.201  1.00  0.00    -0.161 OA 
BRANCH   4   6
HETATM    6  C   UNL     1      -9.144  14.006  66.962  1.00  0.00    -0.256 C  
HETATM    7  C   UNL     1     -10.239  14.668  66.520  1.00  0.00    -0.278 C  
HETATM    8  C   UNL     1     -10.771  15.998  67.009  1.00  0.00    -0.277 C  
HETATM    9  N   UNL     1     -11.008  14.117  65.510  1.00  0.00    -0.300 NA 
HETATM   10  C   UNL     1     -10.828  12.861  64.968  1.00  0.00    -0.299 C  
HETATM   11  C   UNL     1     -11.897  12.444  63.985  1.00  0.00    -0.521 C  
HETATM   12  C   UNL     1      -9.756  12.110  65.324  1.00  0.00    -0.159 C  
HETATM   13  C   UNL     1      -8.737  12.644  66.345  1.00  0.00     0.077 C  
BRANCH  12  14
HETATM   14  C   UNL     1      -9.585  10.758  64.726  1.00  0.00    -0.262 C  
HETATM   15  O   UNL     1     -10.329   9.813  64.941  1.00  0.00     0.082 OA 
BRANCH  14  16
HETATM   16  O   UNL     1      -8.507  10.713  63.905  1.00  0.00    -0.148 OA 
HETATM   17  C   UNL     1      -8.839  10.655  62.511  1.00  0.00    -0.275 C  
ENDBRANCH  14  16
ENDBRANCH  12  14
BRANCH  13  18
HETATM   18  C   UNL     1      -8.325  11.621  67.425  1.00  0.00    -0.152 A  
HETATM   19  C   UNL     1      -6.943  11.335  67.554  1.00  0.00    -0.091 A  
HETATM   20  C   UNL     1      -6.453  10.531  68.583  1.00  0.00    -0.051 A  
HETATM   21  C   UNL     1      -9.211  11.030  68.350  1.00  0.00    -0.175 A  
HETATM   22  C   UNL     1      -8.707  10.225  69.391  1.00  0.00    -0.156 A  
HETATM   23 CL   UNL     1     -10.919  11.315  68.240  1.00  0.00    -0.250 Cl 
HETATM   24 CL   UNL     1      -9.725   9.525  70.606  1.00  0.00    -0.329 Cl 
HETATM   25  C   UNL     1      -7.334   9.987  69.508  1.00  0.00    -0.112 A  
ENDBRANCH  13  18
ENDBRANCH   4   6
ENDBRANCH   3   4
ENDBRANCH   2   3
TORSDOF 6
ENDMDL
MODEL      147
REMARK 921   NORMALIZED FREE ENERGY PREDICTED BY IDOCK:   -3.24 KCAL/MOL
REMARK 922        TOTAL FREE ENERGY PREDICTED BY IDOCK:   -5.60 KCAL/MOL
REMARK 923 INTER-LIGAND FREE ENERGY PREDICTED BY IDOCK:   -4.79 KCAL/MOL
REMARK 924 INTRA-LIGAND FREE ENERGY PREDICTED BY IDOCK:   -0.81 KCAL/MOL
REMARK 927      BINDING AFFINITY PREDICTED BY RF-SCORE:    0.00 PKD
ROOT
HETATM    1  C   UNL     1     -10.213  10.055  64.958  1.00  0.00    -0.096 C  
HETATM    2  C   UNL     1      -9.246   9.116  65.646  1.00  0.00    -0.234 C  
ENDROOT
BRANCH   2   3
HETATM    3  O   UNL     1      -8.368   9.947  66.410  1.00  0.00    -0.123 OA 
BRANCH   3   4
HETATM    4  C   UNL     1      -8.359   9.819  67.755  1.00  0.00    -0.114 C  
HETATM    5  O   UNL     1      -7.501   9.255  68.422  1.00  0.00    -0.077 OA 
BRANCH   4   6
HETATM    6  C   UNL     1      -9.466  10.625  68.326  1.00  0.00    -0.161 C  
HETATM    7  C   UNL     1      -9.488  11.978  68.275  1.00  0.00    -0.199 C  
HETATM    8  C   UNL     1      -8.474  12.892  67.624  1.00  0.00    -0.183 C  
HETATM    9  N   UNL     1     -10.529  12.665  68.874  1.00  0.00    -0.142 NA 
HETATM   10  C   UNL     1     -11.522  12.094  69.644  1.00  0.00    -0.238 C  
HETATM   11  C   UNL     1     -12.451  13.085  70.305  1.00  0.00    -0.217 C  
HETATM   12  C   UNL     1     -11.608  10.744  69.756  1.00  0.00    -0.393 C  
HETATM   13  C   UNL     1     -10.595   9.837  69.038  1.00  0.00    -0.238 C  
BRANCH  12  14
HETATM   14  C   UNL     1     -12.687  10.152  70.593  1.00  0.00    -0.255 C  
HETATM   15  O   UNL     1     -13.768   9.784  70.158  1.00  0.00     0.420 OA 
BRANCH  14  16
HETATM   16  O   UNL     1     -12.313  10.063  71.893  1.00  0.00    -0.374 OA 
HETATM   17  C   UNL     1     -12.834   8.910  72.570  1.00  0.00    -0.334 C  
ENDBRANCH  14  16
ENDBRANCH  12  14
BRANCH  13  18
HETATM   18  C   UNL     1     -10.038   8.692  69.911  1.00  0.00    -0.197 A  
HETATM   19  C   UNL     1      -9.313   9.056  71.072  1.00  0.00    -0.339 A  
HETATM   20  C   UNL     1      -8.884   8.104  71.997  1.00  0.00    -0.233 A  
HETATM   21  C   UNL     1     -10.283   7.321  69.686  1.00  0.00    -0.211 A  
HETATM   22  C   UNL     1      -9.852   6.367  70.630  1.00  0.00    -0.184 A  
HETATM   23 CL   UNL     1     -11.144   6.799  68.274  1.00  0.00    -0.254 Cl 
HETATM   24 CL   UNL     1     -10.180   4.673  70.460  1.00  0.00    -0.266 Cl 
HETATM   25  C   UNL     1      -9.164   6.761  71.782  1.00  0.00    -0.147 A  
ENDBRANCH  13  18
ENDBRANCH   4   6
ENDBRANCH   3   4
ENDBRANCH   2   3
TORSDOF 6
ENDMDL
MODEL      148
REMARK 921   NORMALIZED FREE ENERGY PREDICTED BY IDOCK:   -3.24 KCAL/MOL
REMARK 922        TOTAL FREE ENERGY PREDICTED BY IDOCK:   -5.59 KCAL/MOL
REMARK 923 INTER-LIGAND FREE ENERGY PREDICTED BY IDOCK:   -4.51 KCAL/MOL
REMARK 924 INTRA-LIGAND FREE ENERGY PREDICTED BY IDOCK:   -1.09 KCAL/MOL
REMARK 927      BINDING AFFINITY PREDICTED BY RF-SCORE:    0.00 PKD
ROOT
HETATM    1  C   UNL     1      -7.272   9.154  70.661  1.00  0.00    -0.106 C  
HETATM    2  C   UNL     1      -8.634   9.688  70.273  1.00  0.00    -0.197 C  
ENDROOT
BRANCH   2   3
HETATM    3  O   UNL     1      -9.316   8.602  69.640  1.00  0.00    -0.158 OA 
BRANCH   3   4
HETATM    4  C   UNL     1     -10.140   8.868  68.604  1.00  0.00    -0.188 C  
HETATM    5  O   UNL     1     -11.163   9.540  68.647  1.00  0.00    -0.053 OA 
BRANCH   4   6
HETATM    6  C   UNL     1      -9.521   8.366  67.352  1.00  0.00    -0.185 C  
HETATM    7  C   UNL     1      -9.055   7.101  67.221  1.00  0.00    -0.123 C  
HETATM    8  C   UNL     1      -9.107   5.990  68.246  1.00  0.00    -0.111 C  
HETATM    9  N   UNL     1      -8.445   6.720  66.040  1.00  0.00    -0.137 NA 
HETATM   10  C   UNL     1      -8.152   7.561  64.986  1.00  0.00    -0.127 C  
HETATM   11  C   UNL     1      -7.349   6.922  63.878  1.00  0.00    -0.080 C  
HETATM   12  C   UNL     1      -8.581   8.849  65.000  1.00  0.00    -0.202 C  
HETATM   13  C   UNL     1      -9.388   9.387  66.194  1.00  0.00    -0.262 C  
BRANCH  12  14
HETATM   14  C   UNL     1      -8.252   9.737  63.853  1.00  0.00    -0.159 C  
HETATM   15  O   UNL     1      -7.173  10.290  63.701  1.00  0.00    -0.136 OA 
BRANCH  14  16
HETATM   16  O   UNL     1      -9.295   9.844  62.993  1.00  0.00    -0.283 OA 
HETATM   17  C   UNL     1      -9.900  11.145  62.971  1.00  0.00    -0.337 C  
ENDBRANCH  14  16
ENDBRANCH  12  14
BRANCH  13  18
HETATM   18  C   UNL     1      -8.932  10.773  66.695  1.00  0.00    -0.164 A  
HETATM   19  C   UNL     1      -7.579  10.906  67.092  1.00  0.00    -0.109 A  
HETATM   20  C   UNL     1      -7.032  12.143  67.432  1.00  0.00    -0.146 A  
HETATM   21  C   UNL     1      -9.737  11.931  66.692  1.00  0.00    -0.205 A  
HETATM   22  C   UNL     1      -9.174  13.179  67.031  1.00  0.00    -0.233 A  
HETATM   23 CL   UNL     1     -11.410  11.842  66.241  1.00  0.00    -0.398 Cl 
HETATM   24 CL   UNL     1     -10.080  14.655  66.981  1.00  0.00    -0.247 Cl 
HETATM   25  C   UNL     1      -7.826  13.280  67.390  1.00  0.00    -0.159 A  
ENDBRANCH  13  18
ENDBRANCH   4   6
ENDBRANCH   3   4
ENDBRANCH   2   3
TORSDOF 6
ENDMDL
MODEL      149
REMARK 921   NORMALIZED FREE ENERGY PREDICTED BY IDOCK:   -3.23 KCAL/MOL
REMARK 922        TOTAL FREE ENERGY PREDICTED BY IDOCK:   -5.59 KCAL/MOL
REMARK 923 INTER-LIGAND FREE ENERGY PREDICTED BY IDOCK:   -4.37 KCAL/MOL
REMARK 924 INTRA-LIGAND FREE ENERGY PREDICTED BY IDOCK:   -1.22 KCAL/MOL
REMARK 927      BINDING AFFINITY PREDICTED BY RF-SCORE:    0.00 PKD
ROOT
HETATM    1  C   UNL     1      -8.853   3.523  73.146  1.00  0.00    -0.097 C  
HETATM    2  C   UNL     1      -8.062   3.846  71.897  1.00  0.00    -0.075 C  
ENDROOT
BRANCH   2   3
HETATM    3  O   UNL     1      -8.558   5.104  71.432  1.00  0.00    -0.124 OA 
BRANCH   3   4
HETATM    4  C   UNL     1      -9.473   5.114  70.438  1.00  0.00    -0.169 C  
HETATM    5  O   UNL     1      -9.987   4.132  69.918  1.00  0.00    -0.209 OA 
BRANCH   4   6
HETATM    6  C   UNL     1      -9.902   6.512  70.189  1.00  0.00    -0.185 C  
HETATM    7  C   UNL     1     -10.967   7.074  70.809  1.00  0.00    -0.255 C  
HETATM    8  C   UNL     1     -11.859   6.446  71.856  1.00  0.00    -0.380 C  
HETATM    9  N   UNL     1     -11.338   8.367  70.488  1.00  0.00    -0.249 NA 
HETATM   10  C   UNL     1     -10.780   9.129  69.481  1.00  0.00    -0.215 C  
HETATM   11  C   UNL     1     -11.470  10.452  69.242  1.00  0.00    -0.281 C  
HETATM   12  C   UNL     1      -9.698   8.675  68.799  1.00  0.00    -0.171 C  
HETATM   13  C   UNL     1      -9.089   7.303  69.132  1.00  0.00    -0.137 C  
BRANCH  12  14
HETATM   14  C   UNL     1      -9.116   9.514  67.718  1.00  0.00    -0.125 C  
HETATM   15  O   UNL     1      -8.094  10.174  67.836  1.00  0.00    -0.107 OA 
BRANCH  14  16
HETATM   16  O   UNL     1      -9.857   9.445  66.584  1.00  0.00    -0.207 OA 
HETATM   17  C   UNL     1      -9.080   9.249  65.393  1.00  0.00    -0.222 C  
ENDBRANCH  14  16
ENDBRANCH  12  14
BRANCH  13  18
HETATM   18  C   UNL     1      -8.755   6.440  67.896  1.00  0.00    -0.115 A  
HETATM   19  C   UNL     1      -7.401   6.066  67.715  1.00  0.00    -0.077 A  
HETATM   20  C   UNL     1      -7.013   5.180  66.710  1.00  0.00    -0.064 A  
HETATM   21  C   UNL     1      -9.711   5.921  66.999  1.00  0.00    -0.141 A  
HETATM   22  C   UNL     1      -9.312   5.021  65.990  1.00  0.00    -0.157 A  
HETATM   23 CL   UNL     1     -11.384   6.353  67.145  1.00  0.00    -0.281 Cl 
HETATM   24 CL   UNL     1     -10.437   4.285  64.897  1.00  0.00    -0.226 Cl 
HETATM   25  C   UNL     1      -7.970   4.648  65.856  1.00  0.00    -0.099 A  
ENDBRANCH  13  18
ENDBRANCH   4   6
ENDBRANCH   3   4
ENDBRANCH   2   3
TORSDOF 6
ENDMDL
MODEL      150
REMARK 921   NORMALIZED FREE ENERGY PREDICTED BY IDOCK:   -3.23 KCAL/MOL
REMARK 922        TOTAL FREE ENERGY PREDICTED BY IDOCK:   -5.58 KCAL/MOL
REMARK 923 INTER-LIGAND FREE ENERGY PREDICTED BY IDOCK:   -4.62 KCAL/MOL
REMARK 924 INTRA-LIGAND FREE ENERGY PREDICTED BY IDOCK:   -0.96 KCAL/MOL
REMARK 927      BINDING AFFINITY PREDICTED BY RF-SCORE:    0.00 PKD
ROOT
HETATM    1  C   UNL     1      -9.525  11.177  62.870  1.00  0.00    -0.382 C  
HETATM    2  C   UNL     1      -9.375  11.270  64.373  1.00  0.00    -0.124 C  
ENDROOT
BRANCH   2   3
HETATM    3  O   UNL     1      -8.882   9.997  64.798  1.00  0.00    -0.164 OA 
BRANCH   3   4
HETATM    4  C   UNL     1      -7.768   9.953  65.560  1.00  0.00    -0.124 C  
HETATM    5  O   UNL     1      -6.768  10.648  65.421  1.00  0.00    -0.107 OA 
BRANCH   4   6
HETATM    6  C   UNL     1      -8.005   9.052  66.715  1.00  0.00    -0.107 C  
HETATM    7  C   UNL     1      -8.269   7.732  66.571  1.00  0.00    -0.124 C  
HETATM    8  C   UNL     1      -8.326   6.939  65.285  1.00  0.00    -0.102 C  
HETATM    9  N   UNL     1      -8.530   6.964  67.692  1.00  0.00    -0.122 NA 
HETATM   10  C   UNL     1      -8.666   7.450  68.977  1.00  0.00    -0.133 C  
HETATM   11  C   UNL     1      -9.098   6.420  69.994  1.00  0.00    -0.150 C  
HETATM   12  C   UNL     1      -8.412   8.756  69.244  1.00  0.00    -0.122 C  
HETATM   13  C   UNL     1      -7.984   9.711  68.117  1.00  0.00    -0.100 C  
BRANCH  12  14
HETATM   14  C   UNL     1      -8.567   9.256  70.636  1.00  0.00    -0.225 C  
HETATM   15  O   UNL     1      -7.644   9.372  71.430  1.00  0.00    -0.340 OA 
BRANCH  14  16
HETATM   16  O   UNL     1      -9.856   9.576  70.908  1.00  0.00    -0.275 OA 
HETATM   17  C   UNL     1     -10.398   8.891  72.047  1.00  0.00    -0.307 C  
ENDBRANCH  14  16
ENDBRANCH  12  14
BRANCH  13  18
HETATM   18  C   UNL     1      -8.712  11.072  68.128  1.00  0.00    -0.141 A  
HETATM   19  C   UNL     1      -7.923  12.228  68.345  1.00  0.00    -0.152 A  
HETATM   20  C   UNL     1      -8.458  13.511  68.241  1.00  0.00    -0.168 A  
HETATM   21  C   UNL     1     -10.081  11.250  67.839  1.00  0.00    -0.178 A  
HETATM   22  C   UNL     1     -10.612  12.552  67.729  1.00  0.00    -0.219 A  
HETATM   23 CL   UNL     1     -11.115   9.881  67.584  1.00  0.00    -0.266 Cl 
HETATM   24 CL   UNL     1     -12.266  12.852  67.307  1.00  0.00    -0.250 Cl 
HETATM   25  C   UNL     1      -9.799  13.673  67.921  1.00  0.00    -0.237 A  
ENDBRANCH  13  18
ENDBRANCH   4   6
ENDBRANCH   3   4
ENDBRANCH   2   3
TORSDOF 6
ENDMDL
MODEL      151
REMARK 921   NORMALIZED FREE ENERGY PREDICTED BY IDOCK:   -3.18 KCAL/MOL
REMARK 922        TOTAL FREE ENERGY PREDICTED BY IDOCK:   -5.52 KCAL/MOL
REMARK 923 INTER-LIGAND FREE ENERGY PREDICTED BY IDOCK:   -5.57 KCAL/MOL
REMARK 924 INTRA-LIGAND FREE ENERGY PREDICTED BY IDOCK:    0.05 KCAL/MOL
REMARK 927      BINDING AFFINITY PREDICTED BY RF-SCORE:    0.00 PKD
ROOT
HETATM    1  C   UNL     1     -12.415  11.328  70.458  1.00  0.00    -0.398 C  
HETATM    2  C   UNL     1     -12.241  12.423  69.428  1.00  0.00    -0.065 C  
ENDROOT
BRANCH   2   3
HETATM    3  O   UNL     1     -12.285  11.775  68.154  1.00  0.00    -0.507 OA 
BRANCH   3   4
HETATM    4  C   UNL     1     -11.498  12.241  67.161  1.00  0.00    -0.352 C  
HETATM    5  O   UNL     1     -11.863  12.916  66.206  1.00  0.00    -0.378 OA 
BRANCH   4   6
HETATM    6  C   UNL     1     -10.080  11.962  67.494  1.00  0.00    -0.206 C  
HETATM    7  C   UNL     1      -9.643  10.735  67.865  1.00  0.00    -0.160 C  
HETATM    8  C   UNL     1     -10.452   9.461  67.967  1.00  0.00    -0.278 C  
HETATM    9  N   UNL     1      -8.315  10.561  68.210  1.00  0.00    -0.118 NA 
HETATM   10  C   UNL     1      -7.382  11.573  68.327  1.00  0.00    -0.091 C  
HETATM   11  C   UNL     1      -6.041  11.130  68.863  1.00  0.00    -0.045 C  
HETATM   12  C   UNL     1      -7.703  12.842  67.969  1.00  0.00    -0.137 C  
HETATM   13  C   UNL     1      -9.110  13.169  67.441  1.00  0.00    -0.208 C  
BRANCH  12  14
HETATM   14  C   UNL     1      -6.682  13.914  68.105  1.00  0.00    -0.125 C  
HETATM   15  O   UNL     1      -5.977  14.070  69.091  1.00  0.00    -0.084 OA 
BRANCH  14  16
HETATM   16  O   UNL     1      -6.625  14.689  66.993  1.00  0.00    -0.113 OA 
HETATM   17  C   UNL     1      -6.603  16.097  67.265  1.00  0.00    -0.196 C  
ENDBRANCH  14  16
ENDBRANCH  12  14
BRANCH  13  18
HETATM   18  C   UNL     1      -9.737  14.441  68.053  1.00  0.00    -0.221 A  
HETATM   19  C   UNL     1      -9.999  14.429  69.445  1.00  0.00     0.093 A  
HETATM   20  C   UNL     1     -10.438  15.569  70.118  1.00  0.00    -0.317 A  
HETATM   21  C   UNL     1      -9.974  15.637  67.345  1.00  0.00    -0.232 A  
HETATM   22  C   UNL     1     -10.411  16.787  68.034  1.00  0.00    -0.333 A  
HETATM   23 CL   UNL     1      -9.699  15.720  65.634  1.00  0.00    -0.363 Cl 
HETATM   24 CL   UNL     1     -10.654  18.311  67.247  1.00  0.00    -0.418 Cl 
HETATM   25  C   UNL     1     -10.631  16.750  69.415  1.00  0.00    -0.318 A  
ENDBRANCH  13  18
ENDBRANCH   4   6
ENDBRANCH   3   4
ENDBRANCH   2   3
TORSDOF 6
ENDMDL
MODEL      152
REMARK 921   NORMALIZED FREE ENERGY PREDICTED BY IDOCK:   -3.16 KCAL/MOL
REMARK 922        TOTAL FREE ENERGY PREDICTED BY IDOCK:   -5.49 KCAL/MOL
REMARK 923 INTER-LIGAND FREE ENERGY PREDICTED BY IDOCK:   -6.30 KCAL/MOL
REMARK 924 INTRA-LIGAND FREE ENERGY PREDICTED BY IDOCK:    0.81 KCAL/MOL
REMARK 927      BINDING AFFINITY PREDICTED BY RF-SCORE:    0.00 PKD
ROOT
HETATM    1  C   UNL     1      -6.154  11.711  68.860  1.00  0.00    -0.053 C  
HETATM    2  C   UNL     1      -5.396  13.018  68.772  1.00  0.00    -0.072 C  
ENDROOT
BRANCH   2   3
HETATM    3  O   UNL     1      -6.296  13.956  68.178  1.00  0.00    -0.098 OA 
BRANCH   3   4
HETATM    4  C   UNL     1      -6.921  14.851  68.974  1.00  0.00    -0.120 C  
HETATM    5  O   UNL     1      -6.856  14.901  70.196  1.00  0.00    -0.178 OA 
BRANCH   4   6
HETATM    6  C   UNL     1      -7.563  15.887  68.128  1.00  0.00    -0.135 C  
HETATM    7  C   UNL     1      -7.261  17.203  68.225  1.00  0.00    -0.204 C  
HETATM    8  C   UNL     1      -6.235  17.847  69.130  1.00  0.00    -0.231 C  
HETATM    9  N   UNL     1      -7.938  18.117  67.438  1.00  0.00    -0.224 NA 
HETATM   10  C   UNL     1      -9.008  17.823  66.616  1.00  0.00    -0.266 C  
HETATM   11  C   UNL     1      -9.659  19.029  65.981  1.00  0.00    -0.172 C  
HETATM   12  C   UNL     1      -9.392  16.535  66.429  1.00  0.00    -0.316 C  
HETATM   13  C   UNL     1      -8.650  15.391  67.140  1.00  0.00    -0.235 C  
BRANCH  12  14
HETATM   14  C   UNL     1     -10.548  16.244  65.540  1.00  0.00    -0.353 C  
HETATM   15  O   UNL     1     -10.880  16.944  64.594  1.00  0.00    -0.864 OA 
BRANCH  14  16
HETATM   16  O   UNL     1     -11.178  15.100  65.903  1.00  0.00    -0.338 OA 
HETATM   17  C   UNL     1     -11.545  14.261  64.799  1.00  0.00    -0.401 C  
ENDBRANCH  14  16
ENDBRANCH  12  14
BRANCH  13  18
HETATM   18  C   UNL     1      -9.576  14.335  67.781  1.00  0.00    -0.221 A  
HETATM   19  C   UNL     1      -9.395  12.988  67.384  1.00  0.00    -0.209 A  
HETATM   20  C   UNL     1     -10.085  11.944  67.999  1.00  0.00    -0.199 A  
HETATM   21  C   UNL     1     -10.514  14.605  68.799  1.00  0.00    -0.246 A  
HETATM   22  C   UNL     1     -11.202  13.543  69.420  1.00  0.00    -0.187 A  
HETATM   23 CL   UNL     1     -10.806  16.233  69.321  1.00  0.00    -0.296 Cl 
HETATM   24 CL   UNL     1     -12.315  13.788  70.725  1.00  0.00    -0.433 Cl 
HETATM   25  C   UNL     1     -10.978  12.220  69.025  1.00  0.00    -0.250 A  
ENDBRANCH  13  18
ENDBRANCH   4   6
ENDBRANCH   3   4
ENDBRANCH   2   3
TORSDOF 6
ENDMDL
MODEL      153
REMARK 921   NORMALIZED FREE ENERGY PREDICTED BY IDOCK:   -3.15 KCAL/MOL
REMARK 922        TOTAL FREE ENERGY PREDICTED BY IDOCK:   -5.48 KCAL/MOL
REMARK 923 INTER-LIGAND FREE ENERGY PREDICTED BY IDOCK:   -4.58 KCAL/MOL
REMARK 924 INTRA-LIGAND FREE ENERGY PREDICTED BY IDOCK:   -0.91 KCAL/MOL
REMARK 927      BINDING AFFINITY PREDICTED BY RF-SCORE:    0.00 PKD
ROOT
HETATM    1  C   UNL     1      -8.051   5.106  64.853  1.00  0.00    -0.119 C  
HETATM    2  C   UNL     1      -8.216   6.374  65.663  1.00  0.00    -0.140 C  
ENDROOT
BRANCH   2   3
HETATM    3  O   UNL     1      -8.590   5.955  66.978  1.00  0.00    -0.111 OA 
BRANCH   3   4
HETATM    4  C   UNL     1      -9.890   5.694  67.232  1.00  0.00    -0.146 C  
HETATM    5  O   UNL     1     -10.591   4.876  66.650  1.00  0.00    -0.256 OA 
BRANCH   4   6
HETATM    6  C   UNL     1     -10.302   6.429  68.454  1.00  0.00    -0.228 C  
HETATM    7  C   UNL     1     -10.505   7.768  68.470  1.00  0.00    -0.168 C  
HETATM    8  C   UNL     1     -10.405   8.728  67.306  1.00  0.00    -0.360 C  
HETATM    9  N   UNL     1     -10.839   8.391  69.659  1.00  0.00    -0.195 NA 
HETATM   10  C   UNL     1     -10.876   7.780  70.896  1.00  0.00    -0.237 C  
HETATM   11  C   UNL     1     -11.124   8.721  72.052  1.00  0.00    -0.441 C  
HETATM   12  C   UNL     1     -10.701   6.439  71.001  1.00  0.00    -0.301 C  
HETATM   13  C   UNL     1     -10.448   5.586  69.746  1.00  0.00    -0.389 C  
BRANCH  12  14
HETATM   14  C   UNL     1     -10.744   5.804  72.346  1.00  0.00    -0.235 C  
HETATM   15  O   UNL     1     -11.728   5.249  72.812  1.00  0.00    -0.275 OA 
BRANCH  14  16
HETATM   16  O   UNL     1      -9.552   5.910  72.982  1.00  0.00    -0.154 OA 
HETATM   17  C   UNL     1      -9.128   4.701  73.629  1.00  0.00    -0.105 C  
ENDBRANCH  14  16
ENDBRANCH  12  14
BRANCH  13  18
HETATM   18  C   UNL     1      -9.307   4.557  69.897  1.00  0.00    -0.218 A  
HETATM   19  C   UNL     1      -9.645   3.190  69.748  1.00  0.00    -0.128 A  
HETATM   20  C   UNL     1      -8.670   2.192  69.732  1.00  0.00    -0.119 A  
HETATM   21  C   UNL     1      -7.948   4.888  70.073  1.00  0.00    -0.073 A  
HETATM   22  C   UNL     1      -6.969   3.874  70.049  1.00  0.00    -0.041 A  
HETATM   23 CL   UNL     1      -7.462   6.540  70.286  1.00  0.00    -0.092 Cl 
HETATM   24 CL   UNL     1      -5.274   4.209  70.186  1.00  0.00    -0.004 Cl 
HETATM   25  C   UNL     1      -7.332   2.535  69.870  1.00  0.00    -0.043 A  
ENDBRANCH  13  18
ENDBRANCH   4   6
ENDBRANCH   3   4
ENDBRANCH   2   3
TORSDOF 6
ENDMDL
MODEL      154
REMARK 921   NORMALIZED FREE ENERGY PREDICTED BY IDOCK:   -3.15 KCAL/MOL
REMARK 922        TOTAL FREE ENERGY PREDICTED BY IDOCK:   -5.48 KCAL/MOL
REMARK 923 INTER-LIGAND FREE ENERGY PREDICTED BY IDOCK:   -4.30 KCAL/MOL
REMARK 924 INTRA-LIGAND FREE ENERGY PREDICTED BY IDOCK:   -1.18 KCAL/MOL
REMARK 927      BINDING AFFINITY PREDICTED BY RF-SCORE:    0.00 PKD
ROOT
HETATM    1  C   UNL     1      -9.456   7.618  73.724  1.00  0.00    -0.300 C  
HETATM    2  C   UNL     1      -9.108   8.370  72.458  1.00  0.00    -0.256 C  
ENDROOT
BRANCH   2   3
HETATM    3  O   UNL     1      -9.000   7.382  71.431  1.00  0.00    -0.136 OA 
BRANCH   3   4
HETATM    4  C   UNL     1     -10.104   7.053  70.727  1.00  0.00    -0.194 C  
HETATM    5  O   UNL     1     -11.055   7.787  70.487  1.00  0.00    -0.254 OA 
BRANCH   4   6
HETATM    6  C   UNL     1      -9.915   5.709  70.128  1.00  0.00    -0.270 C  
HETATM    7  C   UNL     1      -9.946   4.570  70.860  1.00  0.00    -0.193 C  
HETATM    8  C   UNL     1     -10.211   4.435  72.342  1.00  0.00    -0.255 C  
HETATM    9  N   UNL     1      -9.711   3.356  70.240  1.00  0.00    -0.142 NA 
HETATM   10  C   UNL     1      -9.322   3.194  68.925  1.00  0.00    -0.162 C  
HETATM   11  C   UNL     1      -8.986   1.772  68.542  1.00  0.00    -0.166 C  
HETATM   12  C   UNL     1      -9.268   4.264  68.092  1.00  0.00    -0.186 C  
HETATM   13  C   UNL     1      -9.629   5.668  68.605  1.00  0.00    -0.163 C  
BRANCH  12  14
HETATM   14  C   UNL     1      -8.845   4.064  66.680  1.00  0.00    -0.122 C  
HETATM   15  O   UNL     1      -7.686   3.907  66.327  1.00  0.00    -0.087 OA 
BRANCH  14  16
HETATM   16  O   UNL     1      -9.908   4.069  65.839  1.00  0.00    -0.195 OA 
HETATM   17  C   UNL     1      -9.551   4.149  64.451  1.00  0.00    -0.162 C  
ENDBRANCH  14  16
ENDBRANCH  12  14
BRANCH  13  18
HETATM   18  C   UNL     1      -8.642   6.775  68.173  1.00  0.00    -0.120 A  
HETATM   19  C   UNL     1      -7.278   6.593  68.508  1.00  0.00    -0.085 A  
HETATM   20  C   UNL     1      -6.288   7.462  68.051  1.00  0.00    -0.048 A  
HETATM   21  C   UNL     1      -8.988   7.895  67.390  1.00  0.00    -0.127 A  
HETATM   22  C   UNL     1      -7.980   8.765  66.926  1.00  0.00    -0.098 A  
HETATM   23 CL   UNL     1     -10.641   8.196  66.961  1.00  0.00    -0.393 Cl 
HETATM   24 CL   UNL     1      -8.318  10.120  65.900  1.00  0.00    -0.131 Cl 
HETATM   25  C   UNL     1      -6.638   8.541  67.249  1.00  0.00    -0.059 A  
ENDBRANCH  13  18
ENDBRANCH   4   6
ENDBRANCH   3   4
ENDBRANCH   2   3
TORSDOF 6
ENDMDL
MODEL      155
REMARK 921   NORMALIZED FREE ENERGY PREDICTED BY IDOCK:   -3.13 KCAL/MOL
REMARK 922        TOTAL FREE ENERGY PREDICTED BY IDOCK:   -5.45 KCAL/MOL
REMARK 923 INTER-LIGAND FREE ENERGY PREDICTED BY IDOCK:   -4.30 KCAL/MOL
REMARK 924 INTRA-LIGAND FREE ENERGY PREDICTED BY IDOCK:   -1.15 KCAL/MOL
REMARK 927      BINDING AFFINITY PREDICTED BY RF-SCORE:    0.00 PKD
ROOT
HETATM    1  C   UNL     1      -8.744   2.322  65.565  1.00  0.00    -0.121 C  
HETATM    2  C   UNL     1      -8.954   3.587  66.368  1.00  0.00    -0.145 C  
ENDROOT
BRANCH   2   3
HETATM    3  O   UNL     1      -8.983   3.182  67.739  1.00  0.00    -0.121 OA 
BRANCH   3   4
HETATM    4  C   UNL     1      -8.151   3.788  68.614  1.00  0.00    -0.073 C  
HETATM    5  O   UNL     1      -7.012   4.174  68.380  1.00  0.00    -0.050 OA 
BRANCH   4   6
HETATM    6  C   UNL     1      -8.893   4.081  69.865  1.00  0.00    -0.138 C  
HETATM    7  C   UNL     1      -9.393   3.110  70.665  1.00  0.00    -0.155 C  
HETATM    8  C   UNL     1      -9.267   1.613  70.485  1.00  0.00    -0.158 C  
HETATM    9  N   UNL     1     -10.117   3.460  71.790  1.00  0.00    -0.122 NA 
HETATM   10  C   UNL     1     -10.492   4.745  72.129  1.00  0.00    -0.175 C  
HETATM   11  C   UNL     1     -11.406   4.835  73.327  1.00  0.00    -0.408 C  
HETATM   12  C   UNL     1     -10.038   5.801  71.407  1.00  0.00    -0.249 C  
HETATM   13  C   UNL     1      -9.114   5.578  70.199  1.00  0.00    -0.162 C  
BRANCH  12  14
HETATM   14  C   UNL     1     -10.457   7.176  71.792  1.00  0.00    -0.197 C  
HETATM   15  O   UNL     1     -11.388   7.778  71.279  1.00  0.00    -0.255 OA 
BRANCH  14  16
HETATM   16  O   UNL     1      -9.682   7.669  72.789  1.00  0.00    -0.168 OA 
HETATM   17  C   UNL     1      -8.750   8.672  72.360  1.00  0.00    -0.097 C  
ENDBRANCH  14  16
ENDBRANCH  12  14
BRANCH  13  18
HETATM   18  C   UNL     1      -9.495   6.399  68.948  1.00  0.00    -0.128 A  
HETATM   19  C   UNL     1     -10.742   6.111  68.340  1.00  0.00    -0.361 A  
HETATM   20  C   UNL     1     -11.241   6.882  67.290  1.00  0.00    -0.231 A  
HETATM   21  C   UNL     1      -8.739   7.472  68.432  1.00  0.00    -0.123 A  
HETATM   22  C   UNL     1      -9.254   8.249  67.375  1.00  0.00    -0.141 A  
HETATM   23 CL   UNL     1      -7.192   7.867  69.110  1.00  0.00    -0.079 Cl 
HETATM   24 CL   UNL     1      -8.418   9.626  66.737  1.00  0.00    -0.126 Cl 
HETATM   25  C   UNL     1     -10.503   7.958  66.816  1.00  0.00    -0.317 A  
ENDBRANCH  13  18
ENDBRANCH   4   6
ENDBRANCH   3   4
ENDBRANCH   2   3
TORSDOF 6
ENDMDL
MODEL      156
REMARK 921   NORMALIZED FREE ENERGY PREDICTED BY IDOCK:   -3.12 KCAL/MOL
REMARK 922        TOTAL FREE ENERGY PREDICTED BY IDOCK:   -5.43 KCAL/MOL
REMARK 923 INTER-LIGAND FREE ENERGY PREDICTED BY IDOCK:   -4.24 KCAL/MOL
REMARK 924 INTRA-LIGAND FREE ENERGY PREDICTED BY IDOCK:   -1.19 KCAL/MOL
REMARK 927      BINDING AFFINITY PREDICTED BY RF-SCORE:    0.00 PKD
ROOT
HETATM    1  C   UNL     1      -6.734  11.336  66.482  1.00  0.00    -0.105 C  
HETATM    2  C   UNL     1      -7.568  10.076  66.396  1.00  0.00    -0.104 C  
ENDROOT
BRANCH   2   3
HETATM    3  O   UNL     1      -8.757  10.340  67.145  1.00  0.00    -0.129 OA 
BRANCH   3   4
HETATM    4  C   UNL     1      -9.825   9.531  66.975  1.00  0.00    -0.190 C  
HETATM    5  O   UNL     1     -10.170   8.999  65.928  1.00  0.00    -0.165 OA 
BRANCH   4   6
HETATM    6  C   UNL     1     -10.425   9.235  68.300  1.00  0.00    -0.260 C  
HETATM    7  C   UNL     1     -11.228  10.109  68.952  1.00  0.00    -0.170 C  
HETATM    8  C   UNL     1     -11.691  11.467  68.474  1.00  0.00    -0.379 C  
HETATM    9  N   UNL     1     -11.710   9.784  70.207  1.00  0.00    -0.228 NA 
HETATM   10  C   UNL     1     -11.350   8.668  70.935  1.00  0.00    -0.272 C  
HETATM   11  C   UNL     1     -11.907   8.629  72.339  1.00  0.00    -0.402 C  
HETATM   12  C   UNL     1     -10.559   7.716  70.379  1.00  0.00    -0.233 C  
HETATM   13  C   UNL     1     -10.047   7.874  68.937  1.00  0.00    -0.203 C  
BRANCH  12  14
HETATM   14  C   UNL     1     -10.184   6.523  71.184  1.00  0.00    -0.192 C  
HETATM   15  O   UNL     1      -9.557   6.571  72.232  1.00  0.00    -0.149 OA 
BRANCH  14  16
HETATM   16  O   UNL     1     -10.634   5.378  70.614  1.00  0.00    -0.263 OA 
HETATM   17  C   UNL     1      -9.684   4.303  70.638  1.00  0.00    -0.204 C  
ENDBRANCH  14  16
ENDBRANCH  12  14
BRANCH  13  18
HETATM   18  C   UNL     1      -8.549   7.547  68.756  1.00  0.00    -0.129 A  
HETATM   19  C   UNL     1      -7.626   8.286  69.537  1.00  0.00    -0.095 A  
HETATM   20  C   UNL     1      -6.266   7.979  69.548  1.00  0.00    -0.034 A  
HETATM   21  C   UNL     1      -8.048   6.506  67.948  1.00  0.00    -0.116 A  
HETATM   22  C   UNL     1      -6.673   6.199  67.971  1.00  0.00    -0.064 A  
HETATM   23 CL   UNL     1      -9.116   5.574  66.947  1.00  0.00    -0.114 Cl 
HETATM   24 CL   UNL     1      -5.994   4.889  67.062  1.00  0.00    -0.026 Cl 
HETATM   25  C   UNL     1      -5.791   6.928  68.776  1.00  0.00    -0.018 A  
ENDBRANCH  13  18
ENDBRANCH   4   6
ENDBRANCH   3   4
ENDBRANCH   2   3
TORSDOF 6
ENDMDL
MODEL      157
REMARK 921   NORMALIZED FREE ENERGY PREDICTED BY IDOCK:   -3.08 KCAL/MOL
REMARK 922        TOTAL FREE ENERGY PREDICTED BY IDOCK:   -5.38 KCAL/MOL
REMARK 923 INTER-LIGAND FREE ENERGY PREDICTED BY IDOCK:   -4.19 KCAL/MOL
REMARK 924 INTRA-LIGAND FREE ENERGY PREDICTED BY IDOCK:   -1.20 KCAL/MOL
REMARK 927      BINDING AFFINITY PREDICTED BY RF-SCORE:    0.00 PKD
ROOT
HETATM    1  C   UNL     1     -10.480   1.761  73.494  1.00  0.00    -0.193 C  
HETATM    2  C   UNL     1     -10.275   2.177  72.054  1.00  0.00    -0.098 C  
ENDROOT
BRANCH   2   3
HETATM    3  O   UNL     1     -10.196   3.605  72.065  1.00  0.00    -0.161 OA 
BRANCH   3   4
HETATM    4  C   UNL     1      -9.032   4.193  71.714  1.00  0.00    -0.119 C  
HETATM    5  O   UNL     1      -8.115   4.491  72.470  1.00  0.00    -0.098 OA 
BRANCH   4   6
HETATM    6  C   UNL     1      -8.952   4.267  70.235  1.00  0.00    -0.147 C  
HETATM    7  C   UNL     1      -8.117   3.489  69.506  1.00  0.00    -0.053 C  
HETATM    8  C   UNL     1      -7.182   2.414  70.015  1.00  0.00    -0.033 C  
HETATM    9  N   UNL     1      -8.061   3.649  68.133  1.00  0.00    -0.082 NA 
HETATM   10  C   UNL     1      -8.710   4.635  67.419  1.00  0.00    -0.104 C  
HETATM   11  C   UNL     1      -8.361   4.678  65.950  1.00  0.00    -0.115 C  
HETATM   12  C   UNL     1      -9.583   5.467  68.041  1.00  0.00    -0.153 C  
HETATM   13  C   UNL     1      -9.851   5.328  69.549  1.00  0.00    -0.270 C  
BRANCH  12  14
HETATM   14  C   UNL     1     -10.270   6.523  67.250  1.00  0.00    -0.188 C  
HETATM   15  O   UNL     1     -11.399   6.415  66.795  1.00  0.00    -0.257 OA 
BRANCH  14  16
HETATM   16  O   UNL     1      -9.489   7.622  67.107  1.00  0.00    -0.141 OA 
HETATM   17  C   UNL     1     -10.077   8.654  66.302  1.00  0.00    -0.145 C  
ENDBRANCH  14  16
ENDBRANCH  12  14
BRANCH  13  18
HETATM   18  C   UNL     1      -9.855   6.666  70.320  1.00  0.00    -0.188 A  
HETATM   19  C   UNL     1      -8.626   7.362  70.415  1.00  0.00    -0.144 A  
HETATM   20  C   UNL     1      -8.548   8.639  70.971  1.00  0.00    -0.211 A  
HETATM   21  C   UNL     1     -11.009   7.284  70.844  1.00  0.00    -0.253 A  
HETATM   22  C   UNL     1     -10.923   8.577  71.398  1.00  0.00    -0.264 A  
HETATM   23 CL   UNL     1     -12.546   6.481  70.784  1.00  0.00    -0.070 Cl 
HETATM   24 CL   UNL     1     -12.307   9.431  71.996  1.00  0.00    -0.433 Cl 
HETATM   25  C   UNL     1      -9.698   9.251  71.451  1.00  0.00    -0.269 A  
ENDBRANCH  13  18
ENDBRANCH   4   6
ENDBRANCH   3   4
ENDBRANCH   2   3
TORSDOF 6
ENDMDL
MODEL      158
REMARK 921   NORMALIZED FREE ENERGY PREDICTED BY IDOCK:   -3.06 KCAL/MOL
REMARK 922        TOTAL FREE ENERGY PREDICTED BY IDOCK:   -5.36 KCAL/MOL
REMARK 923 INTER-LIGAND FREE ENERGY PREDICTED BY IDOCK:   -4.26 KCAL/MOL
REMARK 924 INTRA-LIGAND FREE ENERGY PREDICTED BY IDOCK:   -1.10 KCAL/MOL
REMARK 927      BINDING AFFINITY PREDICTED BY RF-SCORE:    0.00 PKD
ROOT
HETATM    1  C   UNL     1     -10.645  10.089  67.244  1.00  0.00    -0.319 C  
HETATM    2  C   UNL     1      -9.209   9.626  67.360  1.00  0.00    -0.130 C  
ENDROOT
BRANCH   2   3
HETATM    3  O   UNL     1      -9.245   8.419  68.124  1.00  0.00    -0.138 OA 
BRANCH   3   4
HETATM    4  C   UNL     1      -8.079   7.815  68.441  1.00  0.00    -0.124 C  
HETATM    5  O   UNL     1      -7.051   8.373  68.805  1.00  0.00    -0.065 OA 
BRANCH   4   6
HETATM    6  C   UNL     1      -8.282   6.345  68.453  1.00  0.00    -0.113 C  
HETATM    7  C   UNL     1      -8.477   5.623  67.325  1.00  0.00    -0.106 C  
HETATM    8  C   UNL     1      -8.482   6.127  65.899  1.00  0.00    -0.145 C  
HETATM    9  N   UNL     1      -8.709   4.263  67.419  1.00  0.00    -0.104 NA 
HETATM   10  C   UNL     1      -8.882   3.563  68.596  1.00  0.00    -0.112 C  
HETATM   11  C   UNL     1      -9.272   2.115  68.413  1.00  0.00    -0.236 C  
HETATM   12  C   UNL     1      -8.698   4.180  69.791  1.00  0.00    -0.117 C  
HETATM   13  C   UNL     1      -8.307   5.667  69.846  1.00  0.00    -0.117 C  
BRANCH  12  14
HETATM   14  C   UNL     1      -8.890   3.405  71.046  1.00  0.00    -0.083 C  
HETATM   15  O   UNL     1      -7.990   2.836  71.646  1.00  0.00    -0.054 OA 
BRANCH  14  16
HETATM   16  O   UNL     1     -10.186   3.420  71.444  1.00  0.00    -0.035 OA 
HETATM   17  C   UNL     1     -10.360   3.612  72.855  1.00  0.00    -0.166 C  
ENDBRANCH  14  16
ENDBRANCH  12  14
BRANCH  13  18
HETATM   18  C   UNL     1      -9.104   6.494  70.878  1.00  0.00    -0.154 A  
HETATM   19  C   UNL     1      -8.381   7.042  71.966  1.00  0.00    -0.106 A  
HETATM   20  C   UNL     1      -8.977   7.913  72.878  1.00  0.00    -0.273 A  
HETATM   21  C   UNL     1     -10.470   6.821  70.759  1.00  0.00    -0.214 A  
HETATM   22  C   UNL     1     -11.063   7.708  71.681  1.00  0.00    -0.239 A  
HETATM   23 CL   UNL     1     -11.425   6.169  69.466  1.00  0.00    -0.451 Cl 
HETATM   24 CL   UNL     1     -12.716   8.214  71.559  1.00  0.00    -0.325 Cl 
HETATM   25  C   UNL     1     -10.314   8.256  72.728  1.00  0.00    -0.330 A  
ENDBRANCH  13  18
ENDBRANCH   4   6
ENDBRANCH   3   4
ENDBRANCH   2   3
TORSDOF 6
ENDMDL
MODEL      159
REMARK 921   NORMALIZED FREE ENERGY PREDICTED BY IDOCK:   -3.05 KCAL/MOL
REMARK 922        TOTAL FREE ENERGY PREDICTED BY IDOCK:   -5.35 KCAL/MOL
REMARK 923 INTER-LIGAND FREE ENERGY PREDICTED BY IDOCK:   -4.35 KCAL/MOL
REMARK 924 INTRA-LIGAND FREE ENERGY PREDICTED BY IDOCK:   -0.99 KCAL/MOL
REMARK 927      BINDING AFFINITY PREDICTED BY RF-SCORE:    0.00 PKD
ROOT
HETATM    1  C   UNL     1     -10.875   6.243  73.390  1.00  0.00    -0.238 C  
HETATM    2  C   UNL     1      -9.837   7.202  73.930  1.00  0.00    -0.304 C  
ENDROOT
BRANCH   2   3
HETATM    3  O   UNL     1      -9.645   8.188  72.912  1.00  0.00    -0.257 OA 
BRANCH   3   4
HETATM    4  C   UNL     1      -8.460   8.230  72.264  1.00  0.00    -0.187 C  
HETATM    5  O   UNL     1      -7.495   8.921  72.566  1.00  0.00    -0.349 OA 
BRANCH   4   6
HETATM    6  C   UNL     1      -8.437   7.172  71.225  1.00  0.00    -0.113 C  
HETATM    7  C   UNL     1      -7.648   6.075  71.314  1.00  0.00    -0.094 C  
HETATM    8  C   UNL     1      -6.717   5.700  72.445  1.00  0.00    -0.071 C  
HETATM    9  N   UNL     1      -7.643   5.154  70.281  1.00  0.00    -0.069 NA 
HETATM   10  C   UNL     1      -8.299   5.305  69.076  1.00  0.00    -0.095 C  
HETATM   11  C   UNL     1      -8.008   4.222  68.064  1.00  0.00    -0.086 C  
HETATM   12  C   UNL     1      -9.130   6.359  68.878  1.00  0.00    -0.129 C  
HETATM   13  C   UNL     1      -9.340   7.404  69.987  1.00  0.00    -0.151 C  
BRANCH  12  14
HETATM   14  C   UNL     1      -9.825   6.500  67.570  1.00  0.00    -0.124 C  
HETATM   15  O   UNL     1     -10.966   6.118  67.354  1.00  0.00    -0.321 OA 
BRANCH  14  16
HETATM   16  O   UNL     1      -9.037   7.115  66.653  1.00  0.00    -0.138 OA 
HETATM   17  C   UNL     1      -8.797   6.333  65.474  1.00  0.00    -0.029 C  
ENDBRANCH  14  16
ENDBRANCH  12  14
BRANCH  13  18
HETATM   18  C   UNL     1      -9.287   8.868  69.499  1.00  0.00    -0.155 A  
HETATM   19  C   UNL     1      -8.132   9.271  68.786  1.00  0.00    -0.104 A  
HETATM   20  C   UNL     1      -8.041  10.527  68.187  1.00  0.00    -0.113 A  
HETATM   21  C   UNL     1     -10.342   9.795  69.629  1.00  0.00    -0.238 A  
HETATM   22  C   UNL     1     -10.244  11.060  69.015  1.00  0.00    -0.200 A  
HETATM   23 CL   UNL     1     -11.778   9.379  70.509  1.00  0.00    -0.283 Cl 
HETATM   24 CL   UNL     1     -11.527  12.224  69.068  1.00  0.00    -0.324 Cl 
HETATM   25  C   UNL     1      -9.102  11.416  68.291  1.00  0.00    -0.179 A  
ENDBRANCH  13  18
ENDBRANCH   4   6
ENDBRANCH   3   4
ENDBRANCH   2   3
TORSDOF 6
ENDMDL
MODEL      160
REMARK 921   NORMALIZED FREE ENERGY PREDICTED BY IDOCK:   -3.02 KCAL/MOL
REMARK 922        TOTAL FREE ENERGY PREDICTED BY IDOCK:   -5.31 KCAL/MOL
REMARK 923 INTER-LIGAND FREE ENERGY PREDICTED BY IDOCK:   -4.06 KCAL/MOL
REMARK 924 INTRA-LIGAND FREE ENERGY PREDICTED BY IDOCK:   -1.25 KCAL/MOL
REMARK 927      BINDING AFFINITY PREDICTED BY RF-SCORE:    0.00 PKD
ROOT
HETATM    1  C   UNL     1     -10.901   2.029  73.706  1.00  0.00    -0.260 C  
HETATM    2  C   UNL     1      -9.761   1.908  72.719  1.00  0.00    -0.090 C  
ENDROOT
BRANCH   2   3
HETATM    3  O   UNL     1      -9.996   2.906  71.722  1.00  0.00    -0.166 OA 
BRANCH   3   4
HETATM    4  C   UNL     1      -9.019   3.799  71.454  1.00  0.00    -0.107 C  
HETATM    5  O   UNL     1      -8.424   4.488  72.273  1.00  0.00    -0.107 OA 
BRANCH   4   6
HETATM    6  C   UNL     1      -8.645   3.692  70.022  1.00  0.00    -0.105 C  
HETATM    7  C   UNL     1      -7.562   3.000  69.597  1.00  0.00    -0.044 C  
HETATM    8  C   UNL     1      -6.592   2.200  70.439  1.00  0.00    -0.028 C  
HETATM    9  N   UNL     1      -7.247   2.986  68.251  1.00  0.00    -0.049 NA 
HETATM   10  C   UNL     1      -7.883   3.729  67.276  1.00  0.00    -0.079 C  
HETATM   11  C   UNL     1      -7.246   3.645  65.909  1.00  0.00    -0.071 C  
HETATM   12  C   UNL     1      -8.990   4.451  67.582  1.00  0.00    -0.134 C  
HETATM   13  C   UNL     1      -9.540   4.462  69.018  1.00  0.00    -0.244 C  
BRANCH  12  14
HETATM   14  C   UNL     1      -9.658   5.244  66.515  1.00  0.00    -0.156 C  
HETATM   15  O   UNL     1      -9.243   6.313  66.092  1.00  0.00    -0.162 OA 
BRANCH  14  16
HETATM   16  O   UNL     1     -10.776   4.624  66.063  1.00  0.00    -0.295 OA 
HETATM   17  C   UNL     1     -10.659   4.111  64.728  1.00  0.00    -0.153 C  
ENDBRANCH  14  16
ENDBRANCH  12  14
BRANCH  13  18
HETATM   18  C   UNL     1      -9.922   5.863  69.541  1.00  0.00    -0.238 A  
HETATM   19  C   UNL     1     -11.274   6.071  69.909  1.00  0.00    -0.438 A  
HETATM   20  C   UNL     1     -11.695   7.253  70.517  1.00  0.00    -0.264 A  
HETATM   21  C   UNL     1      -9.006   6.911  69.770  1.00  0.00    -0.141 A  
HETATM   22  C   UNL     1      -9.439   8.100  70.391  1.00  0.00    -0.163 A  
HETATM   23 CL   UNL     1      -7.338   6.737  69.324  1.00  0.00    -0.090 Cl 
HETATM   24 CL   UNL     1      -8.359   9.401  70.770  1.00  0.00    -0.224 Cl 
HETATM   25  C   UNL     1     -10.775   8.262  70.769  1.00  0.00    -0.244 A  
ENDBRANCH  13  18
ENDBRANCH   4   6
ENDBRANCH   3   4
ENDBRANCH   2   3
TORSDOF 6
ENDMDL
MODEL      161
REMARK 921   NORMALIZED FREE ENERGY PREDICTED BY IDOCK:   -3.02 KCAL/MOL
REMARK 922        TOTAL FREE ENERGY PREDICTED BY IDOCK:   -5.30 KCAL/MOL
REMARK 923 INTER-LIGAND FREE ENERGY PREDICTED BY IDOCK:   -4.05 KCAL/MOL
REMARK 924 INTRA-LIGAND FREE ENERGY PREDICTED BY IDOCK:   -1.26 KCAL/MOL
REMARK 927      BINDING AFFINITY PREDICTED BY RF-SCORE:    0.00 PKD
ROOT
HETATM    1  C   UNL     1      -7.911   8.850  64.142  1.00  0.00    -0.148 C  
HETATM    2  C   UNL     1      -8.179   7.441  64.625  1.00  0.00    -0.040 C  
ENDROOT
BRANCH   2   3
HETATM    3  O   UNL     1      -8.305   7.530  66.047  1.00  0.00    -0.121 OA 
BRANCH   3   4
HETATM    4  C   UNL     1      -9.477   7.180  66.619  1.00  0.00    -0.170 C  
HETATM    5  O   UNL     1     -10.556   7.738  66.457  1.00  0.00    -0.179 OA 
BRANCH   4   6
HETATM    6  C   UNL     1      -9.300   5.897  67.342  1.00  0.00    -0.111 C  
HETATM    7  C   UNL     1      -9.770   4.719  66.869  1.00  0.00    -0.188 C  
HETATM    8  C   UNL     1     -10.490   4.473  65.562  1.00  0.00    -0.241 C  
HETATM    9  N   UNL     1      -9.611   3.570  67.623  1.00  0.00    -0.182 NA 
HETATM   10  C   UNL     1      -9.103   3.523  68.906  1.00  0.00    -0.145 C  
HETATM   11  C   UNL     1      -9.177   2.163  69.559  1.00  0.00    -0.179 C  
HETATM   12  C   UNL     1      -8.590   4.641  69.479  1.00  0.00    -0.103 C  
HETATM   13  C   UNL     1      -8.578   5.973  68.711  1.00  0.00    -0.112 C  
BRANCH  12  14
HETATM   14  C   UNL     1      -8.050   4.565  70.863  1.00  0.00    -0.077 C  
HETATM   15  O   UNL     1      -8.695   4.827  71.867  1.00  0.00    -0.120 OA 
BRANCH  14  16
HETATM   16  O   UNL     1      -6.756   4.158  70.868  1.00  0.00    -0.030 OA 
HETATM   17  C   UNL     1      -5.809   5.229  70.993  1.00  0.00    -0.020 C  
ENDBRANCH  14  16
ENDBRANCH  12  14
BRANCH  13  18
HETATM   18  C   UNL     1      -9.042   7.189  69.542  1.00  0.00    -0.146 A  
HETATM   19  C   UNL     1      -8.109   8.237  69.733  1.00  0.00    -0.118 A  
HETATM   20  C   UNL     1      -8.469   9.434  70.352  1.00  0.00    -0.247 A  
HETATM   21  C   UNL     1     -10.351   7.369  70.035  1.00  0.00    -0.219 A  
HETATM   22  C   UNL     1     -10.708   8.585  70.653  1.00  0.00    -0.220 A  
HETATM   23 CL   UNL     1     -11.541   6.120  69.858  1.00  0.00    -0.396 Cl 
HETATM   24 CL   UNL     1     -12.314   8.909  71.218  1.00  0.00    -0.346 Cl 
HETATM   25  C   UNL     1      -9.770   9.613  70.800  1.00  0.00    -0.192 A  
ENDBRANCH  13  18
ENDBRANCH   4   6
ENDBRANCH   3   4
ENDBRANCH   2   3
TORSDOF 6
ENDMDL
MODEL      162
REMARK 921   NORMALIZED FREE ENERGY PREDICTED BY IDOCK:   -3.02 KCAL/MOL
REMARK 922        TOTAL FREE ENERGY PREDICTED BY IDOCK:   -5.30 KCAL/MOL
REMARK 923 INTER-LIGAND FREE ENERGY PREDICTED BY IDOCK:   -4.70 KCAL/MOL
REMARK 924 INTRA-LIGAND FREE ENERGY PREDICTED BY IDOCK:   -0.59 KCAL/MOL
REMARK 927      BINDING AFFINITY PREDICTED BY RF-SCORE:    0.00 PKD
ROOT
HETATM    1  C   UNL     1     -11.912  13.019  63.304  1.00  0.00    -0.493 C  
HETATM    2  C   UNL     1     -10.570  12.406  63.641  1.00  0.00    -0.445 C  
ENDROOT
BRANCH   2   3
HETATM    3  O   UNL     1     -10.851  11.092  64.131  1.00  0.00    -0.370 OA 
BRANCH   3   4
HETATM    4  C   UNL     1     -10.734  10.855  65.456  1.00  0.00    -0.112 C  
HETATM    5  O   UNL     1     -11.614  10.431  66.195  1.00  0.00     0.579 OA 
BRANCH   4   6
HETATM    6  C   UNL     1      -9.314  11.016  65.853  1.00  0.00    -0.229 C  
HETATM    7  C   UNL     1      -8.375  10.069  65.618  1.00  0.00    -0.145 C  
HETATM    8  C   UNL     1      -8.558   8.749  64.902  1.00  0.00    -0.177 C  
HETATM    9  N   UNL     1      -7.080  10.268  66.063  1.00  0.00    -0.121 NA 
HETATM   10  C   UNL     1      -6.661  11.321  66.850  1.00  0.00    -0.135 C  
HETATM   11  C   UNL     1      -5.229  11.221  67.320  1.00  0.00    -0.054 C  
HETATM   12  C   UNL     1      -7.512  12.338  67.141  1.00  0.00    -0.113 C  
HETATM   13  C   UNL     1      -8.954  12.322  66.606  1.00  0.00    -0.189 C  
BRANCH  12  14
HETATM   14  C   UNL     1      -7.038  13.461  67.992  1.00  0.00    -0.125 C  
HETATM   15  O   UNL     1      -7.106  13.475  69.212  1.00  0.00    -0.069 OA 
BRANCH  14  16
HETATM   16  O   UNL     1      -6.510  14.462  67.244  1.00  0.00    -0.295 OA 
HETATM   17  C   UNL     1      -5.807  15.452  68.009  1.00  0.00    -0.139 C  
ENDBRANCH  14  16
ENDBRANCH  12  14
BRANCH  13  18
HETATM   18  C   UNL     1     -10.024  12.698  67.655  1.00  0.00    -0.216 A  
HETATM   19  C   UNL     1     -10.384  11.704  68.597  1.00  0.00    -0.229 A  
HETATM   20  C   UNL     1     -11.238  11.981  69.664  1.00  0.00    -0.168 A  
HETATM   21  C   UNL     1     -10.589  13.982  67.798  1.00  0.00    -0.242 A  
HETATM   22  C   UNL     1     -11.446  14.255  68.883  1.00  0.00    -0.286 A  
HETATM   23 CL   UNL     1     -10.213  15.243  66.668  1.00  0.00    -0.265 Cl 
HETATM   24 CL   UNL     1     -12.121  15.826  69.167  1.00  0.00    -0.310 Cl 
HETATM   25  C   UNL     1     -11.758  13.259  69.814  1.00  0.00    -0.354 A  
ENDBRANCH  13  18
ENDBRANCH   4   6
ENDBRANCH   3   4
ENDBRANCH   2   3
TORSDOF 6
ENDMDL
MODEL      163
REMARK 921   NORMALIZED FREE ENERGY PREDICTED BY IDOCK:   -3.01 KCAL/MOL
REMARK 922        TOTAL FREE ENERGY PREDICTED BY IDOCK:   -5.29 KCAL/MOL
REMARK 923 INTER-LIGAND FREE ENERGY PREDICTED BY IDOCK:   -4.12 KCAL/MOL
REMARK 924 INTRA-LIGAND FREE ENERGY PREDICTED BY IDOCK:   -1.17 KCAL/MOL
REMARK 927      BINDING AFFINITY PREDICTED BY RF-SCORE:    0.00 PKD
ROOT
HETATM    1  C   UNL     1      -7.285   8.596  63.745  1.00  0.00    -0.097 C  
HETATM    2  C   UNL     1      -7.896   7.440  64.505  1.00  0.00    -0.129 C  
ENDROOT
BRANCH   2   3
HETATM    3  O   UNL     1      -8.003   7.875  65.863  1.00  0.00    -0.095 OA 
BRANCH   3   4
HETATM    4  C   UNL     1      -9.213   8.248  66.333  1.00  0.00    -0.195 C  
HETATM    5  O   UNL     1     -10.065   8.876  65.717  1.00  0.00    -0.112 OA 
BRANCH   4   6
HETATM    6  C   UNL     1      -9.431   7.624  67.661  1.00  0.00    -0.165 C  
HETATM    7  C   UNL     1     -10.135   6.480  67.826  1.00  0.00    -0.148 C  
HETATM    8  C   UNL     1     -10.768   5.625  66.750  1.00  0.00    -0.358 C  
HETATM    9  N   UNL     1     -10.340   5.984  69.101  1.00  0.00    -0.205 NA 
HETATM   10  C   UNL     1      -9.984   6.623  70.271  1.00  0.00    -0.174 C  
HETATM   11  C   UNL     1     -10.457   5.935  71.530  1.00  0.00    -0.287 C  
HETATM   12  C   UNL     1      -9.263   7.772  70.230  1.00  0.00    -0.156 C  
HETATM   13  C   UNL     1      -8.846   8.380  68.880  1.00  0.00    -0.143 C  
BRANCH  12  14
HETATM   14  C   UNL     1      -8.892   8.442  71.505  1.00  0.00    -0.185 C  
HETATM   15  O   UNL     1      -9.636   9.180  72.134  1.00  0.00    -0.276 OA 
BRANCH  14  16
HETATM   16  O   UNL     1      -7.630   8.122  71.884  1.00  0.00    -0.081 OA 
HETATM   17  C   UNL     1      -7.522   7.706  73.254  1.00  0.00    -0.103 C  
ENDBRANCH  14  16
ENDBRANCH  12  14
BRANCH  13  18
HETATM   18  C   UNL     1      -9.067   9.905  68.776  1.00  0.00    -0.147 A  
HETATM   19  C   UNL     1      -7.946  10.700  68.434  1.00  0.00    -0.120 A  
HETATM   20  C   UNL     1      -8.066  12.067  68.183  1.00  0.00    -0.160 A  
HETATM   21  C   UNL     1     -10.319  10.543  68.900  1.00  0.00    -0.208 A  
HETATM   22  C   UNL     1     -10.432  11.924  68.638  1.00  0.00    -0.212 A  
HETATM   23 CL   UNL     1     -11.731   9.638  69.339  1.00  0.00     0.151 Cl 
HETATM   24 CL   UNL     1     -11.946  12.763  68.698  1.00  0.00    -0.323 Cl 
HETATM   25  C   UNL     1      -9.310  12.675  68.272  1.00  0.00    -0.195 A  
ENDBRANCH  13  18
ENDBRANCH   4   6
ENDBRANCH   3   4
ENDBRANCH   2   3
TORSDOF 6
ENDMDL
MODEL      164
REMARK 921   NORMALIZED FREE ENERGY PREDICTED BY IDOCK:   -2.99 KCAL/MOL
REMARK 922        TOTAL FREE ENERGY PREDICTED BY IDOCK:   -5.25 KCAL/MOL
REMARK 923 INTER-LIGAND FREE ENERGY PREDICTED BY IDOCK:   -4.10 KCAL/MOL
REMARK 924 INTRA-LIGAND FREE ENERGY PREDICTED BY IDOCK:   -1.15 KCAL/MOL
REMARK 927      BINDING AFFINITY PREDICTED BY RF-SCORE:    0.00 PKD
ROOT
HETATM    1  C   UNL     1     -10.024   8.995  72.170  1.00  0.00    -0.111 C  
HETATM    2  C   UNL     1     -11.156   9.579  71.353  1.00  0.00    -0.368 C  
ENDROOT
BRANCH   2   3
HETATM    3  O   UNL     1     -10.540  10.416  70.370  1.00  0.00    -0.233 OA 
BRANCH   3   4
HETATM    4  C   UNL     1     -11.306  10.934  69.386  1.00  0.00    -0.280 C  
HETATM    5  O   UNL     1     -12.223  10.364  68.807  1.00  0.00    -0.173 OA 
BRANCH   4   6
HETATM    6  C   UNL     1     -10.985  12.374  69.230  1.00  0.00    -0.145 C  
HETATM    7  C   UNL     1     -11.816  13.359  69.647  1.00  0.00    -0.331 C  
HETATM    8  C   UNL     1     -13.141  13.206  70.358  1.00  0.00     0.356 C  
HETATM    9  N   UNL     1     -11.472  14.680  69.422  1.00  0.00    -0.279 NA 
HETATM   10  C   UNL     1     -10.384  15.107  68.687  1.00  0.00    -0.232 C  
HETATM   11  C   UNL     1     -10.323  16.600  68.469  1.00  0.00    -0.303 C  
HETATM   12  C   UNL     1      -9.475  14.209  68.229  1.00  0.00    -0.211 C  
HETATM   13  C   UNL     1      -9.653  12.708  68.512  1.00  0.00    -0.112 C  
BRANCH  12  14
HETATM   14  C   UNL     1      -8.312  14.693  67.438  1.00  0.00    -0.206 C  
HETATM   15  O   UNL     1      -8.334  14.887  66.232  1.00  0.00     0.095 OA 
BRANCH  14  16
HETATM   16  O   UNL     1      -7.229  14.903  68.228  1.00  0.00    -0.102 OA 
HETATM   17  C   UNL     1      -6.025  14.298  67.736  1.00  0.00    -0.098 C  
ENDBRANCH  14  16
ENDBRANCH  12  14
BRANCH  13  18
HETATM   18  C   UNL     1      -9.412  11.798  67.288  1.00  0.00    -0.173 A  
HETATM   19  C   UNL     1     -10.108  12.118  66.097  1.00  0.00    -0.251 A  
HETATM   20  C   UNL     1      -9.862  11.444  64.901  1.00  0.00    -0.301 A  
HETATM   21  C   UNL     1      -8.481  10.740  67.247  1.00  0.00    -0.124 A  
HETATM   22  C   UNL     1      -8.233  10.069  66.032  1.00  0.00    -0.126 A  
HETATM   23 CL   UNL     1      -7.608  10.277  68.673  1.00  0.00    -0.085 Cl 
HETATM   24 CL   UNL     1      -7.052   8.809  65.886  1.00  0.00    -0.082 Cl 
HETATM   25  C   UNL     1      -8.916  10.429  64.866  1.00  0.00    -0.225 A  
ENDBRANCH  13  18
ENDBRANCH   4   6
ENDBRANCH   3   4
ENDBRANCH   2   3
TORSDOF 6
ENDMDL
MODEL      165
REMARK 921   NORMALIZED FREE ENERGY PREDICTED BY IDOCK:   -2.94 KCAL/MOL
REMARK 922        TOTAL FREE ENERGY PREDICTED BY IDOCK:   -5.20 KCAL/MOL
REMARK 923 INTER-LIGAND FREE ENERGY PREDICTED BY IDOCK:   -3.97 KCAL/MOL
REMARK 924 INTRA-LIGAND FREE ENERGY PREDICTED BY IDOCK:   -1.23 KCAL/MOL
REMARK 927      BINDING AFFINITY PREDICTED BY RF-SCORE:    0.00 PKD
ROOT
HETATM    1  C   UNL     1     -10.769   5.471  66.459  1.00  0.00    -0.309 C  
HETATM    2  C   UNL     1      -9.800   4.325  66.653  1.00  0.00    -0.214 C  
ENDROOT
BRANCH   2   3
HETATM    3  O   UNL     1      -9.660   4.164  68.066  1.00  0.00    -0.166 OA 
BRANCH   3   4
HETATM    4  C   UNL     1      -8.470   4.452  68.638  1.00  0.00    -0.084 C  
HETATM    5  O   UNL     1      -7.516   3.691  68.746  1.00  0.00    -0.053 OA 
BRANCH   4   6
HETATM    6  C   UNL     1      -8.426   5.899  68.963  1.00  0.00    -0.105 C  
HETATM    7  C   UNL     1      -7.662   6.781  68.276  1.00  0.00    -0.106 C  
HETATM    8  C   UNL     1      -6.784   6.499  67.078  1.00  0.00    -0.060 C  
HETATM    9  N   UNL     1      -7.634   8.107  68.669  1.00  0.00    -0.101 NA 
HETATM   10  C   UNL     1      -8.238   8.617  69.800  1.00  0.00    -0.121 C  
HETATM   11  C   UNL     1      -7.927  10.069  70.076  1.00  0.00    -0.166 C  
HETATM   12  C   UNL     1      -9.040   7.828  70.560  1.00  0.00    -0.154 C  
HETATM   13  C   UNL     1      -9.275   6.358  70.176  1.00  0.00    -0.160 C  
BRANCH  12  14
HETATM   14  C   UNL     1      -9.680   8.400  71.775  1.00  0.00    -0.237 C  
HETATM   15  O   UNL     1      -9.070   8.732  72.780  1.00  0.00    -0.338 OA 
BRANCH  14  16
HETATM   16  O   UNL     1     -11.022   8.518  71.620  1.00  0.00    -0.252 OA 
HETATM   17  C   UNL     1     -11.437   9.778  71.073  1.00  0.00    -0.383 C  
ENDBRANCH  14  16
ENDBRANCH  12  14
BRANCH  13  18
HETATM   18  C   UNL     1      -9.174   5.369  71.358  1.00  0.00    -0.171 A  
HETATM   19  C   UNL     1     -10.342   4.643  71.696  1.00  0.00    -0.189 A  
HETATM   20  C   UNL     1     -10.324   3.631  72.656  1.00  0.00    -0.224 A  
HETATM   21  C   UNL     1      -7.984   5.072  72.055  1.00  0.00    -0.111 A  
HETATM   22  C   UNL     1      -7.974   4.043  73.019  1.00  0.00    -0.085 A  
HETATM   23 CL   UNL     1      -6.521   5.937  71.711  1.00  0.00    -0.051 Cl 
HETATM   24 CL   UNL     1      -6.536   3.571  73.863  1.00  0.00    -0.028 Cl 
HETATM   25  C   UNL     1      -9.137   3.324  73.308  1.00  0.00    -0.100 A  
ENDBRANCH  13  18
ENDBRANCH   4   6
ENDBRANCH   3   4
ENDBRANCH   2   3
TORSDOF 6
ENDMDL
MODEL      166
REMARK 921   NORMALIZED FREE ENERGY PREDICTED BY IDOCK:   -2.94 KCAL/MOL
REMARK 922        TOTAL FREE ENERGY PREDICTED BY IDOCK:   -5.19 KCAL/MOL
REMARK 923 INTER-LIGAND FREE ENERGY PREDICTED BY IDOCK:   -3.99 KCAL/MOL
REMARK 924 INTRA-LIGAND FREE ENERGY PREDICTED BY IDOCK:   -1.20 KCAL/MOL
REMARK 927      BINDING AFFINITY PREDICTED BY RF-SCORE:    0.00 PKD
ROOT
HETATM    1  C   UNL     1     -10.660   4.051  64.650  1.00  0.00    -0.188 C  
HETATM    2  C   UNL     1      -9.669   4.454  65.720  1.00  0.00    -0.209 C  
ENDROOT
BRANCH   2   3
HETATM    3  O   UNL     1      -9.929   5.833  65.996  1.00  0.00    -0.075 OA 
BRANCH   3   4
HETATM    4  C   UNL     1      -8.886   6.655  66.242  1.00  0.00    -0.147 C  
HETATM    5  O   UNL     1      -7.731   6.490  65.868  1.00  0.00    -0.085 OA 
BRANCH   4   6
HETATM    6  C   UNL     1      -9.385   7.892  66.891  1.00  0.00    -0.209 C  
HETATM    7  C   UNL     1      -9.376   9.097  66.274  1.00  0.00    -0.216 C  
HETATM    8  C   UNL     1      -8.924   9.406  64.864  1.00  0.00    -0.256 C  
HETATM    9  N   UNL     1      -9.812  10.217  66.960  1.00  0.00    -0.183 NA 
HETATM   10  C   UNL     1     -10.160  10.248  68.295  1.00  0.00    -0.154 C  
HETATM   11  C   UNL     1     -10.456  11.628  68.834  1.00  0.00    -0.201 C  
HETATM   12  C   UNL     1     -10.219   9.097  69.013  1.00  0.00    -0.219 C  
HETATM   13  C   UNL     1      -9.886   7.749  68.350  1.00  0.00    -0.180 C  
BRANCH  12  14
HETATM   14  C   UNL     1     -10.596   9.156  70.450  1.00  0.00    -0.230 C  
HETATM   15  O   UNL     1     -11.743   9.063  70.863  1.00  0.00    -0.281 OA 
BRANCH  14  16
HETATM   16  O   UNL     1      -9.507   9.315  71.243  1.00  0.00    -0.262 OA 
HETATM   17  C   UNL     1      -9.469   8.421  72.365  1.00  0.00    -0.295 C  
ENDBRANCH  14  16
ENDBRANCH  12  14
BRANCH  13  18
HETATM   18  C   UNL     1      -8.965   6.839  69.191  1.00  0.00    -0.132 A  
HETATM   19  C   UNL     1      -7.614   7.240  69.333  1.00  0.00    -0.097 A  
HETATM   20  C   UNL     1      -6.734   6.563  70.178  1.00  0.00    -0.049 A  
HETATM   21  C   UNL     1      -9.396   5.700  69.902  1.00  0.00    -0.147 A  
HETATM   22  C   UNL     1      -8.502   5.027  70.759  1.00  0.00    -0.115 A  
HETATM   23 CL   UNL     1     -11.031   5.137  69.758  1.00  0.00     0.157 Cl 
HETATM   24 CL   UNL     1      -8.977   3.665  71.719  1.00  0.00    -0.142 Cl 
HETATM   25  C   UNL     1      -7.182   5.465  70.900  1.00  0.00    -0.073 A  
ENDBRANCH  13  18
ENDBRANCH   4   6
ENDBRANCH   3   4
ENDBRANCH   2   3
TORSDOF 6
ENDMDL
MODEL      167
REMARK 921   NORMALIZED FREE ENERGY PREDICTED BY IDOCK:   -2.93 KCAL/MOL
REMARK 922        TOTAL FREE ENERGY PREDICTED BY IDOCK:   -5.19 KCAL/MOL
REMARK 923 INTER-LIGAND FREE ENERGY PREDICTED BY IDOCK:   -4.22 KCAL/MOL
REMARK 924 INTRA-LIGAND FREE ENERGY PREDICTED BY IDOCK:   -0.96 KCAL/MOL
REMARK 927      BINDING AFFINITY PREDICTED BY RF-SCORE:    0.00 PKD
ROOT
HETATM    1  C   UNL     1     -10.628  17.257  69.454  1.00  0.00    -0.079 C  
HETATM    2  C   UNL     1     -11.346  16.785  70.699  1.00  0.00     0.333 C  
ENDROOT
BRANCH   2   3
HETATM    3  O   UNL     1     -11.399  15.359  70.605  1.00  0.00    -0.278 OA 
BRANCH   3   4
HETATM    4  C   UNL     1     -12.577  14.771  70.304  1.00  0.00    -0.315 C  
HETATM    5  O   UNL     1     -13.609  15.344  69.977  1.00  0.00     0.236 OA 
BRANCH   4   6
HETATM    6  C   UNL     1     -12.386  13.300  70.253  1.00  0.00    -0.334 C  
HETATM    7  C   UNL     1     -12.585  12.498  71.325  1.00  0.00    -0.231 C  
HETATM    8  C   UNL     1     -13.061  12.904  72.702  1.00  0.00     0.029 C  
HETATM    9  N   UNL     1     -12.338  11.142  71.216  1.00  0.00    -0.331 NA 
HETATM   10  C   UNL     1     -11.780  10.519  70.118  1.00  0.00    -0.326 C  
HETATM   11  C   UNL     1     -11.479   9.052  70.316  1.00  0.00    -0.147 C  
HETATM   12  C   UNL     1     -11.549  11.220  68.980  1.00  0.00    -0.386 C  
HETATM   13  C   UNL     1     -11.894  12.717  68.904  1.00  0.00    -0.345 C  
BRANCH  12  14
HETATM   14  C   UNL     1     -10.946  10.527  67.810  1.00  0.00    -0.313 C  
HETATM   15  O   UNL     1     -11.535  10.311  66.761  1.00  0.00     0.054 OA 
BRANCH  14  16
HETATM   16  O   UNL     1      -9.658  10.176  68.051  1.00  0.00    -0.144 OA 
HETATM   17  C   UNL     1      -9.119   9.250  67.096  1.00  0.00    -0.130 C  
ENDBRANCH  14  16
ENDBRANCH  12  14
BRANCH  13  18
HETATM   18  C   UNL     1     -10.793  13.590  68.264  1.00  0.00    -0.277 A  
HETATM   19  C   UNL     1      -9.558  13.682  68.950  1.00  0.00     0.090 A  
HETATM   20  C   UNL     1      -8.457  14.333  68.394  1.00  0.00    -0.166 A  
HETATM   21  C   UNL     1     -10.899  14.218  67.005  1.00  0.00    -0.297 A  
HETATM   22  C   UNL     1      -9.779  14.868  66.448  1.00  0.00    -0.285 A  
HETATM   23 CL   UNL     1     -12.389  14.168  66.117  1.00  0.00    -0.481 Cl 
HETATM   24 CL   UNL     1      -9.811  15.598  64.877  1.00  0.00     0.146 Cl 
HETATM   25  C   UNL     1      -8.564  14.914  67.139  1.00  0.00    -0.248 A  
ENDBRANCH  13  18
ENDBRANCH   4   6
ENDBRANCH   3   4
ENDBRANCH   2   3
TORSDOF 6
ENDMDL
MODEL      168
REMARK 921   NORMALIZED FREE ENERGY PREDICTED BY IDOCK:   -2.92 KCAL/MOL
REMARK 922        TOTAL FREE ENERGY PREDICTED BY IDOCK:   -5.17 KCAL/MOL
REMARK 923 INTER-LIGAND FREE ENERGY PREDICTED BY IDOCK:   -4.48 KCAL/MOL
REMARK 924 INTRA-LIGAND FREE ENERGY PREDICTED BY IDOCK:   -0.69 KCAL/MOL
REMARK 927      BINDING AFFINITY PREDICTED BY RF-SCORE:    0.00 PKD
ROOT
HETATM    1  C   UNL     1     -10.506  17.472  67.196  1.00  0.00    -0.312 C  
HETATM    2  C   UNL     1      -9.449  16.808  68.053  1.00  0.00    -0.233 C  
ENDROOT
BRANCH   2   3
HETATM    3  O   UNL     1      -9.678  15.401  67.938  1.00  0.00    -0.207 OA 
BRANCH   3   4
HETATM    4  C   UNL     1      -8.818  14.661  67.204  1.00  0.00    -0.221 C  
HETATM    5  O   UNL     1      -8.370  14.954  66.102  1.00  0.00     0.250 OA 
BRANCH   4   6
HETATM    6  C   UNL     1      -8.354  13.510  68.016  1.00  0.00    -0.168 C  
HETATM    7  C   UNL     1      -7.214  13.542  68.747  1.00  0.00    -0.096 C  
HETATM    8  C   UNL     1      -6.260  14.703  68.914  1.00  0.00    -0.087 C  
HETATM    9  N   UNL     1      -6.818  12.412  69.439  1.00  0.00    -0.035 NA 
HETATM   10  C   UNL     1      -7.429  11.176  69.365  1.00  0.00    -0.026 C  
HETATM   11  C   UNL     1      -6.707  10.075  70.105  1.00  0.00    -0.128 C  
HETATM   12  C   UNL     1      -8.586  11.027  68.673  1.00  0.00    -0.157 C  
HETATM   13  C   UNL     1      -9.223  12.228  67.953  1.00  0.00    -0.190 C  
BRANCH  12  14
HETATM   14  C   UNL     1      -9.226   9.686  68.607  1.00  0.00    -0.136 C  
HETATM   15  O   UNL     1     -10.061   9.284  69.403  1.00  0.00    -0.183 OA 
BRANCH  14  16
HETATM   16  O   UNL     1      -8.773   8.972  67.547  1.00  0.00    -0.120 OA 
HETATM   17  C   UNL     1      -8.117   7.747  67.907  1.00  0.00    -0.126 C  
ENDBRANCH  14  16
ENDBRANCH  12  14
BRANCH  13  18
HETATM   18  C   UNL     1      -9.703  11.926  66.517  1.00  0.00    -0.226 A  
HETATM   19  C   UNL     1      -8.806  11.235  65.666  1.00  0.00    -0.124 A  
HETATM   20  C   UNL     1      -9.190  10.797  64.399  1.00  0.00    -0.250 A  
HETATM   21  C   UNL     1     -10.998  12.201  66.031  1.00  0.00    -0.293 A  
HETATM   22  C   UNL     1     -11.379  11.748  64.752  1.00  0.00    -0.249 A  
HETATM   23 CL   UNL     1     -12.143  13.064  67.008  1.00  0.00    -0.390 Cl 
HETATM   24 CL   UNL     1     -12.974  11.984  64.115  1.00  0.00    -0.349 Cl 
HETATM   25  C   UNL     1     -10.479  11.042  63.947  1.00  0.00    -0.422 A  
ENDBRANCH  13  18
ENDBRANCH   4   6
ENDBRANCH   3   4
ENDBRANCH   2   3
TORSDOF 6
ENDMDL
MODEL      169
REMARK 921   NORMALIZED FREE ENERGY PREDICTED BY IDOCK:   -2.91 KCAL/MOL
REMARK 922        TOTAL FREE ENERGY PREDICTED BY IDOCK:   -5.15 KCAL/MOL
REMARK 923 INTER-LIGAND FREE ENERGY PREDICTED BY IDOCK:   -3.96 KCAL/MOL
REMARK 924 INTRA-LIGAND FREE ENERGY PREDICTED BY IDOCK:   -1.19 KCAL/MOL
REMARK 927      BINDING AFFINITY PREDICTED BY RF-SCORE:    0.00 PKD
ROOT
HETATM    1  C   UNL     1      -9.545  10.773  65.748  1.00  0.00    -0.254 C  
HETATM    2  C   UNL     1      -8.171  10.828  66.381  1.00  0.00    -0.155 C  
ENDROOT
BRANCH   2   3
HETATM    3  O   UNL     1      -7.839  12.215  66.480  1.00  0.00     0.014 OA 
BRANCH   3   4
HETATM    4  C   UNL     1      -7.922  12.818  67.686  1.00  0.00    -0.165 C  
HETATM    5  O   UNL     1      -7.968  12.257  68.774  1.00  0.00    -0.087 OA 
BRANCH   4   6
HETATM    6  C   UNL     1      -7.766  14.283  67.508  1.00  0.00    -0.208 C  
HETATM    7  C   UNL     1      -6.603  14.931  67.752  1.00  0.00    -0.168 C  
HETATM    8  C   UNL     1      -5.286  14.327  68.186  1.00  0.00    -0.118 C  
HETATM    9  N   UNL     1      -6.547  16.306  67.611  1.00  0.00    -0.134 NA 
HETATM   10  C   UNL     1      -7.627  17.125  67.349  1.00  0.00    -0.167 C  
HETATM   11  C   UNL     1      -7.318  18.603  67.394  1.00  0.00    -0.224 C  
HETATM   12  C   UNL     1      -8.842  16.586  67.075  1.00  0.00    -0.217 C  
HETATM   13  C   UNL     1      -9.032  15.060  67.065  1.00  0.00    -0.255 C  
BRANCH  12  14
HETATM   14  C   UNL     1      -9.990  17.489  66.796  1.00  0.00    -0.313 C  
HETATM   15  O   UNL     1     -10.737  17.935  67.654  1.00  0.00    -0.399 OA 
BRANCH  14  16
HETATM   16  O   UNL     1     -10.096  17.763  65.472  1.00  0.00    -0.548 OA 
HETATM   17  C   UNL     1     -11.332  17.332  64.885  1.00  0.00     0.773 C  
ENDBRANCH  14  16
ENDBRANCH  12  14
BRANCH  13  18
HETATM   18  C   UNL     1     -10.297  14.573  67.805  1.00  0.00    -0.237 A  
HETATM   19  C   UNL     1     -11.156  13.691  67.106  1.00  0.00    -0.311 A  
HETATM   20  C   UNL     1     -12.251  13.089  67.727  1.00  0.00    -0.079 A  
HETATM   21  C   UNL     1     -10.601  14.866  69.151  1.00  0.00    -0.246 A  
HETATM   22  C   UNL     1     -11.704  14.248  69.772  1.00  0.00    -0.309 A  
HETATM   23 CL   UNL     1      -9.606  15.956  70.062  1.00  0.00     0.051 Cl 
HETATM   24 CL   UNL     1     -12.098  14.501  71.441  1.00  0.00    -0.412 Cl 
HETATM   25  C   UNL     1     -12.517  13.357  69.062  1.00  0.00     0.208 A  
ENDBRANCH  13  18
ENDBRANCH   4   6
ENDBRANCH   3   4
ENDBRANCH   2   3
TORSDOF 6
ENDMDL
MODEL      170
REMARK 921   NORMALIZED FREE ENERGY PREDICTED BY IDOCK:   -2.90 KCAL/MOL
REMARK 922        TOTAL FREE ENERGY PREDICTED BY IDOCK:   -5.13 KCAL/MOL
REMARK 923 INTER-LIGAND FREE ENERGY PREDICTED BY IDOCK:   -5.08 KCAL/MOL
REMARK 924 INTRA-LIGAND FREE ENERGY PREDICTED BY IDOCK:   -0.05 KCAL/MOL
REMARK 927      BINDING AFFINITY PREDICTED BY RF-SCORE:    0.00 PKD
ROOT
HETATM    1  C   UNL     1      -8.245  17.524  66.225  1.00  0.00    -0.275 C  
HETATM    2  C   UNL     1      -9.627  17.114  65.765  1.00  0.00     0.032 C  
ENDROOT
BRANCH   2   3
HETATM    3  O   UNL     1      -9.509  15.759  65.324  1.00  0.00    -0.288 OA 
BRANCH   3   4
HETATM    4  C   UNL     1     -10.628  15.088  64.978  1.00  0.00    -0.412 C  
HETATM    5  O   UNL     1     -11.645  15.576  64.499  1.00  0.00    -0.399 OA 
BRANCH   4   6
HETATM    6  C   UNL     1     -10.378  13.631  65.099  1.00  0.00    -0.381 C  
HETATM    7  C   UNL     1     -11.097  12.705  64.421  1.00  0.00    -0.345 C  
HETATM    8  C   UNL     1     -12.207  12.951  63.424  1.00  0.00    -0.574 C  
HETATM    9  N   UNL     1     -10.839  11.361  64.623  1.00  0.00    -0.313 NA 
HETATM   10  C   UNL     1      -9.969  10.849  65.565  1.00  0.00    -0.260 C  
HETATM   11  C   UNL     1      -9.986   9.343  65.679  1.00  0.00    -0.210 C  
HETATM   12  C   UNL     1      -9.185  11.682  66.295  1.00  0.00    -0.225 C  
HETATM   13  C   UNL     1      -9.265  13.204  66.090  1.00  0.00    -0.000 C  
BRANCH  12  14
HETATM   14  C   UNL     1      -8.257  11.107  67.304  1.00  0.00    -0.136 C  
HETATM   15  O   UNL     1      -8.547  10.922  68.477  1.00  0.00    -0.137 OA 
BRANCH  14  16
HETATM   16  O   UNL     1      -7.054  10.803  66.756  1.00  0.00    -0.111 OA 
HETATM   17  C   UNL     1      -6.515   9.548  67.195  1.00  0.00    -0.066 C  
ENDBRANCH  14  16
ENDBRANCH  12  14
BRANCH  13  18
HETATM   18  C   UNL     1      -9.316  14.019  67.401  1.00  0.00    -0.220 A  
HETATM   19  C   UNL     1     -10.571  14.127  68.049  1.00  0.00    -0.241 A  
HETATM   20  C   UNL     1     -10.700  14.724  69.302  1.00  0.00    -0.263 A  
HETATM   21  C   UNL     1      -8.190  14.576  68.042  1.00  0.00    -0.145 A  
HETATM   22  C   UNL     1      -8.328  15.172  69.312  1.00  0.00    -0.211 A  
HETATM   23 CL   UNL     1      -6.625  14.503  67.297  1.00  0.00     0.053 Cl 
HETATM   24 CL   UNL     1      -6.981  15.812  70.194  1.00  0.00     0.110 Cl 
HETATM   25  C   UNL     1      -9.577  15.235  69.939  1.00  0.00    -0.061 A  
ENDBRANCH  13  18
ENDBRANCH   4   6
ENDBRANCH   3   4
ENDBRANCH   2   3
TORSDOF 6
ENDMDL
MODEL      171
REMARK 921   NORMALIZED FREE ENERGY PREDICTED BY IDOCK:   -2.89 KCAL/MOL
REMARK 922        TOTAL FREE ENERGY PREDICTED BY IDOCK:   -5.12 KCAL/MOL
REMARK 923 INTER-LIGAND FREE ENERGY PREDICTED BY IDOCK:   -4.15 KCAL/MOL
REMARK 924 INTRA-LIGAND FREE ENERGY PREDICTED BY IDOCK:   -0.97 KCAL/MOL
REMARK 927      BINDING AFFINITY PREDICTED BY RF-SCORE:    0.00 PKD
ROOT
HETATM    1  C   UNL     1      -8.922   3.142  65.890  1.00  0.00    -0.145 C  
HETATM    2  C   UNL     1      -8.012   3.930  66.808  1.00  0.00    -0.096 C  
ENDROOT
BRANCH   2   3
HETATM    3  O   UNL     1      -8.548   3.771  68.124  1.00  0.00    -0.091 OA 
BRANCH   3   4
HETATM    4  C   UNL     1      -7.707   3.829  69.179  1.00  0.00    -0.052 C  
HETATM    5  O   UNL     1      -6.484   3.826  69.131  1.00  0.00    -0.032 OA 
BRANCH   4   6
HETATM    6  C   UNL     1      -8.494   4.078  70.413  1.00  0.00    -0.093 C  
HETATM    7  C   UNL     1      -9.298   3.142  70.970  1.00  0.00    -0.144 C  
HETATM    8  C   UNL     1      -9.513   1.719  70.507  1.00  0.00    -0.163 C  
HETATM    9  N   UNL     1     -10.040   3.464  72.093  1.00  0.00    -0.157 NA 
HETATM   10  C   UNL     1     -10.133   4.722  72.653  1.00  0.00    -0.176 C  
HETATM   11  C   UNL     1     -11.129   4.831  73.784  1.00  0.00    -0.321 C  
HETATM   12  C   UNL     1      -9.363   5.736  72.186  1.00  0.00    -0.157 C  
HETATM   13  C   UNL     1      -8.388   5.500  71.020  1.00  0.00    -0.121 C  
BRANCH  12  14
HETATM   14  C   UNL     1      -9.481   7.083  72.806  1.00  0.00    -0.146 C  
HETATM   15  O   UNL     1      -8.579   7.642  73.412  1.00  0.00    -0.148 OA 
BRANCH  14  16
HETATM   16  O   UNL     1     -10.712   7.615  72.604  1.00  0.00    -0.262 OA 
HETATM   17  C   UNL     1     -10.709   8.796  71.789  1.00  0.00    -0.343 C  
ENDBRANCH  14  16
ENDBRANCH  12  14
BRANCH  13  18
HETATM   18  C   UNL     1      -8.419   6.596  69.934  1.00  0.00    -0.139 A  
HETATM   19  C   UNL     1      -7.238   7.353  69.744  1.00  0.00    -0.081 A  
HETATM   20  C   UNL     1      -7.116   8.273  68.702  1.00  0.00    -0.072 A  
HETATM   21  C   UNL     1      -9.502   6.827  69.059  1.00  0.00    -0.133 A  
HETATM   22  C   UNL     1      -9.368   7.754  68.006  1.00  0.00    -0.141 A  
HETATM   23 CL   UNL     1     -10.989   5.954  69.246  1.00  0.00    -0.418 Cl 
HETATM   24 CL   UNL     1     -10.626   8.038  66.848  1.00  0.00    -0.394 Cl 
HETATM   25  C   UNL     1      -8.176   8.464  67.827  1.00  0.00    -0.126 A  
ENDBRANCH  13  18
ENDBRANCH   4   6
ENDBRANCH   3   4
ENDBRANCH   2   3
TORSDOF 6
ENDMDL
MODEL      172
REMARK 921   NORMALIZED FREE ENERGY PREDICTED BY IDOCK:   -2.87 KCAL/MOL
REMARK 922        TOTAL FREE ENERGY PREDICTED BY IDOCK:   -5.10 KCAL/MOL
REMARK 923 INTER-LIGAND FREE ENERGY PREDICTED BY IDOCK:   -3.93 KCAL/MOL
REMARK 924 INTRA-LIGAND FREE ENERGY PREDICTED BY IDOCK:   -1.18 KCAL/MOL
REMARK 927      BINDING AFFINITY PREDICTED BY RF-SCORE:    0.00 PKD
ROOT
HETATM    1  C   UNL     1      -7.041   6.156  65.747  1.00  0.00    -0.073 C  
HETATM    2  C   UNL     1      -6.393   7.226  66.599  1.00  0.00    -0.051 C  
ENDROOT
BRANCH   2   3
HETATM    3  O   UNL     1      -7.245   7.395  67.734  1.00  0.00    -0.085 OA 
BRANCH   3   4
HETATM    4  C   UNL     1      -6.986   8.401  68.597  1.00  0.00    -0.068 C  
HETATM    5  O   UNL     1      -5.888   8.700  69.051  1.00  0.00    -0.038 OA 
BRANCH   4   6
HETATM    6  C   UNL     1      -8.215   9.211  68.780  1.00  0.00    -0.109 C  
HETATM    7  C   UNL     1      -9.266   8.791  69.523  1.00  0.00    -0.149 C  
HETATM    8  C   UNL     1      -9.380   7.506  70.313  1.00  0.00    -0.161 C  
HETATM    9  N   UNL     1     -10.399   9.580  69.607  1.00  0.00    -0.207 NA 
HETATM   10  C   UNL     1     -10.618  10.739  68.891  1.00  0.00    -0.216 C  
HETATM   11  C   UNL     1     -12.000  11.326  69.056  1.00  0.00    -0.393 C  
HETATM   12  C   UNL     1      -9.631  11.264  68.122  1.00  0.00    -0.186 C  
HETATM   13  C   UNL     1      -8.263  10.566  68.030  1.00  0.00    -0.112 C  
BRANCH  12  14
HETATM   14  C   UNL     1      -9.891  12.514  67.359  1.00  0.00    -0.201 C  
HETATM   15  O   UNL     1     -10.538  12.564  66.324  1.00  0.00    -0.243 OA 
BRANCH  14  16
HETATM   16  O   UNL     1      -9.329  13.590  67.964  1.00  0.00    -0.199 OA 
HETATM   17  C   UNL     1     -10.281  14.536  68.471  1.00  0.00    -0.240 C  
ENDBRANCH  14  16
ENDBRANCH  12  14
BRANCH  13  18
HETATM   18  C   UNL     1      -7.703  10.453  66.595  1.00  0.00    -0.117 A  
HETATM   19  C   UNL     1      -6.391  10.936  66.372  1.00  0.00    -0.132 A  
HETATM   20  C   UNL     1      -5.743  10.760  65.149  1.00  0.00    -0.061 A  
HETATM   21  C   UNL     1      -8.367   9.818  65.525  1.00  0.00    -0.136 A  
HETATM   22  C   UNL     1      -7.702   9.638  64.295  1.00  0.00    -0.129 A  
HETATM   23 CL   UNL     1      -9.985   9.223  65.717  1.00  0.00    -0.320 Cl 
HETATM   24 CL   UNL     1      -8.424   8.805  62.958  1.00  0.00    -0.175 Cl 
HETATM   25  C   UNL     1      -6.394  10.100  64.116  1.00  0.00    -0.126 A  
ENDBRANCH  13  18
ENDBRANCH   4   6
ENDBRANCH   3   4
ENDBRANCH   2   3
TORSDOF 6
ENDMDL
MODEL      173
REMARK 921   NORMALIZED FREE ENERGY PREDICTED BY IDOCK:   -2.87 KCAL/MOL
REMARK 922        TOTAL FREE ENERGY PREDICTED BY IDOCK:   -5.10 KCAL/MOL
REMARK 923 INTER-LIGAND FREE ENERGY PREDICTED BY IDOCK:   -3.81 KCAL/MOL
REMARK 924 INTRA-LIGAND FREE ENERGY PREDICTED BY IDOCK:   -1.29 KCAL/MOL
REMARK 927      BINDING AFFINITY PREDICTED BY RF-SCORE:    0.00 PKD
ROOT
HETATM    1  C   UNL     1     -11.157   6.413  66.975  1.00  0.00    -0.405 C  
HETATM    2  C   UNL     1     -10.144   5.365  67.386  1.00  0.00    -0.185 C  
ENDROOT
BRANCH   2   3
HETATM    3  O   UNL     1      -8.865   5.893  67.025  1.00  0.00    -0.113 OA 
BRANCH   3   4
HETATM    4  C   UNL     1      -8.082   6.418  67.993  1.00  0.00    -0.116 C  
HETATM    5  O   UNL     1      -7.794   5.887  69.058  1.00  0.00    -0.092 OA 
BRANCH   4   6
HETATM    6  C   UNL     1      -7.472   7.675  67.493  1.00  0.00    -0.104 C  
HETATM    7  C   UNL     1      -6.254   7.713  66.902  1.00  0.00    -0.049 C  
HETATM    8  C   UNL     1      -5.339   6.547  66.603  1.00  0.00    -0.013 C  
HETATM    9  N   UNL     1      -5.727   8.930  66.507  1.00  0.00    -0.046 NA 
HETATM   10  C   UNL     1      -6.288  10.164  66.767  1.00  0.00    -0.070 C  
HETATM   11  C   UNL     1      -5.434  11.339  66.356  1.00  0.00    -0.139 C  
HETATM   12  C   UNL     1      -7.514  10.249  67.344  1.00  0.00    -0.094 C  
HETATM   13  C   UNL     1      -8.285   8.974  67.724  1.00  0.00    -0.109 C  
BRANCH  12  14
HETATM   14  C   UNL     1      -8.097  11.590  67.615  1.00  0.00    -0.130 C  
HETATM   15  O   UNL     1      -7.945  12.206  68.660  1.00  0.00    -0.130 OA 
BRANCH  14  16
HETATM   16  O   UNL     1      -8.808  12.045  66.554  1.00  0.00    -0.205 OA 
HETATM   17  C   UNL     1     -10.126  12.502  66.890  1.00  0.00    -0.225 C  
ENDBRANCH  14  16
ENDBRANCH  12  14
BRANCH  13  18
HETATM   18  C   UNL     1      -8.924   9.013  69.130  1.00  0.00    -0.140 A  
HETATM   19  C   UNL     1     -10.336   9.089  69.197  1.00  0.00    -0.229 A  
HETATM   20  C   UNL     1     -11.018   8.996  70.410  1.00  0.00    -0.283 A  
HETATM   21  C   UNL     1      -8.209   8.881  70.338  1.00  0.00    -0.138 A  
HETATM   22  C   UNL     1      -8.907   8.780  71.559  1.00  0.00    -0.225 A  
HETATM   23 CL   UNL     1      -6.476   8.805  70.335  1.00  0.00    -0.038 Cl 
HETATM   24 CL   UNL     1      -8.103   8.543  73.076  1.00  0.00    -0.145 Cl 
HETATM   25  C   UNL     1     -10.304   8.828  71.589  1.00  0.00    -0.391 A  
ENDBRANCH  13  18
ENDBRANCH   4   6
ENDBRANCH   3   4
ENDBRANCH   2   3
TORSDOF 6
ENDMDL
MODEL      174
REMARK 921   NORMALIZED FREE ENERGY PREDICTED BY IDOCK:   -2.86 KCAL/MOL
REMARK 922        TOTAL FREE ENERGY PREDICTED BY IDOCK:   -5.09 KCAL/MOL
REMARK 923 INTER-LIGAND FREE ENERGY PREDICTED BY IDOCK:   -4.04 KCAL/MOL
REMARK 924 INTRA-LIGAND FREE ENERGY PREDICTED BY IDOCK:   -1.05 KCAL/MOL
REMARK 927      BINDING AFFINITY PREDICTED BY RF-SCORE:    0.00 PKD
ROOT
HETATM    1  C   UNL     1      -8.741  13.234  67.414  1.00  0.00    -0.206 C  
HETATM    2  C   UNL     1      -7.977  12.267  68.291  1.00  0.00    -0.163 C  
ENDROOT
BRANCH   2   3
HETATM    3  O   UNL     1      -7.794  11.085  67.507  1.00  0.00    -0.111 OA 
BRANCH   3   4
HETATM    4  C   UNL     1      -7.059  10.074  68.016  1.00  0.00    -0.081 C  
HETATM    5  O   UNL     1      -6.301  10.143  68.976  1.00  0.00    -0.043 OA 
BRANCH   4   6
HETATM    6  C   UNL     1      -7.442   8.808  67.344  1.00  0.00    -0.089 C  
HETATM    7  C   UNL     1      -7.243   8.591  66.022  1.00  0.00    -0.077 C  
HETATM    8  C   UNL     1      -6.584   9.519  65.026  1.00  0.00    -0.088 C  
HETATM    9  N   UNL     1      -7.673   7.405  65.455  1.00  0.00    -0.103 NA 
HETATM   10  C   UNL     1      -8.413   6.435  66.100  1.00  0.00    -0.140 C  
HETATM   11  C   UNL     1      -8.880   5.308  65.209  1.00  0.00    -0.144 C  
HETATM   12  C   UNL     1      -8.664   6.539  67.429  1.00  0.00    -0.117 C  
HETATM   13  C   UNL     1      -8.137   7.742  68.229  1.00  0.00    -0.124 C  
BRANCH  12  14
HETATM   14  C   UNL     1      -9.464   5.481  68.102  1.00  0.00    -0.114 C  
HETATM   15  O   UNL     1     -10.680   5.388  68.026  1.00  0.00    -0.140 OA 
BRANCH  14  16
HETATM   16  O   UNL     1      -8.673   4.628  68.799  1.00  0.00    -0.091 OA 
HETATM   17  C   UNL     1      -8.829   3.252  68.424  1.00  0.00    -0.118 C  
ENDBRANCH  14  16
ENDBRANCH  12  14
BRANCH  13  18
HETATM   18  C   UNL     1      -9.174   8.372  69.185  1.00  0.00    -0.150 A  
HETATM   19  C   UNL     1      -8.942   8.231  70.575  1.00  0.00    -0.151 A  
HETATM   20  C   UNL     1      -9.741   8.873  71.520  1.00  0.00    -0.372 A  
HETATM   21  C   UNL     1     -10.272   9.155  68.772  1.00  0.00    -0.210 A  
HETATM   22  C   UNL     1     -11.070   9.806  69.735  1.00  0.00    -0.237 A  
HETATM   23 CL   UNL     1     -10.631   9.353  67.087  1.00  0.00    -0.320 Cl 
HETATM   24 CL   UNL     1     -12.391  10.842  69.304  1.00  0.00    -0.250 Cl 
HETATM   25  C   UNL     1     -10.797   9.671  71.099  1.00  0.00    -0.404 A  
ENDBRANCH  13  18
ENDBRANCH   4   6
ENDBRANCH   3   4
ENDBRANCH   2   3
TORSDOF 6
ENDMDL
MODEL      175
REMARK 921   NORMALIZED FREE ENERGY PREDICTED BY IDOCK:   -2.84 KCAL/MOL
REMARK 922        TOTAL FREE ENERGY PREDICTED BY IDOCK:   -5.05 KCAL/MOL
REMARK 923 INTER-LIGAND FREE ENERGY PREDICTED BY IDOCK:   -3.74 KCAL/MOL
REMARK 924 INTRA-LIGAND FREE ENERGY PREDICTED BY IDOCK:   -1.31 KCAL/MOL
REMARK 927      BINDING AFFINITY PREDICTED BY RF-SCORE:    0.00 PKD
ROOT
HETATM    1  C   UNL     1     -11.117   6.424  66.865  1.00  0.00    -0.346 C  
HETATM    2  C   UNL     1      -9.666   6.085  66.601  1.00  0.00    -0.157 C  
ENDROOT
BRANCH   2   3
HETATM    3  O   UNL     1      -9.292   5.144  67.611  1.00  0.00    -0.115 OA 
BRANCH   3   4
HETATM    4  C   UNL     1      -8.024   5.161  68.077  1.00  0.00    -0.091 C  
HETATM    5  O   UNL     1      -7.200   4.262  67.965  1.00  0.00    -0.062 OA 
BRANCH   4   6
HETATM    6  C   UNL     1      -7.717   6.517  68.596  1.00  0.00    -0.102 C  
HETATM    7  C   UNL     1      -6.814   7.338  68.009  1.00  0.00    -0.070 C  
HETATM    8  C   UNL     1      -6.015   7.080  66.752  1.00  0.00    -0.033 C  
HETATM    9  N   UNL     1      -6.543   8.569  68.579  1.00  0.00    -0.058 NA 
HETATM   10  C   UNL     1      -7.033   9.012  69.792  1.00  0.00    -0.054 C  
HETATM   11  C   UNL     1      -6.463  10.332  70.254  1.00  0.00    -0.137 C  
HETATM   12  C   UNL     1      -7.955   8.277  70.464  1.00  0.00    -0.099 C  
HETATM   13  C   UNL     1      -8.455   6.941  69.891  1.00  0.00    -0.140 C  
BRANCH  12  14
HETATM   14  C   UNL     1      -8.467   8.775  71.769  1.00  0.00    -0.109 C  
HETATM   15  O   UNL     1      -9.576   9.263  71.931  1.00  0.00    -0.274 OA 
BRANCH  14  16
HETATM   16  O   UNL     1      -7.553   8.608  72.757  1.00  0.00    -0.338 OA 
HETATM   17  C   UNL     1      -8.086   8.008  73.947  1.00  0.00    -0.233 C  
ENDBRANCH  14  16
ENDBRANCH  12  14
BRANCH  13  18
HETATM   18  C   UNL     1      -8.520   5.793  70.921  1.00  0.00    -0.126 A  
HETATM   19  C   UNL     1      -7.289   5.278  71.396  1.00  0.00    -0.086 A  
HETATM   20  C   UNL     1      -7.236   4.336  72.423  1.00  0.00    -0.066 A  
HETATM   21  C   UNL     1      -9.710   5.294  71.490  1.00  0.00    -0.162 A  
HETATM   22  C   UNL     1      -9.647   4.347  72.533  1.00  0.00    -0.144 A  
HETATM   23 CL   UNL     1     -11.255   5.860  70.943  1.00  0.00    -0.324 Cl 
HETATM   24 CL   UNL     1     -11.061   3.741  73.330  1.00  0.00    -0.318 Cl 
HETATM   25  C   UNL     1      -8.413   3.880  72.999  1.00  0.00    -0.095 A  
ENDBRANCH  13  18
ENDBRANCH   4   6
ENDBRANCH   3   4
ENDBRANCH   2   3
TORSDOF 6
ENDMDL
MODEL      176
REMARK 921   NORMALIZED FREE ENERGY PREDICTED BY IDOCK:   -2.78 KCAL/MOL
REMARK 922        TOTAL FREE ENERGY PREDICTED BY IDOCK:   -4.98 KCAL/MOL
REMARK 923 INTER-LIGAND FREE ENERGY PREDICTED BY IDOCK:   -3.92 KCAL/MOL
REMARK 924 INTRA-LIGAND FREE ENERGY PREDICTED BY IDOCK:   -1.07 KCAL/MOL
REMARK 927      BINDING AFFINITY PREDICTED BY RF-SCORE:    0.00 PKD
ROOT
HETATM    1  C   UNL     1      -9.857  10.394  62.763  1.00  0.00    -0.115 C  
HETATM    2  C   UNL     1      -9.921  10.497  64.271  1.00  0.00    -0.331 C  
ENDROOT
BRANCH   2   3
HETATM    3  O   UNL     1      -9.453   9.242  64.771  1.00  0.00    -0.136 OA 
BRANCH   3   4
HETATM    4  C   UNL     1      -8.175   9.147  65.196  1.00  0.00    -0.145 C  
HETATM    5  O   UNL     1      -7.198   9.670  64.673  1.00  0.00    -0.111 OA 
BRANCH   4   6
HETATM    6  C   UNL     1      -8.149   8.453  66.507  1.00  0.00    -0.101 C  
HETATM    7  C   UNL     1      -8.265   7.110  66.627  1.00  0.00    -0.112 C  
HETATM    8  C   UNL     1      -8.389   6.093  65.514  1.00  0.00    -0.147 C  
HETATM    9  N   UNL     1      -8.283   6.538  67.886  1.00  0.00    -0.115 NA 
HETATM   10  C   UNL     1      -8.311   7.234  69.078  1.00  0.00    -0.126 C  
HETATM   11  C   UNL     1      -8.479   6.370  70.305  1.00  0.00    -0.135 C  
HETATM   12  C   UNL     1      -8.188   8.586  69.082  1.00  0.00    -0.119 C  
HETATM   13  C   UNL     1      -8.028   9.356  67.761  1.00  0.00    -0.096 C  
BRANCH  12  14
HETATM   14  C   UNL     1      -8.222   9.314  70.378  1.00  0.00    -0.178 C  
HETATM   15  O   UNL     1      -9.243   9.731  70.905  1.00  0.00    -0.108 OA 
BRANCH  14  16
HETATM   16  O   UNL     1      -6.979   9.445  70.906  1.00  0.00    -0.106 OA 
HETATM   17  C   UNL     1      -6.316  10.663  70.536  1.00  0.00    -0.074 C  
ENDBRANCH  14  16
ENDBRANCH  12  14
BRANCH  13  18
HETATM   18  C   UNL     1      -8.911  10.618  67.651  1.00  0.00    -0.139 A  
HETATM   19  C   UNL     1     -10.307  10.449  67.823  1.00  0.00    -0.245 A  
HETATM   20  C   UNL     1     -11.176  11.538  67.877  1.00  0.00    -0.344 A  
HETATM   21  C   UNL     1      -8.418  11.930  67.491  1.00  0.00    -0.161 A  
HETATM   22  C   UNL     1      -9.303  13.025  67.553  1.00  0.00    -0.200 A  
HETATM   23 CL   UNL     1      -6.723  12.212  67.251  1.00  0.00    -0.143 Cl 
HETATM   24 CL   UNL     1      -8.763  14.668  67.438  1.00  0.00    -0.193 Cl 
HETATM   25  C   UNL     1     -10.672  12.826  67.755  1.00  0.00    -0.237 A  
ENDBRANCH  13  18
ENDBRANCH   4   6
ENDBRANCH   3   4
ENDBRANCH   2   3
TORSDOF 6
ENDMDL
MODEL      177
REMARK 921   NORMALIZED FREE ENERGY PREDICTED BY IDOCK:   -2.78 KCAL/MOL
REMARK 922        TOTAL FREE ENERGY PREDICTED BY IDOCK:   -4.98 KCAL/MOL
REMARK 923 INTER-LIGAND FREE ENERGY PREDICTED BY IDOCK:   -4.44 KCAL/MOL
REMARK 924 INTRA-LIGAND FREE ENERGY PREDICTED BY IDOCK:   -0.54 KCAL/MOL
REMARK 927      BINDING AFFINITY PREDICTED BY RF-SCORE:    0.00 PKD
ROOT
HETATM    1  C   UNL     1      -8.531  19.302  68.832  1.00  0.00    -0.335 C  
HETATM    2  C   UNL     1      -9.562  18.796  69.817  1.00  0.00     0.643 C  
ENDROOT
BRANCH   2   3
HETATM    3  O   UNL     1      -9.878  17.464  69.406  1.00  0.00    -0.118 OA 
BRANCH   3   4
HETATM    4  C   UNL     1     -10.890  17.276  68.532  1.00  0.00    -0.240 C  
HETATM    5  O   UNL     1     -11.411  18.136  67.833  1.00  0.00     0.134 OA 
BRANCH   4   6
HETATM    6  C   UNL     1     -11.163  15.823  68.411  1.00  0.00    -0.362 C  
HETATM    7  C   UNL     1     -11.938  15.148  69.293  1.00  0.00    -0.292 C  
HETATM    8  C   UNL     1     -12.680  15.709  70.485  1.00  0.00    -0.391 C  
HETATM    9  N   UNL     1     -12.108  13.783  69.144  1.00  0.00    -0.352 NA 
HETATM   10  C   UNL     1     -11.450  12.994  68.222  1.00  0.00    -0.312 C  
HETATM   11  C   UNL     1     -11.704  11.512  68.371  1.00  0.00    -0.372 C  
HETATM   12  C   UNL     1     -10.657  13.562  67.279  1.00  0.00    -0.263 C  
HETATM   13  C   UNL     1     -10.472  15.088  67.235  1.00  0.00    -0.265 C  
BRANCH  12  14
HETATM   14  C   UNL     1      -9.958  12.690  66.297  1.00  0.00    -0.258 C  
HETATM   15  O   UNL     1     -10.192  12.684  65.097  1.00  0.00    -0.287 OA 
BRANCH  14  16
HETATM   16  O   UNL     1      -9.024  11.914  66.899  1.00  0.00    -0.183 OA 
HETATM   17  C   UNL     1      -8.763  10.680  66.215  1.00  0.00    -0.156 C  
ENDBRANCH  14  16
ENDBRANCH  12  14
BRANCH  13  18
HETATM   18  C   UNL     1      -9.009  15.545  67.048  1.00  0.00    -0.249 A  
HETATM   19  C   UNL     1      -8.761  16.543  66.074  1.00  0.00    -0.255 A  
HETATM   20  C   UNL     1      -7.501  17.120  65.920  1.00  0.00     0.014 A  
HETATM   21  C   UNL     1      -7.927  15.112  67.843  1.00  0.00    -0.135 A  
HETATM   22  C   UNL     1      -6.658  15.705  67.685  1.00  0.00    -0.172 A  
HETATM   23 CL   UNL     1      -8.150  13.876  69.040  1.00  0.00     0.046 Cl 
HETATM   24 CL   UNL     1      -5.299  15.279  68.672  1.00  0.00    -0.088 Cl 
HETATM   25  C   UNL     1      -6.453  16.710  66.734  1.00  0.00    -0.186 A  
ENDBRANCH  13  18
ENDBRANCH   4   6
ENDBRANCH   3   4
ENDBRANCH   2   3
TORSDOF 6
ENDMDL
MODEL      178
REMARK 921   NORMALIZED FREE ENERGY PREDICTED BY IDOCK:   -2.73 KCAL/MOL
REMARK 922        TOTAL FREE ENERGY PREDICTED BY IDOCK:   -4.91 KCAL/MOL
REMARK 923 INTER-LIGAND FREE ENERGY PREDICTED BY IDOCK:   -3.96 KCAL/MOL
REMARK 924 INTRA-LIGAND FREE ENERGY PREDICTED BY IDOCK:   -0.95 KCAL/MOL
REMARK 927      BINDING AFFINITY PREDICTED BY RF-SCORE:    0.00 PKD
ROOT
HETATM    1  C   UNL     1     -11.217  11.922  65.398  1.00  0.00    -0.351 C  
HETATM    2  C   UNL     1     -10.585  11.626  66.741  1.00  0.00    -0.244 C  
ENDROOT
BRANCH   2   3
HETATM    3  O   UNL     1     -10.157  10.263  66.681  1.00  0.00    -0.206 OA 
BRANCH   3   4
HETATM    4  C   UNL     1      -8.868   9.974  66.961  1.00  0.00    -0.138 C  
HETATM    5  O   UNL     1      -8.197  10.459  67.863  1.00  0.00    -0.106 OA 
BRANCH   4   6
HETATM    6  C   UNL     1      -8.431   8.837  66.113  1.00  0.00    -0.138 C  
HETATM    7  C   UNL     1      -8.389   8.905  64.761  1.00  0.00    -0.175 C  
HETATM    8  C   UNL     1      -8.715  10.096  63.889  1.00  0.00    -0.220 C  
HETATM    9  N   UNL     1      -8.019   7.787  64.035  1.00  0.00    -0.127 NA 
HETATM   10  C   UNL     1      -7.790   6.533  64.563  1.00  0.00    -0.112 C  
HETATM   11  C   UNL     1      -7.547   5.454  63.534  1.00  0.00    -0.065 C  
HETATM   12  C   UNL     1      -7.792   6.347  65.908  1.00  0.00    -0.102 C  
HETATM   13  C   UNL     1      -8.061   7.528  66.856  1.00  0.00    -0.116 C  
BRANCH  12  14
HETATM   14  C   UNL     1      -7.544   4.986  66.453  1.00  0.00    -0.088 C  
HETATM   15  O   UNL     1      -6.447   4.576  66.803  1.00  0.00    -0.039 OA 
BRANCH  14  16
HETATM   16  O   UNL     1      -8.689   4.263  66.523  1.00  0.00    -0.112 OA 
HETATM   17  C   UNL     1      -8.524   2.876  66.193  1.00  0.00    -0.105 C  
ENDBRANCH  14  16
ENDBRANCH  12  14
BRANCH  13  18
HETATM   18  C   UNL     1      -9.051   7.212  67.998  1.00  0.00    -0.132 A  
HETATM   19  C   UNL     1     -10.364   6.830  67.630  1.00  0.00    -0.255 A  
HETATM   20  C   UNL     1     -11.293   6.396  68.575  1.00  0.00    -0.187 A  
HETATM   21  C   UNL     1      -8.712   7.183  69.367  1.00  0.00    -0.134 A  
HETATM   22  C   UNL     1      -9.655   6.737  70.314  1.00  0.00    -0.165 A  
HETATM   23 CL   UNL     1      -7.130   7.661  69.894  1.00  0.00    -0.062 Cl 
HETATM   24 CL   UNL     1      -9.290   6.604  72.003  1.00  0.00    -0.144 Cl 
HETATM   25  C   UNL     1     -10.935   6.337  69.915  1.00  0.00    -0.435 A  
ENDBRANCH  13  18
ENDBRANCH   4   6
ENDBRANCH   3   4
ENDBRANCH   2   3
TORSDOF 6
ENDMDL
MODEL      179
REMARK 921   NORMALIZED FREE ENERGY PREDICTED BY IDOCK:   -2.72 KCAL/MOL
REMARK 922        TOTAL FREE ENERGY PREDICTED BY IDOCK:   -4.90 KCAL/MOL
REMARK 923 INTER-LIGAND FREE ENERGY PREDICTED BY IDOCK:   -4.09 KCAL/MOL
REMARK 924 INTRA-LIGAND FREE ENERGY PREDICTED BY IDOCK:   -0.81 KCAL/MOL
REMARK 927      BINDING AFFINITY PREDICTED BY RF-SCORE:    0.00 PKD
ROOT
HETATM    1  C   UNL     1      -9.421   3.243  67.185  1.00  0.00    -0.178 C  
HETATM    2  C   UNL     1      -8.299   4.228  67.432  1.00  0.00    -0.099 C  
ENDROOT
BRANCH   2   3
HETATM    3  O   UNL     1      -8.916   5.516  67.501  1.00  0.00    -0.110 OA 
BRANCH   3   4
HETATM    4  C   UNL     1      -8.427   6.424  68.374  1.00  0.00    -0.116 C  
HETATM    5  O   UNL     1      -7.325   6.955  68.325  1.00  0.00    -0.091 OA 
BRANCH   4   6
HETATM    6  C   UNL     1      -9.504   6.821  69.314  1.00  0.00    -0.142 C  
HETATM    7  C   UNL     1     -10.140   8.014  69.238  1.00  0.00    -0.198 C  
HETATM    8  C   UNL     1      -9.929   9.105  68.212  1.00  0.00    -0.199 C  
HETATM    9  N   UNL     1     -11.100   8.335  70.180  1.00  0.00    -0.230 NA 
HETATM   10  C   UNL     1     -11.405   7.582  71.297  1.00  0.00    -0.261 C  
HETATM   11  C   UNL     1     -12.386   8.233  72.243  1.00  0.00    -0.410 C  
HETATM   12  C   UNL     1     -10.839   6.361  71.472  1.00  0.00    -0.299 C  
HETATM   13  C   UNL     1      -9.845   5.808  70.437  1.00  0.00    -0.241 C  
BRANCH  12  14
HETATM   14  C   UNL     1     -11.183   5.569  72.683  1.00  0.00    -0.295 C  
HETATM   15  O   UNL     1     -12.256   5.012  72.858  1.00  0.00    -0.088 OA 
BRANCH  14  16
HETATM   16  O   UNL     1     -10.151   5.535  73.562  1.00  0.00    -0.169 OA 
HETATM   17  C   UNL     1     -10.044   6.709  74.381  1.00  0.00    -0.315 C  
ENDBRANCH  14  16
ENDBRANCH  12  14
BRANCH  13  18
HETATM   18  C   UNL     1      -8.576   5.177  71.050  1.00  0.00    -0.130 A  
HETATM   19  C   UNL     1      -7.603   6.060  71.577  1.00  0.00    -0.099 A  
HETATM   20  C   UNL     1      -6.487   5.592  72.270  1.00  0.00    -0.053 A  
HETATM   21  C   UNL     1      -8.368   3.791  71.208  1.00  0.00    -0.072 A  
HETATM   22  C   UNL     1      -7.241   3.327  71.916  1.00  0.00    -0.046 A  
HETATM   23 CL   UNL     1      -9.506   2.648  70.568  1.00  0.00    -0.214 Cl 
HETATM   24 CL   UNL     1      -6.954   1.644  72.215  1.00  0.00    -0.018 Cl 
HETATM   25  C   UNL     1      -6.313   4.227  72.450  1.00  0.00    -0.021 A  
ENDBRANCH  13  18
ENDBRANCH   4   6
ENDBRANCH   3   4
ENDBRANCH   2   3
TORSDOF 6
ENDMDL
MODEL      180
REMARK 921   NORMALIZED FREE ENERGY PREDICTED BY IDOCK:   -2.72 KCAL/MOL
REMARK 922        TOTAL FREE ENERGY PREDICTED BY IDOCK:   -4.90 KCAL/MOL
REMARK 923 INTER-LIGAND FREE ENERGY PREDICTED BY IDOCK:   -3.66 KCAL/MOL
REMARK 924 INTRA-LIGAND FREE ENERGY PREDICTED BY IDOCK:   -1.24 KCAL/MOL
REMARK 927      BINDING AFFINITY PREDICTED BY RF-SCORE:    0.00 PKD
ROOT
HETATM    1  C   UNL     1      -9.835   4.124  65.530  1.00  0.00    -0.210 C  
HETATM    2  C   UNL     1      -9.405   3.605  66.885  1.00  0.00    -0.194 C  
ENDROOT
BRANCH   2   3
HETATM    3  O   UNL     1      -9.525   4.710  67.785  1.00  0.00    -0.137 OA 
BRANCH   3   4
HETATM    4  C   UNL     1      -8.404   5.224  68.336  1.00  0.00    -0.093 C  
HETATM    5  O   UNL     1      -7.679   4.668  69.152  1.00  0.00    -0.066 OA 
BRANCH   4   6
HETATM    6  C   UNL     1      -8.079   6.507  67.667  1.00  0.00    -0.118 C  
HETATM    7  C   UNL     1      -7.171   6.602  66.667  1.00  0.00    -0.073 C  
HETATM    8  C   UNL     1      -6.382   5.480  66.030  1.00  0.00    -0.035 C  
HETATM    9  N   UNL     1      -6.883   7.842  66.125  1.00  0.00    -0.060 NA 
HETATM   10  C   UNL     1      -7.361   9.048  66.595  1.00  0.00    -0.086 C  
HETATM   11  C   UNL     1      -6.773  10.263  65.916  1.00  0.00    -0.117 C  
HETATM   12  C   UNL     1      -8.287   9.076  67.587  1.00  0.00    -0.117 C  
HETATM   13  C   UNL     1      -8.805   7.767  68.205  1.00  0.00    -0.129 C  
BRANCH  12  14
HETATM   14  C   UNL     1      -8.786  10.389  68.078  1.00  0.00    -0.123 C  
HETATM   15  O   UNL     1      -8.074  11.257  68.561  1.00  0.00    -0.134 OA 
BRANCH  14  16
HETATM   16  O   UNL     1     -10.126  10.504  67.910  1.00  0.00    -0.168 OA 
HETATM   17  C   UNL     1     -10.528  10.699  66.546  1.00  0.00    -0.224 C  
ENDBRANCH  14  16
ENDBRANCH  12  14
BRANCH  13  18
HETATM   18  C   UNL     1      -8.876   7.777  69.747  1.00  0.00    -0.139 A  
HETATM   19  C   UNL     1      -7.700   8.141  70.448  1.00  0.00    -0.085 A  
HETATM   20  C   UNL     1      -7.695   8.312  71.832  1.00  0.00    -0.143 A  
HETATM   21  C   UNL     1     -10.049   7.548  70.497  1.00  0.00    -0.188 A  
HETATM   22  C   UNL     1     -10.036   7.730  71.894  1.00  0.00    -0.182 A  
HETATM   23 CL   UNL     1     -11.521   7.077  69.709  1.00  0.00    -0.219 Cl 
HETATM   24 CL   UNL     1     -11.453   7.538  72.873  1.00  0.00    -0.346 Cl 
HETATM   25  C   UNL     1      -8.865   8.119  72.553  1.00  0.00    -0.272 A  
ENDBRANCH  13  18
ENDBRANCH   4   6
ENDBRANCH   3   4
ENDBRANCH   2   3
TORSDOF 6
ENDMDL
MODEL      181
REMARK 921   NORMALIZED FREE ENERGY PREDICTED BY IDOCK:   -2.66 KCAL/MOL
REMARK 922        TOTAL FREE ENERGY PREDICTED BY IDOCK:   -4.82 KCAL/MOL
REMARK 923 INTER-LIGAND FREE ENERGY PREDICTED BY IDOCK:   -3.66 KCAL/MOL
REMARK 924 INTRA-LIGAND FREE ENERGY PREDICTED BY IDOCK:   -1.16 KCAL/MOL
REMARK 927      BINDING AFFINITY PREDICTED BY RF-SCORE:    0.00 PKD
ROOT
HETATM    1  C   UNL     1      -5.864  10.425  65.181  1.00  0.00    -0.135 C  
HETATM    2  C   UNL     1      -5.707   9.223  66.088  1.00  0.00    -0.049 C  
ENDROOT
BRANCH   2   3
HETATM    3  O   UNL     1      -6.906   9.157  66.863  1.00  0.00    -0.078 OA 
BRANCH   3   4
HETATM    4  C   UNL     1      -6.889   9.630  68.128  1.00  0.00    -0.069 C  
HETATM    5  O   UNL     1      -5.892   9.907  68.784  1.00  0.00    -0.039 OA 
BRANCH   4   6
HETATM    6  C   UNL     1      -8.278   9.936  68.550  1.00  0.00    -0.106 C  
HETATM    7  C   UNL     1      -8.830  11.165  68.418  1.00  0.00    -0.157 C  
HETATM    8  C   UNL     1      -8.198  12.397  67.807  1.00  0.00    -0.163 C  
HETATM    9  N   UNL     1     -10.114  11.389  68.880  1.00  0.00    -0.186 NA 
HETATM   10  C   UNL     1     -10.875  10.482  69.591  1.00  0.00    -0.274 C  
HETATM   11  C   UNL     1     -12.184  11.030  70.106  1.00  0.00    -0.424 C  
HETATM   12  C   UNL     1     -10.430   9.213  69.774  1.00  0.00    -0.234 C  
HETATM   13  C   UNL     1      -9.070   8.775  69.204  1.00  0.00    -0.141 C  
BRANCH  12  14
HETATM   14  C   UNL     1     -11.267   8.254  70.544  1.00  0.00    -0.239 C  
HETATM   15  O   UNL     1     -11.882   7.324  70.043  1.00  0.00    -0.067 OA 
BRANCH  14  16
HETATM   16  O   UNL     1     -11.252   8.536  71.870  1.00  0.00    -0.281 OA 
HETATM   17  C   UNL     1     -12.539   8.451  72.498  1.00  0.00    -0.253 C  
ENDBRANCH  14  16
ENDBRANCH  12  14
BRANCH  13  18
HETATM   18  C   UNL     1      -8.200   7.964  70.188  1.00  0.00    -0.125 A  
HETATM   19  C   UNL     1      -7.777   8.620  71.370  1.00  0.00    -0.150 A  
HETATM   20  C   UNL     1      -7.103   7.941  72.384  1.00  0.00    -0.095 A  
HETATM   21  C   UNL     1      -7.884   6.598  70.040  1.00  0.00    -0.111 A  
HETATM   22  C   UNL     1      -7.208   5.917  71.073  1.00  0.00    -0.074 A  
HETATM   23 CL   UNL     1      -8.349   5.735  68.609  1.00  0.00    -0.107 Cl 
HETATM   24 CL   UNL     1      -6.849   4.224  70.995  1.00  0.00    -0.035 Cl 
HETATM   25  C   UNL     1      -6.830   6.587  72.241  1.00  0.00    -0.068 A  
ENDBRANCH  13  18
ENDBRANCH   4   6
ENDBRANCH   3   4
ENDBRANCH   2   3
TORSDOF 6
ENDMDL
MODEL      182
REMARK 921   NORMALIZED FREE ENERGY PREDICTED BY IDOCK:   -2.66 KCAL/MOL
REMARK 922        TOTAL FREE ENERGY PREDICTED BY IDOCK:   -4.82 KCAL/MOL
REMARK 923 INTER-LIGAND FREE ENERGY PREDICTED BY IDOCK:   -3.96 KCAL/MOL
REMARK 924 INTRA-LIGAND FREE ENERGY PREDICTED BY IDOCK:   -0.85 KCAL/MOL
REMARK 927      BINDING AFFINITY PREDICTED BY RF-SCORE:    0.00 PKD
ROOT
HETATM    1  C   UNL     1     -12.975  11.921  63.627  1.00  0.00    -0.317 C  
HETATM    2  C   UNL     1     -12.618  12.801  64.805  1.00  0.00    -0.446 C  
ENDROOT
BRANCH   2   3
HETATM    3  O   UNL     1     -11.700  12.043  65.597  1.00  0.00    -0.356 OA 
BRANCH   3   4
HETATM    4  C   UNL     1     -10.405  11.990  65.218  1.00  0.00    -0.275 C  
HETATM    5  O   UNL     1      -9.991  11.829  64.076  1.00  0.00    -0.277 OA 
BRANCH   4   6
HETATM    6  C   UNL     1      -9.546  12.337  66.376  1.00  0.00    -0.242 C  
HETATM    7  C   UNL     1      -9.175  13.608  66.659  1.00  0.00    -0.212 C  
HETATM    8  C   UNL     1      -9.573  14.868  65.924  1.00  0.00    -0.343 C  
HETATM    9  N   UNL     1      -8.330  13.849  67.728  1.00  0.00    -0.160 NA 
HETATM   10  C   UNL     1      -7.715  12.879  68.492  1.00  0.00    -0.109 C  
HETATM   11  C   UNL     1      -6.725  13.410  69.502  1.00  0.00     0.003 C  
HETATM   12  C   UNL     1      -8.020  11.569  68.308  1.00  0.00    -0.142 C  
HETATM   13  C   UNL     1      -9.044  11.151  67.239  1.00  0.00    -0.152 C  
BRANCH  12  14
HETATM   14  C   UNL     1      -7.342  10.542  69.144  1.00  0.00    -0.109 C  
HETATM   15  O   UNL     1      -6.192  10.166  68.972  1.00  0.00    -0.043 OA 
BRANCH  14  16
HETATM   16  O   UNL     1      -8.158  10.085  70.126  1.00  0.00    -0.175 OA 
HETATM   17  C   UNL     1      -8.459   8.685  70.029  1.00  0.00    -0.130 C  
ENDBRANCH  14  16
ENDBRANCH  12  14
BRANCH  13  18
HETATM   18  C   UNL     1      -8.603   9.952  66.373  1.00  0.00    -0.136 A  
HETATM   19  C   UNL     1      -9.495   8.855  66.284  1.00  0.00    -0.304 A  
HETATM   20  C   UNL     1      -9.255   7.783  65.425  1.00  0.00     0.298 A  
HETATM   21  C   UNL     1      -7.429   9.915  65.592  1.00  0.00    -0.116 A  
HETATM   22  C   UNL     1      -7.198   8.831  64.721  1.00  0.00    -0.091 A  
HETATM   23 CL   UNL     1      -6.279  11.212  65.667  1.00  0.00     0.065 Cl 
HETATM   24 CL   UNL     1      -5.817   8.751  63.678  1.00  0.00    -0.072 Cl 
HETATM   25  C   UNL     1      -8.114   7.777  64.635  1.00  0.00    -0.123 A  
ENDBRANCH  13  18
ENDBRANCH   4   6
ENDBRANCH   3   4
ENDBRANCH   2   3
TORSDOF 6
ENDMDL
MODEL      183
REMARK 921   NORMALIZED FREE ENERGY PREDICTED BY IDOCK:   -2.65 KCAL/MOL
REMARK 922        TOTAL FREE ENERGY PREDICTED BY IDOCK:   -4.81 KCAL/MOL
REMARK 923 INTER-LIGAND FREE ENERGY PREDICTED BY IDOCK:   -3.42 KCAL/MOL
REMARK 924 INTRA-LIGAND FREE ENERGY PREDICTED BY IDOCK:   -1.38 KCAL/MOL
REMARK 927      BINDING AFFINITY PREDICTED BY RF-SCORE:    0.00 PKD
ROOT
HETATM    1  C   UNL     1      -9.013   8.986  64.840  1.00  0.00    -0.170 C  
HETATM    2  C   UNL     1      -8.347   7.822  65.542  1.00  0.00    -0.146 C  
ENDROOT
BRANCH   2   3
HETATM    3  O   UNL     1      -9.001   7.701  66.808  1.00  0.00    -0.131 OA 
BRANCH   3   4
HETATM    4  C   UNL     1      -9.866   6.682  66.998  1.00  0.00    -0.160 C  
HETATM    5  O   UNL     1     -11.083   6.731  66.862  1.00  0.00    -0.397 OA 
BRANCH   4   6
HETATM    6  C   UNL     1      -9.101   5.431  67.225  1.00  0.00    -0.111 C  
HETATM    7  C   UNL     1      -9.107   4.399  66.349  1.00  0.00    -0.126 C  
HETATM    8  C   UNL     1      -9.815   4.328  65.015  1.00  0.00    -0.198 C  
HETATM    9  N   UNL     1      -8.408   3.244  66.652  1.00  0.00    -0.099 NA 
HETATM   10  C   UNL     1      -7.777   2.987  67.853  1.00  0.00    -0.056 C  
HETATM   11  C   UNL     1      -7.216   1.590  67.978  1.00  0.00    -0.039 C  
HETATM   12  C   UNL     1      -7.695   3.953  68.802  1.00  0.00    -0.053 C  
HETATM   13  C   UNL     1      -8.315   5.339  68.558  1.00  0.00    -0.089 C  
BRANCH  12  14
HETATM   14  C   UNL     1      -7.011   3.651  70.088  1.00  0.00    -0.038 C  
HETATM   15  O   UNL     1      -7.517   3.020  71.004  1.00  0.00    -0.036 OA 
BRANCH  14  16
HETATM   16  O   UNL     1      -5.752   4.154  70.110  1.00  0.00    -0.015 OA 
HETATM   17  C   UNL     1      -5.546   5.165  71.107  1.00  0.00    -0.008 C  
ENDBRANCH  14  16
ENDBRANCH  12  14
BRANCH  13  18
HETATM   18  C   UNL     1      -9.129   5.890  69.748  1.00  0.00    -0.147 A  
HETATM   19  C   UNL     1     -10.249   5.134  70.171  1.00  0.00    -0.348 A  
HETATM   20  C   UNL     1     -10.970   5.471  71.316  1.00  0.00    -0.198 A  
HETATM   21  C   UNL     1      -8.779   7.032  70.498  1.00  0.00    -0.153 A  
HETATM   22  C   UNL     1      -9.509   7.361  71.658  1.00  0.00    -0.150 A  
HETATM   23 CL   UNL     1      -7.433   8.019  70.026  1.00  0.00    -0.073 Cl 
HETATM   24 CL   UNL     1      -9.095   8.704  72.671  1.00  0.00    -0.237 Cl 
HETATM   25  C   UNL     1     -10.593   6.576  72.066  1.00  0.00    -0.244 A  
ENDBRANCH  13  18
ENDBRANCH   4   6
ENDBRANCH   3   4
ENDBRANCH   2   3
TORSDOF 6
ENDMDL
MODEL      184
REMARK 921   NORMALIZED FREE ENERGY PREDICTED BY IDOCK:   -2.65 KCAL/MOL
REMARK 922        TOTAL FREE ENERGY PREDICTED BY IDOCK:   -4.80 KCAL/MOL
REMARK 923 INTER-LIGAND FREE ENERGY PREDICTED BY IDOCK:   -4.22 KCAL/MOL
REMARK 924 INTRA-LIGAND FREE ENERGY PREDICTED BY IDOCK:   -0.58 KCAL/MOL
REMARK 927      BINDING AFFINITY PREDICTED BY RF-SCORE:    0.00 PKD
ROOT
HETATM    1  C   UNL     1     -11.476  14.099  66.514  1.00  0.00    -0.368 C  
HETATM    2  C   UNL     1     -10.135  14.694  66.883  1.00  0.00    -0.255 C  
ENDROOT
BRANCH   2   3
HETATM    3  O   UNL     1     -10.241  16.096  66.618  1.00  0.00    -0.271 OA 
BRANCH   3   4
HETATM    4  C   UNL     1     -10.526  16.931  67.641  1.00  0.00    -0.332 C  
HETATM    5  O   UNL     1     -11.316  16.715  68.552  1.00  0.00    -0.317 OA 
BRANCH   4   6
HETATM    6  C   UNL     1      -9.600  18.089  67.594  1.00  0.00    -0.271 C  
HETATM    7  C   UNL     1      -9.708  19.077  66.675  1.00  0.00    -0.341 C  
HETATM    8  C   UNL     1     -10.760  19.221  65.598  1.00  0.00    -0.335 C  
HETATM    9  N   UNL     1      -8.777  20.099  66.661  1.00  0.00    -0.309 NA 
HETATM   10  C   UNL     1      -7.642  20.155  67.446  1.00  0.00    -0.299 C  
HETATM   11  C   UNL     1      -6.716  21.305  67.128  1.00  0.00    -0.363 C  
HETATM   12  C   UNL     1      -7.435  19.225  68.412  1.00  0.00    -0.346 C  
HETATM   13  C   UNL     1      -8.452  18.094  68.636  1.00  0.00    -0.285 C  
BRANCH  12  14
HETATM   14  C   UNL     1      -6.204  19.305  69.245  1.00  0.00    -0.280 C  
HETATM   15  O   UNL     1      -5.151  18.751  68.968  1.00  0.00    -0.187 OA 
BRANCH  14  16
HETATM   16  O   UNL     1      -6.397  20.080  70.341  1.00  0.00    -0.351 OA 
HETATM   17  C   UNL     1      -5.464  19.830  71.402  1.00  0.00    -0.341 C  
ENDBRANCH  14  16
ENDBRANCH  12  14
BRANCH  13  18
HETATM   18  C   UNL     1      -7.820  16.695  68.806  1.00  0.00    -0.238 A  
HETATM   19  C   UNL     1      -8.282  15.903  69.885  1.00  0.00     0.444 A  
HETATM   20  C   UNL     1      -7.876  14.579  70.049  1.00  0.00     0.533 A  
HETATM   21  C   UNL     1      -6.895  16.120  67.911  1.00  0.00    -0.137 A  
HETATM   22  C   UNL     1      -6.495  14.779  68.080  1.00  0.00    -0.153 A  
HETATM   23 CL   UNL     1      -6.268  17.038  66.579  1.00  0.00    -0.242 Cl 
HETATM   24 CL   UNL     1      -5.419  13.981  66.981  1.00  0.00     0.925 Cl 
HETATM   25  C   UNL     1      -6.993  14.014  69.139  1.00  0.00    -0.103 A  
ENDBRANCH  13  18
ENDBRANCH   4   6
ENDBRANCH   3   4
ENDBRANCH   2   3
TORSDOF 6
ENDMDL
MODEL      185
REMARK 921   NORMALIZED FREE ENERGY PREDICTED BY IDOCK:   -2.64 KCAL/MOL
REMARK 922        TOTAL FREE ENERGY PREDICTED BY IDOCK:   -4.78 KCAL/MOL
REMARK 923 INTER-LIGAND FREE ENERGY PREDICTED BY IDOCK:   -4.86 KCAL/MOL
REMARK 924 INTRA-LIGAND FREE ENERGY PREDICTED BY IDOCK:    0.07 KCAL/MOL
REMARK 927      BINDING AFFINITY PREDICTED BY RF-SCORE:    0.00 PKD
ROOT
HETATM    1  C   UNL     1     -11.595  11.311  69.610  1.00  0.00    -0.401 C  
HETATM    2  C   UNL     1     -11.745  12.526  68.721  1.00  0.00    -0.327 C  
ENDROOT
BRANCH   2   3
HETATM    3  O   UNL     1     -11.476  12.076  67.390  1.00  0.00    -0.306 OA 
BRANCH   3   4
HETATM    4  C   UNL     1     -10.921  12.939  66.512  1.00  0.00    -0.275 C  
HETATM    5  O   UNL     1     -10.828  14.152  66.651  1.00  0.00    -0.294 OA 
BRANCH   4   6
HETATM    6  C   UNL     1     -10.274  12.171  65.420  1.00  0.00    -0.299 C  
HETATM    7  C   UNL     1     -10.928  11.809  64.291  1.00  0.00    -0.359 C  
HETATM    8  C   UNL     1     -12.356  12.134  63.911  1.00  0.00    -0.587 C  
HETATM    9  N   UNL     1     -10.274  11.050  63.338  1.00  0.00    -0.355 NA 
HETATM   10  C   UNL     1      -9.012  10.508  63.480  1.00  0.00    -0.221 C  
HETATM   11  C   UNL     1      -8.592   9.595  62.352  1.00  0.00    -0.213 C  
HETATM   12  C   UNL     1      -8.256  10.812  64.565  1.00  0.00     0.092 C  
HETATM   13  C   UNL     1      -8.800  11.752  65.654  1.00  0.00     0.120 C  
BRANCH  12  14
HETATM   14  C   UNL     1      -6.900  10.215  64.695  1.00  0.00    -0.117 C  
HETATM   15  O   UNL     1      -5.958  10.484  63.964  1.00  0.00    -0.127 OA 
BRANCH  14  16
HETATM   16  O   UNL     1      -6.839   9.344  65.733  1.00  0.00    -0.082 OA 
HETATM   17  C   UNL     1      -6.616   7.983  65.339  1.00  0.00    -0.048 C  
ENDBRANCH  14  16
ENDBRANCH  12  14
BRANCH  13  18
HETATM   18  C   UNL     1      -8.561  11.258  67.097  1.00  0.00    -0.147 A  
HETATM   19  C   UNL     1      -9.274  10.107  67.513  1.00  0.00    -0.150 A  
HETATM   20  C   UNL     1      -9.032   9.501  68.746  1.00  0.00    -0.133 A  
HETATM   21  C   UNL     1      -7.618  11.811  67.987  1.00  0.00    -0.116 A  
HETATM   22  C   UNL     1      -7.375  11.188  69.229  1.00  0.00    -0.097 A  
HETATM   23 CL   UNL     1      -6.725  13.234  67.555  1.00  0.00    -0.171 Cl 
HETATM   24 CL   UNL     1      -6.181  11.765  70.344  1.00  0.00    -0.068 Cl 
HETATM   25  C   UNL     1      -8.074  10.034  69.597  1.00  0.00    -0.180 A  
ENDBRANCH  13  18
ENDBRANCH   4   6
ENDBRANCH   3   4
ENDBRANCH   2   3
TORSDOF 6
ENDMDL
MODEL      186
REMARK 921   NORMALIZED FREE ENERGY PREDICTED BY IDOCK:   -2.62 KCAL/MOL
REMARK 922        TOTAL FREE ENERGY PREDICTED BY IDOCK:   -4.77 KCAL/MOL
REMARK 923 INTER-LIGAND FREE ENERGY PREDICTED BY IDOCK:   -4.10 KCAL/MOL
REMARK 924 INTRA-LIGAND FREE ENERGY PREDICTED BY IDOCK:   -0.67 KCAL/MOL
REMARK 927      BINDING AFFINITY PREDICTED BY RF-SCORE:    0.00 PKD
ROOT
HETATM    1  C   UNL     1      -6.214  14.030  70.924  1.00  0.00    -0.053 C  
HETATM    2  C   UNL     1      -5.524  12.683  70.948  1.00  0.00    -0.167 C  
ENDROOT
BRANCH   2   3
HETATM    3  O   UNL     1      -6.449  11.758  70.371  1.00  0.00    -0.184 OA 
BRANCH   3   4
HETATM    4  C   UNL     1      -6.164  10.438  70.420  1.00  0.00    -0.126 C  
HETATM    5  O   UNL     1      -5.797   9.813  71.407  1.00  0.00    -0.120 OA 
BRANCH   4   6
HETATM    6  C   UNL     1      -6.537   9.814  69.126  1.00  0.00    -0.052 C  
HETATM    7  C   UNL     1      -6.134  10.308  67.932  1.00  0.00    -0.051 C  
HETATM    8  C   UNL     1      -5.236  11.500  67.684  1.00  0.00    -0.053 C  
HETATM    9  N   UNL     1      -6.562   9.702  66.765  1.00  0.00    -0.067 NA 
HETATM   10  C   UNL     1      -7.484   8.677  66.691  1.00  0.00    -0.089 C  
HETATM   11  C   UNL     1      -7.888   8.298  65.286  1.00  0.00    -0.120 C  
HETATM   12  C   UNL     1      -7.948   8.093  67.825  1.00  0.00    -0.127 C  
HETATM   13  C   UNL     1      -7.463   8.574  69.203  1.00  0.00    -0.088 C  
BRANCH  12  14
HETATM   14  C   UNL     1      -8.942   6.991  67.719  1.00  0.00    -0.121 C  
HETATM   15  O   UNL     1      -8.670   5.807  67.852  1.00  0.00    -0.105 OA 
BRANCH  14  16
HETATM   16  O   UNL     1     -10.186   7.468  67.469  1.00  0.00    -0.183 OA 
HETATM   17  C   UNL     1     -11.114   6.468  67.024  1.00  0.00    -0.339 C  
ENDBRANCH  14  16
ENDBRANCH  12  14
BRANCH  13  18
HETATM   18  C   UNL     1      -8.589   8.758  70.243  1.00  0.00    -0.158 A  
HETATM   19  C   UNL     1      -9.590   9.716  69.952  1.00  0.00    -0.260 A  
HETATM   20  C   UNL     1     -10.719   9.864  70.758  1.00  0.00    -0.350 A  
HETATM   21  C   UNL     1      -8.740   7.974  71.406  1.00  0.00    -0.136 A  
HETATM   22  C   UNL     1      -9.887   8.126  72.211  1.00  0.00    -0.260 A  
HETATM   23 CL   UNL     1      -7.542   6.797  71.839  1.00  0.00    -0.094 Cl 
HETATM   24 CL   UNL     1     -10.179   7.150  73.613  1.00  0.00    -0.379 Cl 
HETATM   25  C   UNL     1     -10.873   9.061  71.880  1.00  0.00    -0.413 A  
ENDBRANCH  13  18
ENDBRANCH   4   6
ENDBRANCH   3   4
ENDBRANCH   2   3
TORSDOF 6
ENDMDL
MODEL      187
REMARK 921   NORMALIZED FREE ENERGY PREDICTED BY IDOCK:   -2.62 KCAL/MOL
REMARK 922        TOTAL FREE ENERGY PREDICTED BY IDOCK:   -4.76 KCAL/MOL
REMARK 923 INTER-LIGAND FREE ENERGY PREDICTED BY IDOCK:   -4.70 KCAL/MOL
REMARK 924 INTRA-LIGAND FREE ENERGY PREDICTED BY IDOCK:   -0.06 KCAL/MOL
REMARK 927      BINDING AFFINITY PREDICTED BY RF-SCORE:    0.00 PKD
ROOT
HETATM    1  C   UNL     1      -8.770  17.311  69.406  1.00  0.00     0.375 C  
HETATM    2  C   UNL     1     -10.261  17.121  69.582  1.00  0.00     0.027 C  
ENDROOT
BRANCH   2   3
HETATM    3  O   UNL     1     -10.509  15.731  69.360  1.00  0.00    -0.218 OA 
BRANCH   3   4
HETATM    4  C   UNL     1     -11.767  15.334  69.069  1.00  0.00    -0.347 C  
HETATM    5  O   UNL     1     -12.798  15.933  69.348  1.00  0.00     0.164 OA 
BRANCH   4   6
HETATM    6  C   UNL     1     -11.707  14.137  68.193  1.00  0.00    -0.390 C  
HETATM    7  C   UNL     1     -11.745  12.873  68.677  1.00  0.00    -0.324 C  
HETATM    8  C   UNL     1     -11.896  12.443  70.119  1.00  0.00    -0.341 C  
HETATM    9  N   UNL     1     -11.634  11.806  67.803  1.00  0.00    -0.459 NA 
HETATM   10  C   UNL     1     -11.364  11.907  66.453  1.00  0.00    -0.339 C  
HETATM   11  C   UNL     1     -11.146  10.583  65.758  1.00  0.00     0.325 C  
HETATM   12  C   UNL     1     -11.315  13.124  65.855  1.00  0.00    -0.338 C  
HETATM   13  C   UNL     1     -11.549  14.404  66.675  1.00  0.00    -0.396 C  
BRANCH  12  14
HETATM   14  C   UNL     1     -11.021  13.206  64.399  1.00  0.00    -0.390 C  
HETATM   15  O   UNL     1     -11.836  13.540  63.552  1.00  0.00    -0.401 OA 
BRANCH  14  16
HETATM   16  O   UNL     1      -9.733  12.874  64.134  1.00  0.00    -0.103 OA 
HETATM   17  C   UNL     1      -9.590  11.834  63.155  1.00  0.00    -0.236 C  
ENDBRANCH  14  16
ENDBRANCH  12  14
BRANCH  13  18
HETATM   18  C   UNL     1     -10.537  15.534  66.389  1.00  0.00    -0.312 A  
HETATM   19  C   UNL     1     -11.063  16.793  66.006  1.00  0.00     0.285 A  
HETATM   20  C   UNL     1     -10.247  17.913  65.856  1.00  0.00    -0.228 A  
HETATM   21  C   UNL     1      -9.143  15.428  66.576  1.00  0.00    -0.300 A  
HETATM   22  C   UNL     1      -8.326  16.568  66.428  1.00  0.00    -0.322 A  
HETATM   23 CL   UNL     1      -8.425  13.913  67.021  1.00  0.00    -0.192 Cl 
HETATM   24 CL   UNL     1      -6.617  16.533  66.712  1.00  0.00    -0.220 Cl 
HETATM   25  C   UNL     1      -8.881  17.803  66.079  1.00  0.00    -0.022 A  
ENDBRANCH  13  18
ENDBRANCH   4   6
ENDBRANCH   3   4
ENDBRANCH   2   3
TORSDOF 6
ENDMDL
MODEL      188
REMARK 921   NORMALIZED FREE ENERGY PREDICTED BY IDOCK:   -2.61 KCAL/MOL
REMARK 922        TOTAL FREE ENERGY PREDICTED BY IDOCK:   -4.75 KCAL/MOL
REMARK 923 INTER-LIGAND FREE ENERGY PREDICTED BY IDOCK:   -4.11 KCAL/MOL
REMARK 924 INTRA-LIGAND FREE ENERGY PREDICTED BY IDOCK:   -0.64 KCAL/MOL
REMARK 927      BINDING AFFINITY PREDICTED BY RF-SCORE:    0.00 PKD
ROOT
HETATM    1  C   UNL     1     -12.124   9.031  71.864  1.00  0.00    -0.448 C  
HETATM    2  C   UNL     1     -11.749   7.896  70.936  1.00  0.00    -0.257 C  
ENDROOT
BRANCH   2   3
HETATM    3  O   UNL     1     -10.835   8.450  69.986  1.00  0.00    -0.240 OA 
BRANCH   3   4
HETATM    4  C   UNL     1      -9.573   7.970  69.943  1.00  0.00    -0.171 C  
HETATM    5  O   UNL     1      -8.571   8.530  70.370  1.00  0.00    -0.130 OA 
BRANCH   4   6
HETATM    6  C   UNL     1      -9.603   6.570  69.454  1.00  0.00    -0.149 C  
HETATM    7  C   UNL     1      -9.517   5.503  70.284  1.00  0.00    -0.165 C  
HETATM    8  C   UNL     1      -9.424   5.515  71.793  1.00  0.00    -0.175 C  
HETATM    9  N   UNL     1      -9.502   4.226  69.751  1.00  0.00    -0.172 NA 
HETATM   10  C   UNL     1      -9.448   3.924  68.405  1.00  0.00    -0.147 C  
HETATM   11  C   UNL     1      -9.290   2.454  68.099  1.00  0.00    -0.263 C  
HETATM   12  C   UNL     1      -9.541   4.913  67.480  1.00  0.00    -0.179 C  
HETATM   13  C   UNL     1      -9.694   6.378  67.919  1.00  0.00    -0.124 C  
BRANCH  12  14
HETATM   14  C   UNL     1      -9.481   4.562  66.035  1.00  0.00    -0.173 C  
HETATM   15  O   UNL     1     -10.417   4.686  65.259  1.00  0.00    -0.175 OA 
BRANCH  14  16
HETATM   16  O   UNL     1      -8.254   4.100  65.688  1.00  0.00    -0.107 OA 
HETATM   17  C   UNL     1      -8.190   3.562  64.359  1.00  0.00    -0.089 C  
ENDBRANCH  14  16
ENDBRANCH  12  14
BRANCH  13  18
HETATM   18  C   UNL     1      -8.784   7.367  67.159  1.00  0.00    -0.121 A  
HETATM   19  C   UNL     1      -7.425   7.002  66.996  1.00  0.00    -0.094 A  
HETATM   20  C   UNL     1      -6.553   7.758  66.212  1.00  0.00    -0.050 A  
HETATM   21  C   UNL     1      -9.231   8.551  66.536  1.00  0.00    -0.190 A  
HETATM   22  C   UNL     1      -8.344   9.305  65.741  1.00  0.00    -0.123 A  
HETATM   23 CL   UNL     1     -10.876   9.073  66.712  1.00  0.00    -0.092 Cl 
HETATM   24 CL   UNL     1      -8.838  10.729  64.886  1.00  0.00    -0.196 Cl 
HETATM   25  C   UNL     1      -7.015   8.901  65.575  1.00  0.00    -0.080 A  
ENDBRANCH  13  18
ENDBRANCH   4   6
ENDBRANCH   3   4
ENDBRANCH   2   3
TORSDOF 6
ENDMDL
MODEL      189
REMARK 921   NORMALIZED FREE ENERGY PREDICTED BY IDOCK:   -2.57 KCAL/MOL
REMARK 922        TOTAL FREE ENERGY PREDICTED BY IDOCK:   -4.70 KCAL/MOL
REMARK 923 INTER-LIGAND FREE ENERGY PREDICTED BY IDOCK:   -4.30 KCAL/MOL
REMARK 924 INTRA-LIGAND FREE ENERGY PREDICTED BY IDOCK:   -0.40 KCAL/MOL
REMARK 927      BINDING AFFINITY PREDICTED BY RF-SCORE:    0.00 PKD
ROOT
HETATM    1  C   UNL     1      -5.810  10.794  70.769  1.00  0.00    -0.081 C  
HETATM    2  C   UNL     1      -5.833   9.451  71.465  1.00  0.00    -0.068 C  
ENDROOT
BRANCH   2   3
HETATM    3  O   UNL     1      -7.121   9.349  72.078  1.00  0.00    -0.291 OA 
BRANCH   3   4
HETATM    4  C   UNL     1      -7.443   8.209  72.727  1.00  0.00    -0.125 C  
HETATM    5  O   UNL     1      -7.737   8.109  73.911  1.00  0.00    -0.166 OA 
BRANCH   4   6
HETATM    6  C   UNL     1      -7.563   7.107  71.740  1.00  0.00    -0.087 C  
HETATM    7  C   UNL     1      -6.558   6.235  71.489  1.00  0.00    -0.054 C  
HETATM    8  C   UNL     1      -5.202   6.178  72.157  1.00  0.00    -0.022 C  
HETATM    9  N   UNL     1      -6.725   5.264  70.519  1.00  0.00    -0.038 NA 
HETATM   10  C   UNL     1      -7.809   5.163  69.670  1.00  0.00    -0.072 C  
HETATM   11  C   UNL     1      -7.673   4.103  68.603  1.00  0.00    -0.062 C  
HETATM   12  C   UNL     1      -8.883   5.976  69.835  1.00  0.00    -0.138 C  
HETATM   13  C   UNL     1      -8.900   7.025  70.960  1.00  0.00    -0.146 C  
BRANCH  12  14
HETATM   14  C   UNL     1     -10.039   5.849  68.908  1.00  0.00    -0.180 C  
HETATM   15  O   UNL     1     -11.159   5.499  69.250  1.00  0.00    -0.183 OA 
BRANCH  14  16
HETATM   16  O   UNL     1      -9.695   6.180  67.639  1.00  0.00    -0.114 OA 
HETATM   17  C   UNL     1     -10.804   6.228  66.729  1.00  0.00    -0.296 C  
ENDBRANCH  14  16
ENDBRANCH  12  14
BRANCH  13  18
HETATM   18  C   UNL     1      -9.399   8.419  70.520  1.00  0.00    -0.177 A  
HETATM   19  C   UNL     1      -8.737   9.028  69.427  1.00  0.00    -0.142 A  
HETATM   20  C   UNL     1      -9.193  10.222  68.867  1.00  0.00    -0.176 A  
HETATM   21  C   UNL     1     -10.521   9.076  71.065  1.00  0.00    -0.269 A  
HETATM   22  C   UNL     1     -10.979  10.278  70.489  1.00  0.00    -0.270 A  
HETATM   23 CL   UNL     1     -11.367   8.401  72.421  1.00  0.00    -0.450 Cl 
HETATM   24 CL   UNL     1     -12.392  11.106  71.056  1.00  0.00    -0.487 Cl 
HETATM   25  C   UNL     1     -10.321  10.839  69.389  1.00  0.00    -0.207 A  
ENDBRANCH  13  18
ENDBRANCH   4   6
ENDBRANCH   3   4
ENDBRANCH   2   3
TORSDOF 6
ENDMDL
MODEL      190
REMARK 921   NORMALIZED FREE ENERGY PREDICTED BY IDOCK:   -2.57 KCAL/MOL
REMARK 922        TOTAL FREE ENERGY PREDICTED BY IDOCK:   -4.69 KCAL/MOL
REMARK 923 INTER-LIGAND FREE ENERGY PREDICTED BY IDOCK:   -4.78 KCAL/MOL
REMARK 924 INTRA-LIGAND FREE ENERGY PREDICTED BY IDOCK:    0.09 KCAL/MOL
REMARK 927      BINDING AFFINITY PREDICTED BY RF-SCORE:    0.00 PKD
ROOT
HETATM    1  C   UNL     1      -6.479  12.903  67.289  1.00  0.00    -0.035 C  
HETATM    2  C   UNL     1      -5.967  11.960  68.356  1.00  0.00    -0.049 C  
ENDROOT
BRANCH   2   3
HETATM    3  O   UNL     1      -7.126  11.339  68.920  1.00  0.00    -0.087 OA 
BRANCH   3   4
HETATM    4  C   UNL     1      -8.243  11.242  68.166  1.00  0.00    -0.140 C  
HETATM    5  O   UNL     1      -8.288  10.975  66.972  1.00  0.00    -0.129 OA 
BRANCH   4   6
HETATM    6  C   UNL     1      -9.432  11.333  69.048  1.00  0.00    -0.030 C  
HETATM    7  C   UNL     1      -9.941  10.263  69.704  1.00  0.00    -0.207 C  
HETATM    8  C   UNL     1      -9.408   8.848  69.711  1.00  0.00    -0.169 C  
HETATM    9  N   UNL     1     -11.083  10.415  70.470  1.00  0.00    -0.308 NA 
HETATM   10  C   UNL     1     -11.848  11.562  70.543  1.00  0.00    -0.267 C  
HETATM   11  C   UNL     1     -13.126  11.413  71.334  1.00  0.00    -0.377 C  
HETATM   12  C   UNL     1     -11.429  12.701  69.937  1.00  0.00    -0.153 C  
HETATM   13  C   UNL     1     -10.106  12.724  69.152  1.00  0.00     0.309 C  
BRANCH  12  14
HETATM   14  C   UNL     1     -12.271  13.924  70.029  1.00  0.00    -0.344 C  
HETATM   15  O   UNL     1     -12.766  14.491  69.066  1.00  0.00     0.086 OA 
BRANCH  14  16
HETATM   16  O   UNL     1     -12.427  14.322  71.316  1.00  0.00    -0.326 OA 
HETATM   17  C   UNL     1     -11.785  15.568  71.622  1.00  0.00    -0.426 C  
ENDBRANCH  14  16
ENDBRANCH  12  14
BRANCH  13  18
HETATM   18  C   UNL     1     -10.195  13.427  67.780  1.00  0.00    -0.235 A  
HETATM   19  C   UNL     1      -9.438  14.612  67.610  1.00  0.00    -0.205 A  
HETATM   20  C   UNL     1      -9.341  15.249  66.372  1.00  0.00    -0.328 A  
HETATM   21  C   UNL     1     -10.893  12.921  66.664  1.00  0.00    -0.267 A  
HETATM   22  C   UNL     1     -10.784  13.567  65.416  1.00  0.00    -0.304 A  
HETATM   23 CL   UNL     1     -11.859  11.487  66.803  1.00  0.00    -0.010 Cl 
HETATM   24 CL   UNL     1     -11.552  12.965  63.984  1.00  0.00    -0.448 Cl 
HETATM   25  C   UNL     1     -10.004  14.719  65.273  1.00  0.00    -0.331 A  
ENDBRANCH  13  18
ENDBRANCH   4   6
ENDBRANCH   3   4
ENDBRANCH   2   3
TORSDOF 6
ENDMDL
MODEL      191
REMARK 921   NORMALIZED FREE ENERGY PREDICTED BY IDOCK:   -2.56 KCAL/MOL
REMARK 922        TOTAL FREE ENERGY PREDICTED BY IDOCK:   -4.69 KCAL/MOL
REMARK 923 INTER-LIGAND FREE ENERGY PREDICTED BY IDOCK:   -5.31 KCAL/MOL
REMARK 924 INTRA-LIGAND FREE ENERGY PREDICTED BY IDOCK:    0.62 KCAL/MOL
REMARK 927      BINDING AFFINITY PREDICTED BY RF-SCORE:    0.00 PKD
ROOT
HETATM    1  C   UNL     1      -9.014  10.321  63.265  1.00  0.00    -0.253 C  
HETATM    2  C   UNL     1     -10.310  10.997  63.654  1.00  0.00    -0.352 C  
ENDROOT
BRANCH   2   3
HETATM    3  O   UNL     1     -10.093  11.541  64.959  1.00  0.00    -0.246 OA 
BRANCH   3   4
HETATM    4  C   UNL     1     -10.981  11.258  65.936  1.00  0.00    -0.157 C  
HETATM    5  O   UNL     1     -11.345  10.141  66.281  1.00  0.00     0.384 OA 
BRANCH   4   6
HETATM    6  C   UNL     1     -11.320  12.508  66.660  1.00  0.00    -0.389 C  
HETATM    7  C   UNL     1     -11.382  13.714  66.048  1.00  0.00    -0.312 C  
HETATM    8  C   UNL     1     -11.175  14.014  64.580  1.00  0.00    -0.377 C  
HETATM    9  N   UNL     1     -11.656  14.844  66.798  1.00  0.00    -0.315 NA 
HETATM   10  C   UNL     1     -11.764  14.882  68.173  1.00  0.00    -0.318 C  
HETATM   11  C   UNL     1     -11.918  16.268  68.752  1.00  0.00     0.136 C  
HETATM   12  C   UNL     1     -11.731  13.731  68.892  1.00  0.00    -0.374 C  
HETATM   13  C   UNL     1     -11.561  12.376  68.185  1.00  0.00    -0.395 C  
BRANCH  12  14
HETATM   14  C   UNL     1     -11.848  13.797  70.374  1.00  0.00    -0.253 C  
HETATM   15  O   UNL     1     -12.676  13.178  71.025  1.00  0.00    -0.337 OA 
BRANCH  14  16
HETATM   16  O   UNL     1     -10.914  14.622  70.909  1.00  0.00    -0.025 OA 
HETATM   17  C   UNL     1     -11.325  15.251  72.131  1.00  0.00    -0.323 C  
ENDBRANCH  14  16
ENDBRANCH  12  14
BRANCH  13  18
HETATM   18  C   UNL     1     -10.535  11.435  68.853  1.00  0.00    -0.219 A  
HETATM   19  C   UNL     1      -9.167  11.665  68.570  1.00  0.00    -0.163 A  
HETATM   20  C   UNL     1      -8.155  10.961  69.224  1.00  0.00    -0.062 A  
HETATM   21  C   UNL     1     -10.859  10.435  69.793  1.00  0.00    -0.292 A  
HETATM   22  C   UNL     1      -9.830   9.734  70.454  1.00  0.00    -0.209 A  
HETATM   23 CL   UNL     1     -12.515  10.083  70.172  1.00  0.00    -0.094 Cl 
HETATM   24 CL   UNL     1     -10.147   8.544  71.673  1.00  0.00    -0.310 Cl 
HETATM   25  C   UNL     1      -8.487  10.005  70.174  1.00  0.00    -0.054 A  
ENDBRANCH  13  18
ENDBRANCH   4   6
ENDBRANCH   3   4
ENDBRANCH   2   3
TORSDOF 6
ENDMDL
MODEL      192
REMARK 921   NORMALIZED FREE ENERGY PREDICTED BY IDOCK:   -2.55 KCAL/MOL
REMARK 922        TOTAL FREE ENERGY PREDICTED BY IDOCK:   -4.66 KCAL/MOL
REMARK 923 INTER-LIGAND FREE ENERGY PREDICTED BY IDOCK:   -5.01 KCAL/MOL
REMARK 924 INTRA-LIGAND FREE ENERGY PREDICTED BY IDOCK:    0.35 KCAL/MOL
REMARK 927      BINDING AFFINITY PREDICTED BY RF-SCORE:    0.00 PKD
ROOT
HETATM    1  C   UNL     1     -12.678  12.586  63.548  1.00  0.00    -0.366 C  
HETATM    2  C   UNL     1     -11.279  12.009  63.536  1.00  0.00    -0.445 C  
ENDROOT
BRANCH   2   3
HETATM    3  O   UNL     1     -10.430  13.026  64.075  1.00  0.00    -0.418 OA 
BRANCH   3   4
HETATM    4  C   UNL     1      -9.787  12.786  65.239  1.00  0.00    -0.101 C  
HETATM    5  O   UNL     1      -8.677  12.282  65.361  1.00  0.00     0.492 OA 
BRANCH   4   6
HETATM    6  C   UNL     1     -10.556  13.393  66.352  1.00  0.00    -0.285 C  
HETATM    7  C   UNL     1     -10.880  14.707  66.388  1.00  0.00    -0.315 C  
HETATM    8  C   UNL     1     -10.583  15.757  65.341  1.00  0.00    -0.441 C  
HETATM    9  N   UNL     1     -11.557  15.213  67.484  1.00  0.00    -0.304 NA 
HETATM   10  C   UNL     1     -11.844  14.510  68.636  1.00  0.00    -0.320 C  
HETATM   11  C   UNL     1     -12.458  15.339  69.739  1.00  0.00    -0.223 C  
HETATM   12  C   UNL     1     -11.577  13.181  68.711  1.00  0.00    -0.348 C  
HETATM   13  C   UNL     1     -10.941  12.447  67.518  1.00  0.00    -0.293 C  
BRANCH  12  14
HETATM   14  C   UNL     1     -11.895  12.446  69.964  1.00  0.00    -0.288 C  
HETATM   15  O   UNL     1     -11.925  12.960  71.073  1.00  0.00    -0.112 OA 
BRANCH  14  16
HETATM   16  O   UNL     1     -12.159  11.139  69.719  1.00  0.00    -0.315 OA 
HETATM   17  C   UNL     1     -12.240  10.330  70.901  1.00  0.00    -0.365 C  
ENDBRANCH  14  16
ENDBRANCH  12  14
BRANCH  13  18
HETATM   18  C   UNL     1      -9.784  11.500  67.900  1.00  0.00    -0.187 A  
HETATM   19  C   UNL     1      -8.708  12.055  68.636  1.00  0.00    -0.014 A  
HETATM   20  C   UNL     1      -7.681  11.261  69.144  1.00  0.00    -0.047 A  
HETATM   21  C   UNL     1      -9.770  10.111  67.653  1.00  0.00    -0.161 A  
HETATM   22  C   UNL     1      -8.732   9.315  68.177  1.00  0.00    -0.125 A  
HETATM   23 CL   UNL     1     -11.042   9.365  66.739  1.00  0.00     0.179 Cl 
HETATM   24 CL   UNL     1      -8.685   7.594  67.979  1.00  0.00    -0.126 Cl 
HETATM   25  C   UNL     1      -7.699   9.890  68.926  1.00  0.00    -0.085 A  
ENDBRANCH  13  18
ENDBRANCH   4   6
ENDBRANCH   3   4
ENDBRANCH   2   3
TORSDOF 6
ENDMDL
MODEL      193
REMARK 921   NORMALIZED FREE ENERGY PREDICTED BY IDOCK:   -2.51 KCAL/MOL
REMARK 922        TOTAL FREE ENERGY PREDICTED BY IDOCK:   -4.62 KCAL/MOL
REMARK 923 INTER-LIGAND FREE ENERGY PREDICTED BY IDOCK:   -3.32 KCAL/MOL
REMARK 924 INTRA-LIGAND FREE ENERGY PREDICTED BY IDOCK:   -1.30 KCAL/MOL
REMARK 927      BINDING AFFINITY PREDICTED BY RF-SCORE:    0.00 PKD
ROOT
HETATM    1  C   UNL     1     -10.606  11.031  64.122  1.00  0.00    -0.412 C  
HETATM    2  C   UNL     1     -10.190  11.180  65.569  1.00  0.00    -0.263 C  
ENDROOT
BRANCH   2   3
HETATM    3  O   UNL     1      -9.823   9.870  66.010  1.00  0.00    -0.227 OA 
BRANCH   3   4
HETATM    4  C   UNL     1      -8.512   9.565  66.120  1.00  0.00    -0.120 C  
HETATM    5  O   UNL     1      -7.677   9.629  65.226  1.00  0.00    -0.107 OA 
BRANCH   4   6
HETATM    6  C   UNL     1      -8.192   9.309  67.545  1.00  0.00    -0.114 C  
HETATM    7  C   UNL     1      -7.429  10.146  68.287  1.00  0.00    -0.082 C  
HETATM    8  C   UNL     1      -6.819  11.461  67.855  1.00  0.00    -0.072 C  
HETATM    9  N   UNL     1      -7.131   9.816  69.597  1.00  0.00    -0.072 NA 
HETATM   10  C   UNL     1      -7.450   8.621  70.210  1.00  0.00    -0.066 C  
HETATM   11  C   UNL     1      -6.877   8.456  71.597  1.00  0.00    -0.076 C  
HETATM   12  C   UNL     1      -8.224   7.709  69.567  1.00  0.00    -0.129 C  
HETATM   13  C   UNL     1      -8.743   7.991  68.148  1.00  0.00    -0.126 C  
BRANCH  12  14
HETATM   14  C   UNL     1      -8.554   6.429  70.249  1.00  0.00    -0.135 C  
HETATM   15  O   UNL     1      -7.815   5.456  70.276  1.00  0.00    -0.081 OA 
BRANCH  14  16
HETATM   16  O   UNL     1      -9.771   6.482  70.843  1.00  0.00    -0.175 OA 
HETATM   17  C   UNL     1      -9.760   6.104  72.227  1.00  0.00    -0.155 C  
ENDBRANCH  14  16
ENDBRANCH  12  14
BRANCH  13  18
HETATM   18  C   UNL     1      -8.597   6.804  67.171  1.00  0.00    -0.120 A  
HETATM   19  C   UNL     1      -7.282   6.383  66.855  1.00  0.00    -0.074 A  
HETATM   20  C   UNL     1      -7.042   5.241  66.092  1.00  0.00    -0.072 A  
HETATM   21  C   UNL     1      -9.675   6.055  66.654  1.00  0.00    -0.157 A  
HETATM   22  C   UNL     1      -9.422   4.898  65.889  1.00  0.00    -0.164 A  
HETATM   23 CL   UNL     1     -11.312   6.525  66.979  1.00  0.00    -0.291 Cl 
HETATM   24 CL   UNL     1     -10.692   3.887  65.282  1.00  0.00     0.077 Cl 
HETATM   25  C   UNL     1      -8.112   4.492  65.620  1.00  0.00    -0.106 A  
ENDBRANCH  13  18
ENDBRANCH   4   6
ENDBRANCH   3   4
ENDBRANCH   2   3
TORSDOF 6
ENDMDL
MODEL      194
REMARK 921   NORMALIZED FREE ENERGY PREDICTED BY IDOCK:   -2.49 KCAL/MOL
REMARK 922        TOTAL FREE ENERGY PREDICTED BY IDOCK:   -4.58 KCAL/MOL
REMARK 923 INTER-LIGAND FREE ENERGY PREDICTED BY IDOCK:   -4.13 KCAL/MOL
REMARK 924 INTRA-LIGAND FREE ENERGY PREDICTED BY IDOCK:   -0.45 KCAL/MOL
REMARK 927      BINDING AFFINITY PREDICTED BY RF-SCORE:    0.00 PKD
ROOT
HETATM    1  C   UNL     1     -13.015   8.038  71.630  1.00  0.00    -0.351 C  
HETATM    2  C   UNL     1     -12.392   9.396  71.392  1.00  0.00    -0.357 C  
ENDROOT
BRANCH   2   3
HETATM    3  O   UNL     1     -11.580   9.257  70.223  1.00  0.00    -0.225 OA 
BRANCH   3   4
HETATM    4  C   UNL     1     -10.332   8.757  70.355  1.00  0.00    -0.199 C  
HETATM    5  O   UNL     1      -9.658   8.755  71.377  1.00  0.00    -0.215 OA 
BRANCH   4   6
HETATM    6  C   UNL     1      -9.962   8.043  69.108  1.00  0.00    -0.188 C  
HETATM    7  C   UNL     1      -9.990   6.694  69.001  1.00  0.00    -0.153 C  
HETATM    8  C   UNL     1     -10.424   5.696  70.051  1.00  0.00    -0.367 C  
HETATM    9  N   UNL     1      -9.583   6.096  67.822  1.00  0.00    -0.114 NA 
HETATM   10  C   UNL     1      -9.022   6.755  66.746  1.00  0.00    -0.134 C  
HETATM   11  C   UNL     1      -8.527   5.847  65.644  1.00  0.00    -0.153 C  
HETATM   12  C   UNL     1      -8.953   8.110  66.736  1.00  0.00    -0.172 C  
HETATM   13  C   UNL     1      -9.487   8.925  67.925  1.00  0.00    -0.160 C  
BRANCH  12  14
HETATM   14  C   UNL     1      -8.344   8.797  65.565  1.00  0.00    -0.147 C  
HETATM   15  O   UNL     1      -7.154   8.761  65.291  1.00  0.00    -0.081 OA 
BRANCH  14  16
HETATM   16  O   UNL     1      -9.278   9.458  64.837  1.00  0.00    -0.231 OA 
HETATM   17  C   UNL     1      -8.932   9.616  63.453  1.00  0.00    -0.219 C  
ENDBRANCH  14  16
ENDBRANCH  12  14
BRANCH  13  18
HETATM   18  C   UNL     1      -8.548  10.059  68.390  1.00  0.00    -0.113 A  
HETATM   19  C   UNL     1      -8.862  11.374  67.968  1.00  0.00    -0.155 A  
HETATM   20  C   UNL     1      -8.159  12.483  68.440  1.00  0.00    -0.136 A  
HETATM   21  C   UNL     1      -7.466   9.889  69.279  1.00  0.00    -0.096 A  
HETATM   22  C   UNL     1      -6.766  11.016  69.756  1.00  0.00    -0.136 A  
HETATM   23 CL   UNL     1      -7.009   8.306  69.820  1.00  0.00    -0.047 Cl 
HETATM   24 CL   UNL     1      -5.474  10.894  70.905  1.00  0.00    -0.116 Cl 
HETATM   25  C   UNL     1      -7.120  12.304  69.343  1.00  0.00     0.133 A  
ENDBRANCH  13  18
ENDBRANCH   4   6
ENDBRANCH   3   4
ENDBRANCH   2   3
TORSDOF 6
ENDMDL
MODEL      195
REMARK 921   NORMALIZED FREE ENERGY PREDICTED BY IDOCK:   -2.44 KCAL/MOL
REMARK 922        TOTAL FREE ENERGY PREDICTED BY IDOCK:   -4.51 KCAL/MOL
REMARK 923 INTER-LIGAND FREE ENERGY PREDICTED BY IDOCK:   -3.16 KCAL/MOL
REMARK 924 INTRA-LIGAND FREE ENERGY PREDICTED BY IDOCK:   -1.35 KCAL/MOL
REMARK 927      BINDING AFFINITY PREDICTED BY RF-SCORE:    0.00 PKD
ROOT
HETATM    1  C   UNL     1     -10.875   6.125  73.163  1.00  0.00    -0.279 C  
HETATM    2  C   UNL     1     -10.053   7.389  73.297  1.00  0.00    -0.316 C  
ENDROOT
BRANCH   2   3
HETATM    3  O   UNL     1      -9.831   7.856  71.964  1.00  0.00    -0.172 OA 
BRANCH   3   4
HETATM    4  C   UNL     1      -8.563   7.926  71.503  1.00  0.00    -0.121 C  
HETATM    5  O   UNL     1      -7.711   8.735  71.851  1.00  0.00    -0.265 OA 
BRANCH   4   6
HETATM    6  C   UNL     1      -8.297   6.754  70.634  1.00  0.00    -0.129 C  
HETATM    7  C   UNL     1      -7.568   5.689  71.042  1.00  0.00    -0.095 C  
HETATM    8  C   UNL     1      -6.949   5.465  72.404  1.00  0.00    -0.081 C  
HETATM    9  N   UNL     1      -7.319   4.654  70.158  1.00  0.00    -0.050 NA 
HETATM   10  C   UNL     1      -7.655   4.652  68.820  1.00  0.00    -0.068 C  
HETATM   11  C   UNL     1      -7.136   3.463  68.046  1.00  0.00    -0.051 C  
HETATM   12  C   UNL     1      -8.398   5.661  68.300  1.00  0.00    -0.102 C  
HETATM   13  C   UNL     1      -8.863   6.824  69.193  1.00  0.00    -0.134 C  
BRANCH  12  14
HETATM   14  C   UNL     1      -8.747   5.636  66.854  1.00  0.00    -0.113 C  
HETATM   15  O   UNL     1      -9.798   5.199  66.409  1.00  0.00    -0.159 OA 
BRANCH  14  16
HETATM   16  O   UNL     1      -7.758   6.171  66.096  1.00  0.00    -0.095 OA 
HETATM   17  C   UNL     1      -7.430   5.394  64.935  1.00  0.00    -0.070 C  
ENDBRANCH  14  16
ENDBRANCH  12  14
BRANCH  13  18
HETATM   18  C   UNL     1      -8.673   8.222  68.565  1.00  0.00    -0.133 A  
HETATM   19  C   UNL     1      -9.842   8.973  68.290  1.00  0.00    -0.186 A  
HETATM   20  C   UNL     1      -9.777  10.294  67.849  1.00  0.00    -0.165 A  
HETATM   21  C   UNL     1      -7.423   8.836  68.340  1.00  0.00    -0.091 A  
HETATM   22  C   UNL     1      -7.367  10.174  67.900  1.00  0.00    -0.087 A  
HETATM   23 CL   UNL     1      -5.949   7.969  68.632  1.00  0.00    -0.038 Cl 
HETATM   24 CL   UNL     1      -5.872  11.019  67.672  1.00  0.00    -0.043 Cl 
HETATM   25  C   UNL     1      -8.540  10.899  67.667  1.00  0.00    -0.124 A  
ENDBRANCH  13  18
ENDBRANCH   4   6
ENDBRANCH   3   4
ENDBRANCH   2   3
TORSDOF 6
ENDMDL
MODEL      196
REMARK 921   NORMALIZED FREE ENERGY PREDICTED BY IDOCK:   -2.32 KCAL/MOL
REMARK 922        TOTAL FREE ENERGY PREDICTED BY IDOCK:   -4.36 KCAL/MOL
REMARK 923 INTER-LIGAND FREE ENERGY PREDICTED BY IDOCK:   -5.15 KCAL/MOL
REMARK 924 INTRA-LIGAND FREE ENERGY PREDICTED BY IDOCK:    0.79 KCAL/MOL
REMARK 927      BINDING AFFINITY PREDICTED BY RF-SCORE:    0.00 PKD
ROOT
HETATM    1  C   UNL     1      -9.719   3.502  67.387  1.00  0.00    -0.061 C  
HETATM    2  C   UNL     1      -8.462   4.277  67.054  1.00  0.00    -0.104 C  
ENDROOT
BRANCH   2   3
HETATM    3  O   UNL     1      -8.900   5.569  66.624  1.00  0.00    -0.115 OA 
BRANCH   3   4
HETATM    4  C   UNL     1      -8.080   6.627  66.809  1.00  0.00    -0.113 C  
HETATM    5  O   UNL     1      -6.905   6.581  67.150  1.00  0.00    -0.061 OA 
BRANCH   4   6
HETATM    6  C   UNL     1      -8.773   7.860  66.362  1.00  0.00    -0.170 C  
HETATM    7  C   UNL     1      -8.525   8.448  65.168  1.00  0.00    -0.160 C  
HETATM    8  C   UNL     1      -7.580   7.972  64.087  1.00  0.00    -0.122 C  
HETATM    9  N   UNL     1      -9.173   9.625  64.841  1.00  0.00    -0.244 NA 
HETATM   10  C   UNL     1      -9.991  10.347  65.687  1.00  0.00    -0.272 C  
HETATM   11  C   UNL     1     -10.453  11.673  65.131  1.00  0.00    -0.329 C  
HETATM   12  C   UNL     1     -10.321   9.849  66.905  1.00  0.00    -0.300 C  
HETATM   13  C   UNL     1      -9.780   8.484  67.362  1.00  0.00    -0.222 C  
BRANCH  12  14
HETATM   14  C   UNL     1     -11.204  10.646  67.799  1.00  0.00    -0.313 C  
HETATM   15  O   UNL     1     -11.877  11.597  67.430  1.00  0.00    -0.603 OA 
BRANCH  14  16
HETATM   16  O   UNL     1     -11.174  10.177  69.072  1.00  0.00    -0.223 OA 
HETATM   17  C   UNL     1     -11.313  11.197  70.071  1.00  0.00    -0.243 C  
ENDBRANCH  14  16
ENDBRANCH  12  14
BRANCH  13  18
HETATM   18  C   UNL     1      -9.244   8.466  68.809  1.00  0.00    -0.143 A  
HETATM   19  C   UNL     1      -8.088   9.238  69.082  1.00  0.00    -0.106 A  
HETATM   20  C   UNL     1      -7.602   9.397  70.379  1.00  0.00    -0.152 A  
HETATM   21  C   UNL     1      -9.877   7.817  69.890  1.00  0.00    -0.177 A  
HETATM   22  C   UNL     1      -9.383   7.989  71.199  1.00  0.00    -0.149 A  
HETATM   23 CL   UNL     1     -11.282   6.835  69.629  1.00  0.00    -0.348 Cl 
HETATM   24 CL   UNL     1     -10.148   7.284  72.585  1.00  0.00    -0.214 Cl 
HETATM   25  C   UNL     1      -8.257   8.783  71.439  1.00  0.00    -0.203 A  
ENDBRANCH  13  18
ENDBRANCH   4   6
ENDBRANCH   3   4
ENDBRANCH   2   3
TORSDOF 6
ENDMDL
MODEL      197
REMARK 921   NORMALIZED FREE ENERGY PREDICTED BY IDOCK:   -2.31 KCAL/MOL
REMARK 922        TOTAL FREE ENERGY PREDICTED BY IDOCK:   -4.35 KCAL/MOL
REMARK 923 INTER-LIGAND FREE ENERGY PREDICTED BY IDOCK:   -5.50 KCAL/MOL
REMARK 924 INTRA-LIGAND FREE ENERGY PREDICTED BY IDOCK:    1.15 KCAL/MOL
REMARK 927      BINDING AFFINITY PREDICTED BY RF-SCORE:    0.00 PKD
ROOT
HETATM    1  C   UNL     1     -10.582  17.680  66.454  1.00  0.00    -0.208 C  
HETATM    2  C   UNL     1      -9.561  16.733  65.863  1.00  0.00    -0.178 C  
ENDROOT
BRANCH   2   3
HETATM    3  O   UNL     1     -10.025  15.415  66.168  1.00  0.00    -0.267 OA 
BRANCH   3   4
HETATM    4  C   UNL     1      -9.342  14.679  67.071  1.00  0.00    -0.232 C  
HETATM    5  O   UNL     1      -8.130  14.510  67.098  1.00  0.00    -0.202 OA 
BRANCH   4   6
HETATM    6  C   UNL     1     -10.271  14.244  68.143  1.00  0.00    -0.231 C  
HETATM    7  C   UNL     1     -10.617  15.042  69.181  1.00  0.00    -0.251 C  
HETATM    8  C   UNL     1     -10.191  16.473  69.424  1.00  0.00    -0.264 C  
HETATM    9  N   UNL     1     -11.449  14.550  70.170  1.00  0.00    -0.261 NA 
HETATM   10  C   UNL     1     -11.886  13.244  70.268  1.00  0.00    -0.234 C  
HETATM   11  C   UNL     1     -12.662  12.936  71.526  1.00  0.00    -0.339 C  
HETATM   12  C   UNL     1     -11.611  12.356  69.279  1.00  0.00    -0.379 C  
HETATM   13  C   UNL     1     -10.802  12.791  68.046  1.00  0.00    -0.254 C  
BRANCH  12  14
HETATM   14  C   UNL     1     -12.092  10.954  69.408  1.00  0.00    -0.290 C  
HETATM   15  O   UNL     1     -11.502   9.982  68.959  1.00  0.00    -0.142 OA 
BRANCH  14  16
HETATM   16  O   UNL     1     -13.260  10.892  70.094  1.00  0.00    -0.014 OA 
HETATM   17  C   UNL     1     -13.231   9.990  71.210  1.00  0.00    -0.383 C  
ENDBRANCH  14  16
ENDBRANCH  12  14
BRANCH  13  18
HETATM   18  C   UNL     1      -9.696  11.798  67.630  1.00  0.00    -0.186 A  
HETATM   19  C   UNL     1      -8.716  11.477  68.601  1.00  0.00    -0.103 A  
HETATM   20  C   UNL     1      -7.754  10.492  68.374  1.00  0.00    -0.104 A  
HETATM   21  C   UNL     1      -9.650  11.120  66.394  1.00  0.00    -0.200 A  
HETATM   22  C   UNL     1      -8.679  10.122  66.175  1.00  0.00    -0.142 A  
HETATM   23 CL   UNL     1     -10.803  11.479  65.148  1.00  0.00    -0.343 Cl 
HETATM   24 CL   UNL     1      -8.605   9.197  64.712  1.00  0.00    -0.196 Cl 
HETATM   25  C   UNL     1      -7.744   9.807  67.167  1.00  0.00    -0.095 A  
ENDBRANCH  13  18
ENDBRANCH   4   6
ENDBRANCH   3   4
ENDBRANCH   2   3
TORSDOF 6
ENDMDL
MODEL      198
REMARK 921   NORMALIZED FREE ENERGY PREDICTED BY IDOCK:   -2.27 KCAL/MOL
REMARK 922        TOTAL FREE ENERGY PREDICTED BY IDOCK:   -4.28 KCAL/MOL
REMARK 923 INTER-LIGAND FREE ENERGY PREDICTED BY IDOCK:   -5.03 KCAL/MOL
REMARK 924 INTRA-LIGAND FREE ENERGY PREDICTED BY IDOCK:    0.75 KCAL/MOL
REMARK 927      BINDING AFFINITY PREDICTED BY RF-SCORE:    0.00 PKD
ROOT
HETATM    1  C   UNL     1      -7.218   8.226  64.363  1.00  0.00    -0.088 C  
HETATM    2  C   UNL     1      -8.265   8.886  65.234  1.00  0.00    -0.137 C  
ENDROOT
BRANCH   2   3
HETATM    3  O   UNL     1      -8.634   7.912  66.213  1.00  0.00    -0.133 OA 
BRANCH   3   4
HETATM    4  C   UNL     1      -8.109   8.007  67.454  1.00  0.00    -0.122 C  
HETATM    5  O   UNL     1      -6.970   8.361  67.732  1.00  0.00    -0.072 OA 
BRANCH   4   6
HETATM    6  C   UNL     1      -9.183   7.787  68.453  1.00  0.00    -0.137 C  
HETATM    7  C   UNL     1      -9.740   6.572  68.674  1.00  0.00    -0.127 C  
HETATM    8  C   UNL     1      -9.372   5.258  68.022  1.00  0.00    -0.135 C  
HETATM    9  N   UNL     1     -10.772   6.453  69.587  1.00  0.00    -0.250 NA 
HETATM   10  C   UNL     1     -11.391   7.504  70.233  1.00  0.00    -0.199 C  
HETATM   11  C   UNL     1     -12.590   7.111  71.064  1.00  0.00    -0.335 C  
HETATM   12  C   UNL     1     -10.911   8.766  70.098  1.00  0.00    -0.241 C  
HETATM   13  C   UNL     1      -9.682   9.041  69.215  1.00  0.00    -0.168 C  
BRANCH  12  14
HETATM   14  C   UNL     1     -11.595   9.883  70.803  1.00  0.00    -0.349 C  
HETATM   15  O   UNL     1     -12.428   9.730  71.685  1.00  0.00    -0.358 OA 
BRANCH  14  16
HETATM   16  O   UNL     1     -11.169  11.089  70.353  1.00  0.00    -0.232 OA 
HETATM   17  C   UNL     1     -12.134  12.140  70.503  1.00  0.00    -0.293 C  
ENDBRANCH  14  16
ENDBRANCH  12  14
BRANCH  13  18
HETATM   18  C   UNL     1      -9.830  10.262  68.282  1.00  0.00    -0.161 A  
HETATM   19  C   UNL     1     -10.983  10.312  67.460  1.00  0.00    -0.344 A  
HETATM   20  C   UNL     1     -11.280  11.431  66.682  1.00  0.00    -0.298 A  
HETATM   21  C   UNL     1      -8.955  11.368  68.264  1.00  0.00    -0.175 A  
HETATM   22  C   UNL     1      -9.267  12.497  67.480  1.00  0.00    -0.188 A  
HETATM   23 CL   UNL     1      -7.512  11.367  69.226  1.00  0.00    -0.058 Cl 
HETATM   24 CL   UNL     1      -8.280  13.922  67.462  1.00  0.00    -0.180 Cl 
HETATM   25  C   UNL     1     -10.429  12.528  66.702  1.00  0.00    -0.252 A  
ENDBRANCH  13  18
ENDBRANCH   4   6
ENDBRANCH   3   4
ENDBRANCH   2   3
TORSDOF 6
ENDMDL
MODEL      199
REMARK 921   NORMALIZED FREE ENERGY PREDICTED BY IDOCK:   -2.20 KCAL/MOL
REMARK 922        TOTAL FREE ENERGY PREDICTED BY IDOCK:   -4.19 KCAL/MOL
REMARK 923 INTER-LIGAND FREE ENERGY PREDICTED BY IDOCK:   -3.63 KCAL/MOL
REMARK 924 INTRA-LIGAND FREE ENERGY PREDICTED BY IDOCK:   -0.56 KCAL/MOL
REMARK 927      BINDING AFFINITY PREDICTED BY RF-SCORE:    0.00 PKD
ROOT
HETATM    1  C   UNL     1     -10.001   9.850  65.646  1.00  0.00    -0.353 C  
HETATM    2  C   UNL     1      -8.790   8.959  65.468  1.00  0.00    -0.197 C  
ENDROOT
BRANCH   2   3
HETATM    3  O   UNL     1      -8.774   8.087  66.601  1.00  0.00    -0.129 OA 
BRANCH   3   4
HETATM    4  C   UNL     1      -7.826   8.268  67.547  1.00  0.00    -0.106 C  
HETATM    5  O   UNL     1      -7.537   9.329  68.088  1.00  0.00    -0.083 OA 
BRANCH   4   6
HETATM    6  C   UNL     1      -7.302   6.946  67.967  1.00  0.00    -0.097 C  
HETATM    7  C   UNL     1      -6.578   6.150  67.146  1.00  0.00    -0.055 C  
HETATM    8  C   UNL     1      -6.139   6.446  65.729  1.00  0.00    -0.030 C  
HETATM    9  N   UNL     1      -6.166   4.907  67.591  1.00  0.00    -0.037 NA 
HETATM   10  C   UNL     1      -6.528   4.329  68.791  1.00  0.00    -0.037 C  
HETATM   11  C   UNL     1      -6.062   2.904  68.967  1.00  0.00    -0.025 C  
HETATM   12  C   UNL     1      -7.243   5.038  69.702  1.00  0.00    -0.056 C  
HETATM   13  C   UNL     1      -7.667   6.486  69.402  1.00  0.00    -0.101 C  
BRANCH  12  14
HETATM   14  C   UNL     1      -7.623   4.394  70.987  1.00  0.00    -0.063 C  
HETATM   15  O   UNL     1      -6.835   4.136  71.885  1.00  0.00    -0.031 OA 
BRANCH  14  16
HETATM   16  O   UNL     1      -8.954   4.140  71.041  1.00  0.00    -0.100 OA 
HETATM   17  C   UNL     1      -9.309   2.811  70.631  1.00  0.00    -0.148 C  
ENDBRANCH  14  16
ENDBRANCH  12  14
BRANCH  13  18
HETATM   18  C   UNL     1      -9.136   6.803  69.755  1.00  0.00    -0.143 A  
HETATM   19  C   UNL     1     -10.139   6.138  69.009  1.00  0.00    -0.213 A  
HETATM   20  C   UNL     1     -11.491   6.251  69.334  1.00  0.00    -0.348 A  
HETATM   21  C   UNL     1      -9.543   7.628  70.824  1.00  0.00    -0.166 A  
HETATM   22  C   UNL     1     -10.911   7.730  71.150  1.00  0.00    -0.235 A  
HETATM   23 CL   UNL     1      -8.372   8.492  71.767  1.00  0.00    -0.210 Cl 
HETATM   24 CL   UNL     1     -11.482   8.664  72.494  1.00  0.00    -0.373 Cl 
HETATM   25  C   UNL     1     -11.875   7.036  70.412  1.00  0.00    -0.295 A  
ENDBRANCH  13  18
ENDBRANCH   4   6
ENDBRANCH   3   4
ENDBRANCH   2   3
TORSDOF 6
ENDMDL
MODEL      200
REMARK 921   NORMALIZED FREE ENERGY PREDICTED BY IDOCK:   -2.11 KCAL/MOL
REMARK 922        TOTAL FREE ENERGY PREDICTED BY IDOCK:   -4.07 KCAL/MOL
REMARK 923 INTER-LIGAND FREE ENERGY PREDICTED BY IDOCK:   -3.07 KCAL/MOL
REMARK 924 INTRA-LIGAND FREE ENERGY PREDICTED BY IDOCK:   -1.00 KCAL/MOL
REMARK 927      BINDING AFFINITY PREDICTED BY RF-SCORE:    0.00 PKD
ROOT
HETATM    1  C   UNL     1      -9.841   9.853  65.366  1.00  0.00    -0.384 C  
HETATM    2  C   UNL     1      -8.738   8.931  64.894  1.00  0.00    -0.149 C  
ENDROOT
BRANCH   2   3
HETATM    3  O   UNL     1      -8.815   7.769  65.725  1.00  0.00    -0.160 OA 
BRANCH   3   4
HETATM    4  C   UNL     1      -7.667   7.193  66.143  1.00  0.00    -0.098 C  
HETATM    5  O   UNL     1      -6.668   7.777  66.544  1.00  0.00    -0.059 OA 
BRANCH   4   6
HETATM    6  C   UNL     1      -7.861   5.724  66.215  1.00  0.00    -0.101 C  
HETATM    7  C   UNL     1      -8.200   4.976  65.139  1.00  0.00    -0.131 C  
HETATM    8  C   UNL     1      -8.394   5.447  63.715  1.00  0.00    -0.102 C  
HETATM    9  N   UNL     1      -8.412   3.618  65.292  1.00  0.00    -0.105 NA 
HETATM   10  C   UNL     1      -8.426   2.944  66.498  1.00  0.00    -0.101 C  
HETATM   11  C   UNL     1      -8.831   1.492  66.399  1.00  0.00    -0.117 C  
HETATM   12  C   UNL     1      -8.089   3.589  67.643  1.00  0.00    -0.081 C  
HETATM   13  C   UNL     1      -7.700   5.076  67.614  1.00  0.00    -0.087 C  
BRANCH  12  14
HETATM   14  C   UNL     1      -8.112   2.842  68.930  1.00  0.00    -0.055 C  
HETATM   15  O   UNL     1      -7.139   2.286  69.418  1.00  0.00    -0.039 OA 
BRANCH  14  16
HETATM   16  O   UNL     1      -9.344   2.866  69.495  1.00  0.00    -0.137 OA 
HETATM   17  C   UNL     1      -9.328   2.805  70.929  1.00  0.00    -0.149 C  
ENDBRANCH  14  16
ENDBRANCH  12  14
BRANCH  13  18
HETATM   18  C   UNL     1      -8.357   5.926  68.723  1.00  0.00    -0.105 A  
HETATM   19  C   UNL     1      -9.769   6.042  68.699  1.00  0.00    -0.149 A  
HETATM   20  C   UNL     1     -10.470   6.673  69.726  1.00  0.00    -0.248 A  
HETATM   21  C   UNL     1      -7.664   6.507  69.805  1.00  0.00    -0.113 A  
HETATM   22  C   UNL     1      -8.381   7.137  70.842  1.00  0.00    -0.121 A  
HETATM   23 CL   UNL     1      -5.933   6.425  69.889  1.00  0.00    -0.021 Cl 
HETATM   24 CL   UNL     1      -7.605   7.809  72.238  1.00  0.00    -0.088 Cl 
HETATM   25  C   UNL     1      -9.777   7.209  70.803  1.00  0.00    -0.171 A  
ENDBRANCH  13  18
ENDBRANCH   4   6
ENDBRANCH   3   4
ENDBRANCH   2   3
TORSDOF 6
ENDMDL
MODEL      201
REMARK 921   NORMALIZED FREE ENERGY PREDICTED BY IDOCK:   -2.07 KCAL/MOL
REMARK 922        TOTAL FREE ENERGY PREDICTED BY IDOCK:   -4.01 KCAL/MOL
REMARK 923 INTER-LIGAND FREE ENERGY PREDICTED BY IDOCK:   -3.90 KCAL/MOL
REMARK 924 INTRA-LIGAND FREE ENERGY PREDICTED BY IDOCK:   -0.12 KCAL/MOL
REMARK 927      BINDING AFFINITY PREDICTED BY RF-SCORE:    0.00 PKD
ROOT
HETATM    1  C   UNL     1      -5.776  17.503  66.296  1.00  0.00    -0.243 C  
HETATM    2  C   UNL     1      -5.682  16.226  67.103  1.00  0.00    -0.050 C  
ENDROOT
BRANCH   2   3
HETATM    3  O   UNL     1      -6.712  15.369  66.603  1.00  0.00     0.060 OA 
BRANCH   3   4
HETATM    4  C   UNL     1      -6.915  14.178  67.207  1.00  0.00     0.138 C  
HETATM    5  O   UNL     1      -6.060  13.335  67.450  1.00  0.00    -0.298 OA 
BRANCH   4   6
HETATM    6  C   UNL     1      -8.313  14.115  67.698  1.00  0.00    -0.187 C  
HETATM    7  C   UNL     1      -8.752  14.842  68.753  1.00  0.00    -0.178 C  
HETATM    8  C   UNL     1      -7.967  15.842  69.572  1.00  0.00    -0.098 C  
HETATM    9  N   UNL     1     -10.058  14.694  69.186  1.00  0.00    -0.207 NA 
HETATM   10  C   UNL     1     -10.956  13.763  68.705  1.00  0.00    -0.266 C  
HETATM   11  C   UNL     1     -12.268  13.713  69.453  1.00  0.00    -0.307 C  
HETATM   12  C   UNL     1     -10.632  12.988  67.639  1.00  0.00    -0.232 C  
HETATM   13  C   UNL     1      -9.257  13.129  66.965  1.00  0.00    -0.233 C  
BRANCH  12  14
HETATM   14  C   UNL     1     -11.617  11.992  67.139  1.00  0.00    -0.316 C  
HETATM   15  O   UNL     1     -12.249  12.113  66.100  1.00  0.00    -0.611 OA 
BRANCH  14  16
HETATM   16  O   UNL     1     -11.715  10.929  67.975  1.00  0.00    -0.540 OA 
HETATM   17  C   UNL     1     -11.091   9.737  67.478  1.00  0.00    -0.018 C  
ENDBRANCH  14  16
ENDBRANCH  12  14
BRANCH  13  18
HETATM   18  C   UNL     1      -8.561  11.786  66.656  1.00  0.00    -0.170 A  
HETATM   19  C   UNL     1      -8.465  11.404  65.295  1.00  0.00     0.285 A  
HETATM   20  C   UNL     1      -7.741  10.280  64.899  1.00  0.00    -0.124 A  
HETATM   21  C   UNL     1      -7.932  10.969  67.618  1.00  0.00    -0.115 A  
HETATM   22  C   UNL     1      -7.197   9.838  67.208  1.00  0.00    -0.086 A  
HETATM   23 CL   UNL     1      -8.027  11.361  69.305  1.00  0.00     0.051 Cl 
HETATM   24 CL   UNL     1      -6.338   8.829  68.324  1.00  0.00    -0.054 Cl 
HETATM   25  C   UNL     1      -7.096   9.505  65.853  1.00  0.00    -0.096 A  
ENDBRANCH  13  18
ENDBRANCH   4   6
ENDBRANCH   3   4
ENDBRANCH   2   3
TORSDOF 6
ENDMDL
MODEL      202
REMARK 921   NORMALIZED FREE ENERGY PREDICTED BY IDOCK:   -1.79 KCAL/MOL
REMARK 922        TOTAL FREE ENERGY PREDICTED BY IDOCK:   -3.64 KCAL/MOL
REMARK 923 INTER-LIGAND FREE ENERGY PREDICTED BY IDOCK:   -4.21 KCAL/MOL
REMARK 924 INTRA-LIGAND FREE ENERGY PREDICTED BY IDOCK:    0.56 KCAL/MOL
REMARK 927      BINDING AFFINITY PREDICTED BY RF-SCORE:    0.00 PKD
ROOT
HETATM    1  C   UNL     1     -10.938  16.481  69.377  1.00  0.00    -0.288 C  
HETATM    2  C   UNL     1     -11.540  15.565  70.421  1.00  0.00    -0.337 C  
ENDROOT
BRANCH   2   3
HETATM    3  O   UNL     1     -11.207  14.235  70.015  1.00  0.00    -0.206 OA 
BRANCH   3   4
HETATM    4  C   UNL     1     -12.095  13.542  69.270  1.00  0.00    -0.288 C  
HETATM    5  O   UNL     1     -12.767  13.986  68.347  1.00  0.00     0.326 OA 
BRANCH   4   6
HETATM    6  C   UNL     1     -12.006  12.103  69.622  1.00  0.00    -0.351 C  
HETATM    7  C   UNL     1     -12.420  11.614  70.815  1.00  0.00    -0.330 C  
HETATM    8  C   UNL     1     -13.064  12.379  71.950  1.00  0.00    -0.471 C  
HETATM    9  N   UNL     1     -12.259  10.269  71.092  1.00  0.00    -0.364 NA 
HETATM   10  C   UNL     1     -11.591   9.364  70.291  1.00  0.00    -0.138 C  
HETATM   11  C   UNL     1     -11.430   7.990  70.897  1.00  0.00    -0.291 C  
HETATM   12  C   UNL     1     -11.143   9.738  69.066  1.00  0.00    -0.143 C  
HETATM   13  C   UNL     1     -11.363  11.174  68.561  1.00  0.00    -0.348 C  
BRANCH  12  14
HETATM   14  C   UNL     1     -10.426   8.746  68.221  1.00  0.00    -0.187 C  
HETATM   15  O   UNL     1     -10.775   8.421  67.096  1.00  0.00    -0.291 OA 
BRANCH  14  16
HETATM   16  O   UNL     1      -9.330   8.257  68.854  1.00  0.00    -0.147 OA 
HETATM   17  C   UNL     1      -8.761   7.100  68.222  1.00  0.00    -0.128 C  
ENDBRANCH  14  16
ENDBRANCH  12  14
BRANCH  13  18
HETATM   18  C   UNL     1     -10.119  11.815  67.909  1.00  0.00    -0.195 A  
HETATM   19  C   UNL     1     -10.329  12.601  66.749  1.00  0.00    -0.246 A  
HETATM   20  C   UNL     1      -9.296  13.331  66.162  1.00  0.00    -0.081 A  
HETATM   21  C   UNL     1      -8.814  11.754  68.441  1.00  0.00    -0.161 A  
HETATM   22  C   UNL     1      -7.778  12.501  67.845  1.00  0.00    -0.138 A  
HETATM   23 CL   UNL     1      -8.478  10.794  69.845  1.00  0.00     0.352 Cl 
HETATM   24 CL   UNL     1      -6.167  12.534  68.483  1.00  0.00    -0.059 Cl 
HETATM   25  C   UNL     1      -8.024  13.291  66.717  1.00  0.00     0.303 A  
ENDBRANCH  13  18
ENDBRANCH   4   6
ENDBRANCH   3   4
ENDBRANCH   2   3
TORSDOF 6
ENDMDL
MODEL      203
REMARK 921   NORMALIZED FREE ENERGY PREDICTED BY IDOCK:   -1.78 KCAL/MOL
REMARK 922        TOTAL FREE ENERGY PREDICTED BY IDOCK:   -3.62 KCAL/MOL
REMARK 923 INTER-LIGAND FREE ENERGY PREDICTED BY IDOCK:   -3.55 KCAL/MOL
REMARK 924 INTRA-LIGAND FREE ENERGY PREDICTED BY IDOCK:   -0.07 KCAL/MOL
REMARK 927      BINDING AFFINITY PREDICTED BY RF-SCORE:    0.00 PKD
ROOT
HETATM    1  C   UNL     1      -6.539   9.900  69.211  1.00  0.00    -0.049 C  
HETATM    2  C   UNL     1      -7.819   9.295  69.745  1.00  0.00    -0.100 C  
ENDROOT
BRANCH   2   3
HETATM    3  O   UNL     1      -8.283   8.398  68.732  1.00  0.00    -0.116 OA 
BRANCH   3   4
HETATM    4  C   UNL     1      -9.597   8.090  68.689  1.00  0.00    -0.148 C  
HETATM    5  O   UNL     1     -10.358   8.294  67.751  1.00  0.00    -0.216 OA 
BRANCH   4   6
HETATM    6  C   UNL     1      -9.949   7.298  69.894  1.00  0.00    -0.183 C  
HETATM    7  C   UNL     1     -10.543   7.844  70.981  1.00  0.00    -0.213 C  
HETATM    8  C   UNL     1     -10.987   9.278  71.166  1.00  0.00    -0.409 C  
HETATM    9  N   UNL     1     -10.796   7.053  72.088  1.00  0.00    -0.219 NA 
HETATM   10  C   UNL     1     -10.385   5.744  72.242  1.00  0.00    -0.202 C  
HETATM   11  C   UNL     1     -10.661   5.158  73.607  1.00  0.00    -0.345 C  
HETATM   12  C   UNL     1      -9.791   5.089  71.213  1.00  0.00    -0.246 C  
HETATM   13  C   UNL     1      -9.558   5.799  69.869  1.00  0.00    -0.201 C  
BRANCH  12  14
HETATM   14  C   UNL     1      -9.357   3.679  71.404  1.00  0.00    -0.141 C  
HETATM   15  O   UNL     1      -8.846   3.251  72.429  1.00  0.00    -0.083 OA 
BRANCH  14  16
HETATM   16  O   UNL     1      -9.609   2.928  70.303  1.00  0.00    -0.148 OA 
HETATM   17  C   UNL     1      -8.592   1.959  70.014  1.00  0.00    -0.051 C  
ENDBRANCH  14  16
ENDBRANCH  12  14
BRANCH  13  18
HETATM   18  C   UNL     1      -8.152   5.579  69.270  1.00  0.00    -0.095 A  
HETATM   19  C   UNL     1      -7.046   5.725  70.143  1.00  0.00    -0.067 A  
HETATM   20  C   UNL     1      -5.747   5.418  69.738  1.00  0.00    -0.016 A  
HETATM   21  C   UNL     1      -7.902   5.149  67.950  1.00  0.00    -0.091 A  
HETATM   22  C   UNL     1      -6.587   4.834  67.552  1.00  0.00    -0.047 A  
HETATM   23 CL   UNL     1      -9.204   4.970  66.819  1.00  0.00    -0.117 Cl 
HETATM   24 CL   UNL     1      -6.210   4.232  65.971  1.00  0.00    -0.031 Cl 
HETATM   25  C   UNL     1      -5.520   4.961  68.447  1.00  0.00    -0.015 A  
ENDBRANCH  13  18
ENDBRANCH   4   6
ENDBRANCH   3   4
ENDBRANCH   2   3
TORSDOF 6
ENDMDL
MODEL      204
REMARK 921   NORMALIZED FREE ENERGY PREDICTED BY IDOCK:   -1.71 KCAL/MOL
REMARK 922        TOTAL FREE ENERGY PREDICTED BY IDOCK:   -3.53 KCAL/MOL
REMARK 923 INTER-LIGAND FREE ENERGY PREDICTED BY IDOCK:   -3.61 KCAL/MOL
REMARK 924 INTRA-LIGAND FREE ENERGY PREDICTED BY IDOCK:    0.08 KCAL/MOL
REMARK 927      BINDING AFFINITY PREDICTED BY RF-SCORE:    0.00 PKD
ROOT
HETATM    1  C   UNL     1     -11.955   9.217  72.004  1.00  0.00    -0.391 C  
HETATM    2  C   UNL     1     -11.457   8.736  70.658  1.00  0.00    -0.231 C  
ENDROOT
BRANCH   2   3
HETATM    3  O   UNL     1     -10.680   7.565  70.922  1.00  0.00    -0.229 OA 
BRANCH   3   4
HETATM    4  C   UNL     1     -10.961   6.432  70.244  1.00  0.00    -0.318 C  
HETATM    5  O   UNL     1     -11.782   6.313  69.343  1.00  0.00    -0.319 OA 
BRANCH   4   6
HETATM    6  C   UNL     1      -9.990   5.380  70.634  1.00  0.00    -0.280 C  
HETATM    7  C   UNL     1      -9.941   4.854  71.881  1.00  0.00    -0.190 C  
HETATM    8  C   UNL     1     -10.842   5.178  73.052  1.00  0.00    -0.336 C  
HETATM    9  N   UNL     1      -8.975   3.912  72.185  1.00  0.00    -0.111 NA 
HETATM   10  C   UNL     1      -7.948   3.524  71.348  1.00  0.00    -0.060 C  
HETATM   11  C   UNL     1      -6.944   2.590  71.980  1.00  0.00    -0.026 C  
HETATM   12  C   UNL     1      -7.902   3.976  70.069  1.00  0.00    -0.051 C  
HETATM   13  C   UNL     1      -8.985   4.933  69.542  1.00  0.00    -0.130 C  
BRANCH  12  14
HETATM   14  C   UNL     1      -6.785   3.544  69.187  1.00  0.00    -0.037 C  
HETATM   15  O   UNL     1      -6.777   2.500  68.551  1.00  0.00    -0.035 OA 
BRANCH  14  16
HETATM   16  O   UNL     1      -5.785   4.459  69.169  1.00  0.00    -0.016 OA 
HETATM   17  C   UNL     1      -5.394   4.919  70.471  1.00  0.00    -0.004 C  
ENDBRANCH  14  16
ENDBRANCH  12  14
BRANCH  13  18
HETATM   18  C   UNL     1      -8.436   6.130  68.737  1.00  0.00    -0.118 A  
HETATM   19  C   UNL     1      -7.657   7.081  69.440  1.00  0.00    -0.099 A  
HETATM   20  C   UNL     1      -7.005   8.124  68.783  1.00  0.00    -0.067 A  
HETATM   21  C   UNL     1      -8.574   6.288  67.342  1.00  0.00    -0.107 A  
HETATM   22  C   UNL     1      -7.906   7.341  66.685  1.00  0.00    -0.102 A  
HETATM   23 CL   UNL     1      -9.533   5.176  66.418  1.00  0.00    -0.146 Cl 
HETATM   24 CL   UNL     1      -7.968   7.557  64.967  1.00  0.00    -0.127 Cl 
HETATM   25  C   UNL     1      -7.119   8.246  67.405  1.00  0.00    -0.080 A  
ENDBRANCH  13  18
ENDBRANCH   4   6
ENDBRANCH   3   4
ENDBRANCH   2   3
TORSDOF 6
ENDMDL
MODEL      205
REMARK 921   NORMALIZED FREE ENERGY PREDICTED BY IDOCK:   -1.54 KCAL/MOL
REMARK 922        TOTAL FREE ENERGY PREDICTED BY IDOCK:   -3.30 KCAL/MOL
REMARK 923 INTER-LIGAND FREE ENERGY PREDICTED BY IDOCK:   -3.58 KCAL/MOL
REMARK 924 INTRA-LIGAND FREE ENERGY PREDICTED BY IDOCK:    0.27 KCAL/MOL
REMARK 927      BINDING AFFINITY PREDICTED BY RF-SCORE:    0.00 PKD
ROOT
HETATM    1  C   UNL     1     -13.047   8.089  71.672  1.00  0.00    -0.354 C  
HETATM    2  C   UNL     1     -12.566   9.519  71.556  1.00  0.00    -0.373 C  
ENDROOT
BRANCH   2   3
HETATM    3  O   UNL     1     -11.709   9.553  70.411  1.00  0.00    -0.247 OA 
BRANCH   3   4
HETATM    4  C   UNL     1     -10.380   9.393  70.590  1.00  0.00    -0.284 C  
HETATM    5  O   UNL     1      -9.745   9.687  71.595  1.00  0.00    -0.017 OA 
BRANCH   4   6
HETATM    6  C   UNL     1      -9.823   8.636  69.442  1.00  0.00    -0.184 C  
HETATM    7  C   UNL     1     -10.244   8.823  68.168  1.00  0.00    -0.205 C  
HETATM    8  C   UNL     1     -11.274   9.815  67.675  1.00  0.00     0.027 C  
HETATM    9  N   UNL     1      -9.715   8.045  67.155  1.00  0.00    -0.178 NA 
HETATM   10  C   UNL     1      -8.853   6.981  67.334  1.00  0.00    -0.119 C  
HETATM   11  C   UNL     1      -8.544   6.206  66.075  1.00  0.00    -0.145 C  
HETATM   12  C   UNL     1      -8.354   6.707  68.566  1.00  0.00    -0.122 C  
HETATM   13  C   UNL     1      -8.751   7.569  69.776  1.00  0.00    -0.140 C  
BRANCH  12  14
HETATM   14  C   UNL     1      -7.428   5.555  68.734  1.00  0.00    -0.079 C  
HETATM   15  O   UNL     1      -7.595   4.459  68.220  1.00  0.00    -0.067 OA 
BRANCH  14  16
HETATM   16  O   UNL     1      -6.371   5.879  69.520  1.00  0.00    -0.037 OA 
HETATM   17  C   UNL     1      -5.192   5.105  69.257  1.00  0.00     0.000 C  
ENDBRANCH  14  16
ENDBRANCH  12  14
BRANCH  13  18
HETATM   18  C   UNL     1      -9.115   6.760  71.040  1.00  0.00    -0.156 A  
HETATM   19  C   UNL     1      -8.219   6.831  72.135  1.00  0.00    -0.104 A  
HETATM   20  C   UNL     1      -8.520   6.249  73.366  1.00  0.00    -0.122 A  
HETATM   21  C   UNL     1     -10.316   6.041  71.212  1.00  0.00    -0.215 A  
HETATM   22  C   UNL     1     -10.614   5.462  72.462  1.00  0.00    -0.227 A  
HETATM   23 CL   UNL     1     -11.450   5.892  69.908  1.00  0.00    -0.239 Cl 
HETATM   24 CL   UNL     1     -12.101   4.627  72.773  1.00  0.00     0.162 Cl 
HETATM   25  C   UNL     1      -9.722   5.576  73.533  1.00  0.00    -0.153 A  
ENDBRANCH  13  18
ENDBRANCH   4   6
ENDBRANCH   3   4
ENDBRANCH   2   3
TORSDOF 6
ENDMDL
MODEL      206
REMARK 921   NORMALIZED FREE ENERGY PREDICTED BY IDOCK:   -1.49 KCAL/MOL
REMARK 922        TOTAL FREE ENERGY PREDICTED BY IDOCK:   -3.23 KCAL/MOL
REMARK 923 INTER-LIGAND FREE ENERGY PREDICTED BY IDOCK:   -2.48 KCAL/MOL
REMARK 924 INTRA-LIGAND FREE ENERGY PREDICTED BY IDOCK:   -0.75 KCAL/MOL
REMARK 927      BINDING AFFINITY PREDICTED BY RF-SCORE:    0.00 PKD
ROOT
HETATM    1  C   UNL     1     -10.274   7.391  72.717  1.00  0.00    -0.287 C  
HETATM    2  C   UNL     1      -9.682   8.054  71.492  1.00  0.00    -0.167 C  
ENDROOT
BRANCH   2   3
HETATM    3  O   UNL     1      -9.248   6.989  70.641  1.00  0.00    -0.158 OA 
BRANCH   3   4
HETATM    4  C   UNL     1      -9.757   6.907  69.393  1.00  0.00    -0.157 C  
HETATM    5  O   UNL     1     -10.750   7.491  68.976  1.00  0.00    -0.207 OA 
BRANCH   4   6
HETATM    6  C   UNL     1      -8.822   6.135  68.538  1.00  0.00    -0.113 C  
HETATM    7  C   UNL     1      -8.624   4.803  68.687  1.00  0.00    -0.093 C  
HETATM    8  C   UNL     1      -9.307   3.875  69.665  1.00  0.00    -0.246 C  
HETATM    9  N   UNL     1      -7.698   4.159  67.886  1.00  0.00    -0.071 NA 
HETATM   10  C   UNL     1      -6.844   4.780  66.996  1.00  0.00    -0.056 C  
HETATM   11  C   UNL     1      -5.830   3.862  66.357  1.00  0.00    -0.023 C  
HETATM   12  C   UNL     1      -6.960   6.111  66.755  1.00  0.00    -0.071 C  
HETATM   13  C   UNL     1      -8.033   6.943  67.477  1.00  0.00    -0.112 C  
BRANCH  12  14
HETATM   14  C   UNL     1      -6.027   6.757  65.793  1.00  0.00    -0.034 C  
HETATM   15  O   UNL     1      -5.130   7.522  66.115  1.00  0.00    -0.023 OA 
BRANCH  14  16
HETATM   16  O   UNL     1      -6.292   6.382  64.517  1.00  0.00    -0.029 OA 
HETATM   17  C   UNL     1      -6.895   7.412  63.721  1.00  0.00    -0.053 C  
ENDBRANCH  14  16
ENDBRANCH  12  14
BRANCH  13  18
HETATM   18  C   UNL     1      -7.523   8.288  68.037  1.00  0.00    -0.097 A  
HETATM   19  C   UNL     1      -8.020   9.470  67.434  1.00  0.00    -0.106 A  
HETATM   20  C   UNL     1      -7.728  10.733  67.949  1.00  0.00    -0.100 A  
HETATM   21  C   UNL     1      -6.681   8.421  69.160  1.00  0.00    -0.047 A  
HETATM   22  C   UNL     1      -6.397   9.701  69.678  1.00  0.00    -0.045 A  
HETATM   23 CL   UNL     1      -6.016   7.019  69.935  1.00  0.00    -0.023 Cl 
HETATM   24 CL   UNL     1      -5.431   9.941  71.096  1.00  0.00    -0.068 Cl 
HETATM   25  C   UNL     1      -6.928  10.848  69.078  1.00  0.00    -0.089 A  
ENDBRANCH  13  18
ENDBRANCH   4   6
ENDBRANCH   3   4
ENDBRANCH   2   3
TORSDOF 6
ENDMDL
MODEL      207
REMARK 921   NORMALIZED FREE ENERGY PREDICTED BY IDOCK:   -1.41 KCAL/MOL
REMARK 922        TOTAL FREE ENERGY PREDICTED BY IDOCK:   -3.13 KCAL/MOL
REMARK 923 INTER-LIGAND FREE ENERGY PREDICTED BY IDOCK:   -3.29 KCAL/MOL
REMARK 924 INTRA-LIGAND FREE ENERGY PREDICTED BY IDOCK:    0.16 KCAL/MOL
REMARK 927      BINDING AFFINITY PREDICTED BY RF-SCORE:    0.00 PKD
ROOT
HETATM    1  C   UNL     1     -12.459  11.817  63.173  1.00  0.00    -0.274 C  
HETATM    2  C   UNL     1     -12.284  11.882  64.674  1.00  0.00    -0.090 C  
ENDROOT
BRANCH   2   3
HETATM    3  O   UNL     1     -11.145  11.071  64.973  1.00  0.00    -0.117 OA 
BRANCH   3   4
HETATM    4  C   UNL     1      -9.912  11.604  64.829  1.00  0.00    -0.254 C  
HETATM    5  O   UNL     1      -9.503  12.229  63.858  1.00  0.00     0.001 OA 
BRANCH   4   6
HETATM    6  C   UNL     1      -9.174  11.473  66.109  1.00  0.00    -0.230 C  
HETATM    7  C   UNL     1      -8.867  12.535  66.890  1.00  0.00    -0.203 C  
HETATM    8  C   UNL     1      -9.231  13.985  66.657  1.00  0.00    -0.262 C  
HETATM    9  N   UNL     1      -8.133  12.341  68.046  1.00  0.00    -0.146 NA 
HETATM   10  C   UNL     1      -7.564  11.146  68.438  1.00  0.00    -0.110 C  
HETATM   11  C   UNL     1      -6.688  11.242  69.664  1.00  0.00    -0.122 C  
HETATM   12  C   UNL     1      -7.814  10.010  67.739  1.00  0.00    -0.094 C  
HETATM   13  C   UNL     1      -8.722  10.043  66.499  1.00  0.00    -0.142 C  
BRANCH  12  14
HETATM   14  C   UNL     1      -7.189   8.734  68.181  1.00  0.00    -0.083 C  
HETATM   15  O   UNL     1      -6.240   8.205  67.621  1.00  0.00    -0.049 OA 
BRANCH  14  16
HETATM   16  O   UNL     1      -7.798   8.240  69.287  1.00  0.00    -0.104 OA 
HETATM   17  C   UNL     1      -6.922   7.506  70.155  1.00  0.00    -0.059 C  
ENDBRANCH  14  16
ENDBRANCH  12  14
BRANCH  13  18
HETATM   18  C   UNL     1      -8.169   9.262  65.287  1.00  0.00    -0.136 A  
HETATM   19  C   UNL     1      -7.410   9.990  64.339  1.00  0.00    -0.138 A  
HETATM   20  C   UNL     1      -6.755   9.357  63.282  1.00  0.00    -0.097 A  
HETATM   21  C   UNL     1      -8.285   7.867  65.112  1.00  0.00    -0.141 A  
HETATM   22  C   UNL     1      -7.614   7.235  64.045  1.00  0.00    -0.110 A  
HETATM   23 CL   UNL     1      -9.218   6.913  66.220  1.00  0.00    -0.179 Cl 
HETATM   24 CL   UNL     1      -7.648   5.518  63.808  1.00  0.00    -0.066 Cl 
HETATM   25  C   UNL     1      -6.847   7.979  63.143  1.00  0.00    -0.084 A  
ENDBRANCH  13  18
ENDBRANCH   4   6
ENDBRANCH   3   4
ENDBRANCH   2   3
TORSDOF 6
ENDMDL
MODEL      208
REMARK 921   NORMALIZED FREE ENERGY PREDICTED BY IDOCK:   -1.05 KCAL/MOL
REMARK 922        TOTAL FREE ENERGY PREDICTED BY IDOCK:   -2.64 KCAL/MOL
REMARK 923 INTER-LIGAND FREE ENERGY PREDICTED BY IDOCK:   -4.44 KCAL/MOL
REMARK 924 INTRA-LIGAND FREE ENERGY PREDICTED BY IDOCK:    1.80 KCAL/MOL
REMARK 927      BINDING AFFINITY PREDICTED BY RF-SCORE:    0.00 PKD
ROOT
HETATM    1  C   UNL     1      -5.531  14.383  70.316  1.00  0.00    -0.112 C  
HETATM    2  C   UNL     1      -7.033  14.443  70.489  1.00  0.00     0.399 C  
ENDROOT
BRANCH   2   3
HETATM    3  O   UNL     1      -7.467  15.594  69.760  1.00  0.00    -0.175 OA 
BRANCH   3   4
HETATM    4  C   UNL     1      -6.925  15.838  68.547  1.00  0.00    -0.117 C  
HETATM    5  O   UNL     1      -5.930  15.299  68.078  1.00  0.00    -0.123 OA 
BRANCH   4   6
HETATM    6  C   UNL     1      -7.826  16.737  67.785  1.00  0.00    -0.187 C  
HETATM    7  C   UNL     1      -7.775  18.086  67.889  1.00  0.00    -0.230 C  
HETATM    8  C   UNL     1      -6.814  18.909  68.719  1.00  0.00    -0.311 C  
HETATM    9  N   UNL     1      -8.681  18.858  67.186  1.00  0.00    -0.279 NA 
HETATM   10  C   UNL     1      -9.743  18.370  66.451  1.00  0.00    -0.339 C  
HETATM   11  C   UNL     1     -10.667  19.433  65.905  1.00  0.00    -0.501 C  
HETATM   12  C   UNL     1      -9.889  17.034  66.267  1.00  0.00    -0.310 C  
HETATM   13  C   UNL     1      -8.881  16.049  66.882  1.00  0.00    -0.258 C  
BRANCH  12  14
HETATM   14  C   UNL     1     -11.042  16.533  65.472  1.00  0.00     0.038 C  
HETATM   15  O   UNL     1     -11.393  17.002  64.400  1.00  0.00    -1.140 OA 
BRANCH  14  16
HETATM   16  O   UNL     1     -11.646  15.483  66.082  1.00  0.00    -0.016 OA 
HETATM   17  C   UNL     1     -11.972  14.403  65.195  1.00  0.00    -0.391 C  
ENDBRANCH  14  16
ENDBRANCH  12  14
BRANCH  13  18
HETATM   18  C   UNL     1      -9.527  14.829  67.574  1.00  0.00    -0.197 A  
HETATM   19  C   UNL     1     -10.482  15.090  68.587  1.00  0.00    -0.238 A  
HETATM   20  C   UNL     1     -11.220  14.066  69.180  1.00  0.00    -0.308 A  
HETATM   21  C   UNL     1      -9.306  13.487  67.202  1.00  0.00    -0.240 A  
HETATM   22  C   UNL     1     -10.062  12.458  67.802  1.00  0.00    -0.203 A  
HETATM   23 CL   UNL     1      -8.135  13.089  65.986  1.00  0.00     1.288 Cl 
HETATM   24 CL   UNL     1      -9.899  10.794  67.346  1.00  0.00    -0.198 Cl 
HETATM   25  C   UNL     1     -11.019  12.752  68.778  1.00  0.00    -0.289 A  
ENDBRANCH  13  18
ENDBRANCH   4   6
ENDBRANCH   3   4
ENDBRANCH   2   3
TORSDOF 6
ENDMDL
MODEL      209
REMARK 921   NORMALIZED FREE ENERGY PREDICTED BY IDOCK:   -1.04 KCAL/MOL
REMARK 922        TOTAL FREE ENERGY PREDICTED BY IDOCK:   -2.63 KCAL/MOL
REMARK 923 INTER-LIGAND FREE ENERGY PREDICTED BY IDOCK:   -2.72 KCAL/MOL
REMARK 924 INTRA-LIGAND FREE ENERGY PREDICTED BY IDOCK:    0.08 KCAL/MOL
REMARK 927      BINDING AFFINITY PREDICTED BY RF-SCORE:    0.00 PKD
ROOT
HETATM    1  C   UNL     1      -7.472  18.745  67.315  1.00  0.00    -0.230 C  
HETATM    2  C   UNL     1      -7.727  18.099  65.970  1.00  0.00    -0.169 C  
ENDROOT
BRANCH   2   3
HETATM    3  O   UNL     1      -8.533  16.947  66.234  1.00  0.00    -0.272 OA 
BRANCH   3   4
HETATM    4  C   UNL     1      -9.819  16.947  65.824  1.00  0.00    -0.137 C  
HETATM    5  O   UNL     1     -10.496  17.935  65.565  1.00  0.00    -0.650 OA 
BRANCH   4   6
HETATM    6  C   UNL     1     -10.244  15.550  65.560  1.00  0.00    -0.415 C  
HETATM    7  C   UNL     1     -11.312  15.243  64.787  1.00  0.00    -0.391 C  
HETATM    8  C   UNL     1     -12.213  16.201  64.038  1.00  0.00     0.766 C  
HETATM    9  N   UNL     1     -11.679  13.919  64.626  1.00  0.00    -0.378 NA 
HETATM   10  C   UNL     1     -11.113  12.849  65.291  1.00  0.00    -0.284 C  
HETATM   11  C   UNL     1     -11.799  11.526  65.045  1.00  0.00     0.161 C  
HETATM   12  C   UNL     1     -10.027  13.035  66.083  1.00  0.00    -0.278 C  
HETATM   13  C   UNL     1      -9.422  14.438  66.259  1.00  0.00    -0.297 C  
BRANCH  12  14
HETATM   14  C   UNL     1      -9.436  11.867  66.789  1.00  0.00    -0.201 C  
HETATM   15  O   UNL     1      -8.380  11.337  66.476  1.00  0.00    -0.162 OA 
BRANCH  14  16
HETATM   16  O   UNL     1     -10.211  11.472  67.830  1.00  0.00    -0.177 OA 
HETATM   17  C   UNL     1      -9.483  10.838  68.891  1.00  0.00    -0.181 C  
ENDBRANCH  14  16
ENDBRANCH  12  14
BRANCH  13  18
HETATM   18  C   UNL     1      -9.081  14.803  67.719  1.00  0.00    -0.186 A  
HETATM   19  C   UNL     1     -10.165  15.061  68.593  1.00  0.00    -0.231 A  
HETATM   20  C   UNL     1      -9.973  15.268  69.959  1.00  0.00    -0.125 A  
HETATM   21  C   UNL     1      -7.779  14.801  68.262  1.00  0.00    -0.120 A  
HETATM   22  C   UNL     1      -7.595  15.004  69.645  1.00  0.00    -0.140 A  
HETATM   23 CL   UNL     1      -6.401  14.516  67.249  1.00  0.00     0.153 Cl 
HETATM   24 CL   UNL     1      -6.034  14.944  70.397  1.00  0.00    -0.153 Cl 
HETATM   25  C   UNL     1      -8.689  15.227  70.486  1.00  0.00     1.378 A  
ENDBRANCH  13  18
ENDBRANCH   4   6
ENDBRANCH   3   4
ENDBRANCH   2   3
TORSDOF 6
ENDMDL
MODEL      210
REMARK 921   NORMALIZED FREE ENERGY PREDICTED BY IDOCK:   -0.70 KCAL/MOL
REMARK 922        TOTAL FREE ENERGY PREDICTED BY IDOCK:   -2.16 KCAL/MOL
REMARK 923 INTER-LIGAND FREE ENERGY PREDICTED BY IDOCK:   -4.01 KCAL/MOL
REMARK 924 INTRA-LIGAND FREE ENERGY PREDICTED BY IDOCK:    1.85 KCAL/MOL
REMARK 927      BINDING AFFINITY PREDICTED BY RF-SCORE:    0.00 PKD
ROOT
HETATM    1  C   UNL     1     -10.293  19.907  65.856  1.00  0.00    -0.567 C  
HETATM    2  C   UNL     1      -9.034  19.522  66.602  1.00  0.00    -0.351 C  
ENDROOT
BRANCH   2   3
HETATM    3  O   UNL     1      -9.074  18.098  66.731  1.00  0.00    -0.267 OA 
BRANCH   3   4
HETATM    4  C   UNL     1      -9.750  17.558  67.768  1.00  0.00    -0.274 C  
HETATM    5  O   UNL     1     -10.428  18.168  68.585  1.00  0.00    -0.333 OA 
BRANCH   4   6
HETATM    6  C   UNL     1      -9.694  16.079  67.666  1.00  0.00    -0.224 C  
HETATM    7  C   UNL     1     -10.754  15.285  67.945  1.00  0.00    -0.275 C  
HETATM    8  C   UNL     1     -12.146  15.717  68.350  1.00  0.00     0.063 C  
HETATM    9  N   UNL     1     -10.613  13.911  67.877  1.00  0.00    -0.242 NA 
HETATM   10  C   UNL     1      -9.426  13.242  67.655  1.00  0.00    -0.211 C  
HETATM   11  C   UNL     1      -9.521  11.739  67.778  1.00  0.00    -0.181 C  
HETATM   12  C   UNL     1      -8.299  13.934  67.351  1.00  0.00    -0.208 C  
HETATM   13  C   UNL     1      -8.328  15.469  67.262  1.00  0.00    -0.218 C  
BRANCH  12  14
HETATM   14  C   UNL     1      -7.031  13.191  67.118  1.00  0.00     0.158 C  
HETATM   15  O   UNL     1      -5.920  13.699  67.156  1.00  0.00    -0.247 OA 
BRANCH  14  16
HETATM   16  O   UNL     1      -7.265  11.878  66.868  1.00  0.00    -0.138 OA 
HETATM   17  C   UNL     1      -6.121  11.035  67.069  1.00  0.00    -0.082 C  
ENDBRANCH  14  16
ENDBRANCH  12  14
BRANCH  13  18
HETATM   18  C   UNL     1      -7.150  16.169  67.974  1.00  0.00    -0.141 A  
HETATM   19  C   UNL     1      -6.411  17.116  67.224  1.00  0.00    -0.189 A  
HETATM   20  C   UNL     1      -5.416  17.899  67.808  1.00  0.00    -0.145 A  
HETATM   21  C   UNL     1      -6.824  16.003  69.336  1.00  0.00    -0.215 A  
HETATM   22  C   UNL     1      -5.822  16.804  69.920  1.00  0.00    -0.220 A  
HETATM   23 CL   UNL     1      -7.670  14.845  70.311  1.00  0.00     0.375 Cl 
HETATM   24 CL   UNL     1      -5.416  16.710  71.603  1.00  0.00     0.298 Cl 
HETATM   25  C   UNL     1      -5.130  17.752  69.159  1.00  0.00    -0.175 A  
ENDBRANCH  13  18
ENDBRANCH   4   6
ENDBRANCH   3   4
ENDBRANCH   2   3
TORSDOF 6
ENDMDL
MODEL      211
REMARK 921   NORMALIZED FREE ENERGY PREDICTED BY IDOCK:   -0.57 KCAL/MOL
REMARK 922        TOTAL FREE ENERGY PREDICTED BY IDOCK:   -1.99 KCAL/MOL
REMARK 923 INTER-LIGAND FREE ENERGY PREDICTED BY IDOCK:   -2.18 KCAL/MOL
REMARK 924 INTRA-LIGAND FREE ENERGY PREDICTED BY IDOCK:    0.19 KCAL/MOL
REMARK 927      BINDING AFFINITY PREDICTED BY RF-SCORE:    0.00 PKD
ROOT
HETATM    1  C   UNL     1      -6.401  12.590  68.463  1.00  0.00    -0.069 C  
HETATM    2  C   UNL     1      -7.686  12.039  69.041  1.00  0.00     0.096 C  
ENDROOT
BRANCH   2   3
HETATM    3  O   UNL     1      -8.746  12.700  68.345  1.00  0.00    -0.175 OA 
BRANCH   3   4
HETATM    4  C   UNL     1      -9.185  13.890  68.809  1.00  0.00    -0.012 C  
HETATM    5  O   UNL     1      -8.940  14.373  69.908  1.00  0.00     0.593 OA 
BRANCH   4   6
HETATM    6  C   UNL     1      -9.871  14.615  67.712  1.00  0.00    -0.216 C  
HETATM    7  C   UNL     1     -10.715  14.005  66.846  1.00  0.00    -0.285 C  
HETATM    8  C   UNL     1     -11.145  12.555  66.847  1.00  0.00    -0.323 C  
HETATM    9  N   UNL     1     -11.280  14.736  65.816  1.00  0.00    -0.334 NA 
HETATM   10  C   UNL     1     -10.968  16.044  65.504  1.00  0.00    -0.209 C  
HETATM   11  C   UNL     1     -11.618  16.558  64.240  1.00  0.00     0.333 C  
HETATM   12  C   UNL     1     -10.143  16.761  66.308  1.00  0.00    -0.338 C  
HETATM   13  C   UNL     1      -9.537  16.122  67.569  1.00  0.00    -0.229 C  
BRANCH  12  14
HETATM   14  C   UNL     1      -9.823  18.169  65.950  1.00  0.00    -0.033 C  
HETATM   15  O   UNL     1      -8.690  18.589  65.764  1.00  0.00    -0.429 OA 
BRANCH  14  16
HETATM   16  O   UNL     1     -10.945  18.922  65.844  1.00  0.00    -0.228 OA 
HETATM   17  C   UNL     1     -10.692  20.318  65.629  1.00  0.00    -0.015 C  
ENDBRANCH  14  16
ENDBRANCH  12  14
BRANCH  13  18
HETATM   18  C   UNL     1      -8.031  16.400  67.760  1.00  0.00    -0.160 A  
HETATM   19  C   UNL     1      -7.127  15.627  66.991  1.00  0.00    -0.127 A  
HETATM   20  C   UNL     1      -5.757  15.889  66.988  1.00  0.00     0.283 A  
HETATM   21  C   UNL     1      -7.502  17.429  68.567  1.00  0.00    -0.251 A  
HETATM   22  C   UNL     1      -6.117  17.691  68.553  1.00  0.00    -0.179 A  
HETATM   23 CL   UNL     1      -8.546  18.400  69.554  1.00  0.00     0.458 Cl 
HETATM   24 CL   UNL     1      -5.403  18.983  69.460  1.00  0.00    -0.196 Cl 
HETATM   25  C   UNL     1      -5.254  16.929  67.759  1.00  0.00    -0.129 A  
ENDBRANCH  13  18
ENDBRANCH   4   6
ENDBRANCH   3   4
ENDBRANCH   2   3
TORSDOF 6
ENDMDL
MODEL      212
REMARK 921   NORMALIZED FREE ENERGY PREDICTED BY IDOCK:   -0.34 KCAL/MOL
REMARK 922        TOTAL FREE ENERGY PREDICTED BY IDOCK:   -1.68 KCAL/MOL
REMARK 923 INTER-LIGAND FREE ENERGY PREDICTED BY IDOCK:   -3.22 KCAL/MOL
REMARK 924 INTRA-LIGAND FREE ENERGY PREDICTED BY IDOCK:    1.54 KCAL/MOL
REMARK 927      BINDING AFFINITY PREDICTED BY RF-SCORE:    0.00 PKD
ROOT
HETATM    1  C   UNL     1     -10.325  20.024  65.862  1.00  0.00    -0.529 C  
HETATM    2  C   UNL     1      -9.251  19.420  66.741  1.00  0.00    -0.333 C  
ENDROOT
BRANCH   2   3
HETATM    3  O   UNL     1      -9.242  18.021  66.445  1.00  0.00    -0.310 OA 
BRANCH   3   4
HETATM    4  C   UNL     1     -10.231  17.246  66.940  1.00  0.00    -0.322 C  
HETATM    5  O   UNL     1     -11.083  17.589  67.750  1.00  0.00    -0.235 OA 
BRANCH   4   6
HETATM    6  C   UNL     1     -10.240  15.951  66.216  1.00  0.00    -0.324 C  
HETATM    7  C   UNL     1     -10.691  15.826  64.945  1.00  0.00    -0.361 C  
HETATM    8  C   UNL     1     -11.204  16.922  64.038  1.00  0.00     1.665 C  
HETATM    9  N   UNL     1     -10.716  14.576  64.352  1.00  0.00    -0.152 NA 
HETATM   10  C   UNL     1     -10.425  13.386  64.987  1.00  0.00    -0.365 C  
HETATM   11  C   UNL     1     -10.674  12.153  64.151  1.00  0.00    -0.405 C  
HETATM   12  C   UNL     1      -9.950  13.389  66.258  1.00  0.00    -0.298 C  
HETATM   13  C   UNL     1      -9.744  14.715  67.009  1.00  0.00    -0.247 C  
BRANCH  12  14
HETATM   14  C   UNL     1      -9.644  12.093  66.922  1.00  0.00    -0.206 C  
HETATM   15  O   UNL     1      -9.509  11.955  68.128  1.00  0.00    -0.184 OA 
BRANCH  14  16
HETATM   16  O   UNL     1      -9.545  11.086  66.019  1.00  0.00    -0.199 OA 
HETATM   17  C   UNL     1      -9.689   9.777  66.590  1.00  0.00    -0.201 C  
ENDBRANCH  14  16
ENDBRANCH  12  14
BRANCH  13  18
HETATM   18  C   UNL     1     -10.270  14.711  68.461  1.00  0.00    -0.240 A  
HETATM   19  C   UNL     1      -9.434  15.277  69.454  1.00  0.00    -0.231 A  
HETATM   20  C   UNL     1      -9.868  15.444  70.769  1.00  0.00     0.883 A  
HETATM   21  C   UNL     1     -11.556  14.277  68.846  1.00  0.00    -0.305 A  
HETATM   22  C   UNL     1     -11.988  14.456  70.175  1.00  0.00    -0.322 A  
HETATM   23 CL   UNL     1     -12.626  13.553  67.689  1.00  0.00     0.225 Cl 
HETATM   24 CL   UNL     1     -13.578  14.015  70.707  1.00  0.00    -0.020 Cl 
HETATM   25  C   UNL     1     -11.149  15.046  71.126  1.00  0.00    -0.201 A  
ENDBRANCH  13  18
ENDBRANCH   4   6
ENDBRANCH   3   4
ENDBRANCH   2   3
TORSDOF 6
ENDMDL
MODEL      213
REMARK 921   NORMALIZED FREE ENERGY PREDICTED BY IDOCK:   -0.33 KCAL/MOL
REMARK 922        TOTAL FREE ENERGY PREDICTED BY IDOCK:   -1.67 KCAL/MOL
REMARK 923 INTER-LIGAND FREE ENERGY PREDICTED BY IDOCK:   -0.40 KCAL/MOL
REMARK 924 INTRA-LIGAND FREE ENERGY PREDICTED BY IDOCK:   -1.28 KCAL/MOL
REMARK 927      BINDING AFFINITY PREDICTED BY RF-SCORE:    0.00 PKD
ROOT
HETATM    1  C   UNL     1      -7.506  19.048  66.864  1.00  0.00    -0.230 C  
HETATM    2  C   UNL     1      -8.374  18.030  66.156  1.00  0.00    -0.123 C  
ENDROOT
BRANCH   2   3
HETATM    3  O   UNL     1      -9.315  17.571  67.130  1.00  0.00    -0.242 OA 
BRANCH   3   4
HETATM    4  C   UNL     1     -10.580  17.307  66.738  1.00  0.00    -0.192 C  
HETATM    5  O   UNL     1     -11.486  18.123  66.621  1.00  0.00     0.809 OA 
BRANCH   4   6
HETATM    6  C   UNL     1     -10.665  15.894  66.293  1.00  0.00    -0.261 C  
HETATM    7  C   UNL     1     -10.968  15.544  65.020  1.00  0.00    -0.440 C  
HETATM    8  C   UNL     1     -11.220  16.465  63.847  1.00  0.00     1.092 C  
HETATM    9  N   UNL     1     -11.078  14.205  64.691  1.00  0.00    -0.381 NA 
HETATM   10  C   UNL     1     -11.022  13.157  65.587  1.00  0.00    -0.277 C  
HETATM   11  C   UNL     1     -11.322  11.803  64.986  1.00  0.00    -0.288 C  
HETATM   12  C   UNL     1     -10.713  13.386  66.888  1.00  0.00    -0.274 C  
HETATM   13  C   UNL     1     -10.434  14.816  67.381  1.00  0.00    -0.256 C  
BRANCH  12  14
HETATM   14  C   UNL     1     -10.660  12.240  67.834  1.00  0.00    -0.212 C  
HETATM   15  O   UNL     1      -9.633  11.654  68.147  1.00  0.00    -0.177 OA 
BRANCH  14  16
HETATM   16  O   UNL     1     -11.891  11.935  68.314  1.00  0.00    -0.377 OA 
HETATM   17  C   UNL     1     -11.911  11.634  69.717  1.00  0.00    -0.332 C  
ENDBRANCH  14  16
ENDBRANCH  12  14
BRANCH  13  18
HETATM   18  C   UNL     1     -11.132  15.177  68.710  1.00  0.00    -0.272 A  
HETATM   19  C   UNL     1     -12.548  15.212  68.709  1.00  0.00     0.383 A  
HETATM   20  C   UNL     1     -13.278  15.395  69.883  1.00  0.00     0.422 A  
HETATM   21  C   UNL     1     -10.466  15.375  69.937  1.00  0.00    -0.297 A  
HETATM   22  C   UNL     1     -11.211  15.552  71.120  1.00  0.00    -0.370 A  
HETATM   23 CL   UNL     1      -8.733  15.368  70.011  1.00  0.00     0.138 Cl 
HETATM   24 CL   UNL     1     -10.466  15.728  72.675  1.00  0.00     2.271 Cl 
HETATM   25  C   UNL     1     -12.610  15.552  71.090  1.00  0.00    -0.509 A  
ENDBRANCH  13  18
ENDBRANCH   4   6
ENDBRANCH   3   4
ENDBRANCH   2   3
TORSDOF 6
ENDMDL
MODEL      214
REMARK 921   NORMALIZED FREE ENERGY PREDICTED BY IDOCK:   -0.09 KCAL/MOL
REMARK 922        TOTAL FREE ENERGY PREDICTED BY IDOCK:   -1.34 KCAL/MOL
REMARK 923 INTER-LIGAND FREE ENERGY PREDICTED BY IDOCK:   -2.01 KCAL/MOL
REMARK 924 INTRA-LIGAND FREE ENERGY PREDICTED BY IDOCK:    0.67 KCAL/MOL
REMARK 927      BINDING AFFINITY PREDICTED BY RF-SCORE:    0.00 PKD
ROOT
HETATM    1  C   UNL     1      -6.260  20.696  65.296  1.00  0.00    -0.294 C  
HETATM    2  C   UNL     1      -7.278  19.606  65.035  1.00  0.00     0.296 C  
ENDROOT
BRANCH   2   3
HETATM    3  O   UNL     1      -8.346  19.837  65.959  1.00  0.00    -0.358 OA 
BRANCH   3   4
HETATM    4  C   UNL     1      -9.445  19.055  65.890  1.00  0.00     0.072 C  
HETATM    5  O   UNL     1     -10.547  19.392  65.475  1.00  0.00    -0.493 OA 
BRANCH   4   6
HETATM    6  C   UNL     1      -9.069  17.661  66.228  1.00  0.00    -0.212 C  
HETATM    7  C   UNL     1      -9.767  16.587  65.788  1.00  0.00    -0.202 C  
HETATM    8  C   UNL     1     -10.975  16.584  64.877  1.00  0.00    -0.223 C  
HETATM    9  N   UNL     1      -9.387  15.318  66.186  1.00  0.00    -0.311 NA 
HETATM   10  C   UNL     1      -8.402  15.034  67.111  1.00  0.00    -0.217 C  
HETATM   11  C   UNL     1      -8.289  13.573  67.477  1.00  0.00    -0.185 C  
HETATM   12  C   UNL     1      -7.628  16.030  67.611  1.00  0.00    -0.166 C  
HETATM   13  C   UNL     1      -7.846  17.485  67.163  1.00  0.00    -0.229 C  
BRANCH  12  14
HETATM   14  C   UNL     1      -6.574  15.699  68.607  1.00  0.00    -0.110 C  
HETATM   15  O   UNL     1      -5.387  15.584  68.338  1.00  0.00    -0.094 OA 
BRANCH  14  16
HETATM   16  O   UNL     1      -7.095  15.553  69.850  1.00  0.00    -0.153 OA 
HETATM   17  C   UNL     1      -6.203  14.931  70.786  1.00  0.00     0.027 C  
ENDBRANCH  14  16
ENDBRANCH  12  14
BRANCH  13  18
HETATM   18  C   UNL     1      -7.850  18.511  68.317  1.00  0.00    -0.323 A  
HETATM   19  C   UNL     1      -9.093  18.784  68.937  1.00  0.00    -0.250 A  
HETATM   20  C   UNL     1      -9.185  19.590  70.072  1.00  0.00     0.826 A  
HETATM   21  C   UNL     1      -6.694  19.115  68.856  1.00  0.00    -0.301 A  
HETATM   22  C   UNL     1      -6.796  19.922  70.007  1.00  0.00    -0.109 A  
HETATM   23 CL   UNL     1      -5.140  18.845  68.135  1.00  0.00    -0.176 Cl 
HETATM   24 CL   UNL     1      -5.414  20.638  70.769  1.00  0.00    -0.271 Cl 
HETATM   25  C   UNL     1      -8.035  20.148  70.614  1.00  0.00     1.443 A  
ENDBRANCH  13  18
ENDBRANCH   4   6
ENDBRANCH   3   4
ENDBRANCH   2   3
TORSDOF 6
ENDMDL
MODEL      215
REMARK 921   NORMALIZED FREE ENERGY PREDICTED BY IDOCK:    0.15 KCAL/MOL
REMARK 922        TOTAL FREE ENERGY PREDICTED BY IDOCK:   -1.02 KCAL/MOL
REMARK 923 INTER-LIGAND FREE ENERGY PREDICTED BY IDOCK:   -1.95 KCAL/MOL
REMARK 924 INTRA-LIGAND FREE ENERGY PREDICTED BY IDOCK:    0.93 KCAL/MOL
REMARK 927      BINDING AFFINITY PREDICTED BY RF-SCORE:    0.00 PKD
ROOT
HETATM    1  C   UNL     1     -10.302  15.163  70.076  1.00  0.00    -0.180 C  
HETATM    2  C   UNL     1      -8.863  14.872  69.711  1.00  0.00     0.231 C  
ENDROOT
BRANCH   2   3
HETATM    3  O   UNL     1      -8.913  14.040  68.549  1.00  0.00    -0.190 OA 
BRANCH   3   4
HETATM    4  C   UNL     1      -8.751  14.609  67.335  1.00  0.00    -0.197 C  
HETATM    5  O   UNL     1      -8.283  15.719  67.112  1.00  0.00    -0.170 OA 
BRANCH   4   6
HETATM    6  C   UNL     1      -9.064  13.609  66.285  1.00  0.00     0.003 C  
HETATM    7  C   UNL     1     -10.202  13.647  65.552  1.00  0.00    -0.302 C  
HETATM    8  C   UNL     1     -11.303  14.683  65.615  1.00  0.00    -0.338 C  
HETATM    9  N   UNL     1     -10.449  12.651  64.625  1.00  0.00    -0.321 NA 
HETATM   10  C   UNL     1      -9.679  11.519  64.447  1.00  0.00    -0.200 C  
HETATM   11  C   UNL     1     -10.253  10.518  63.472  1.00  0.00    -0.073 C  
HETATM   12  C   UNL     1      -8.508  11.378  65.118  1.00  0.00     0.351 C  
HETATM   13  C   UNL     1      -8.032  12.468  66.092  1.00  0.00     0.953 C  
BRANCH  12  14
HETATM   14  C   UNL     1      -7.696  10.149  64.909  1.00  0.00    -0.143 C  
HETATM   15  O   UNL     1      -8.166   9.052  64.643  1.00  0.00    -0.142 OA 
BRANCH  14  16
HETATM   16  O   UNL     1      -6.370  10.402  65.041  1.00  0.00    -0.126 OA 
HETATM   17  C   UNL     1      -5.700  10.655  63.798  1.00  0.00    -0.039 C  
ENDBRANCH  14  16
ENDBRANCH  12  14
BRANCH  13  18
HETATM   18  C   UNL     1      -7.507  11.930  67.441  1.00  0.00    -0.148 A  
HETATM   19  C   UNL     1      -6.329  12.520  67.959  1.00  0.00    -0.087 A  
HETATM   20  C   UNL     1      -5.847  12.202  69.228  1.00  0.00    -0.079 A  
HETATM   21  C   UNL     1      -8.170  10.969  68.232  1.00  0.00    -0.130 A  
HETATM   22  C   UNL     1      -7.679  10.658  69.517  1.00  0.00    -0.106 A  
HETATM   23 CL   UNL     1      -9.606  10.187  67.653  1.00  0.00    -0.166 Cl 
HETATM   24 CL   UNL     1      -8.478   9.543  70.576  1.00  0.00    -0.235 Cl 
HETATM   25  C   UNL     1      -6.529  11.281  70.011  1.00  0.00    -0.114 A  
ENDBRANCH  13  18
ENDBRANCH   4   6
ENDBRANCH   3   4
ENDBRANCH   2   3
TORSDOF 6
ENDMDL
MODEL      216
REMARK 921   NORMALIZED FREE ENERGY PREDICTED BY IDOCK:    0.18 KCAL/MOL
REMARK 922        TOTAL FREE ENERGY PREDICTED BY IDOCK:   -0.99 KCAL/MOL
REMARK 923 INTER-LIGAND FREE ENERGY PREDICTED BY IDOCK:   -1.28 KCAL/MOL
REMARK 924 INTRA-LIGAND FREE ENERGY PREDICTED BY IDOCK:    0.29 KCAL/MOL
REMARK 927      BINDING AFFINITY PREDICTED BY RF-SCORE:    0.00 PKD
ROOT
HETATM    1  C   UNL     1      -6.053  14.117  71.628  1.00  0.00     0.131 C  
HETATM    2  C   UNL     1      -5.244  13.489  70.514  1.00  0.00    -0.118 C  
ENDROOT
BRANCH   2   3
HETATM    3  O   UNL     1      -6.059  12.443  69.978  1.00  0.00    -0.144 OA 
BRANCH   3   4
HETATM    4  C   UNL     1      -6.329  12.444  68.655  1.00  0.00    -0.073 C  
HETATM    5  O   UNL     1      -5.505  12.439  67.748  1.00  0.00    -0.075 OA 
BRANCH   4   6
HETATM    6  C   UNL     1      -7.789  12.271  68.458  1.00  0.00    -0.111 C  
HETATM    7  C   UNL     1      -8.691  13.226  68.785  1.00  0.00     0.145 C  
HETATM    8  C   UNL     1      -8.411  14.604  69.342  1.00  0.00     0.085 C  
HETATM    9  N   UNL     1     -10.041  12.974  68.620  1.00  0.00    -0.186 NA 
HETATM   10  C   UNL     1     -10.585  11.761  68.249  1.00  0.00    -0.211 C  
HETATM   11  C   UNL     1     -12.095  11.713  68.288  1.00  0.00    -0.067 C  
HETATM   12  C   UNL     1      -9.778  10.732  67.885  1.00  0.00    -0.181 C  
HETATM   13  C   UNL     1      -8.249  10.903  67.893  1.00  0.00    -0.114 C  
BRANCH  12  14
HETATM   14  C   UNL     1     -10.388   9.434  67.491  1.00  0.00    -0.255 C  
HETATM   15  O   UNL     1     -11.491   9.055  67.858  1.00  0.00     0.522 OA 
BRANCH  14  16
HETATM   16  O   UNL     1      -9.572   8.733  66.665  1.00  0.00    -0.181 OA 
HETATM   17  C   UNL     1     -10.050   7.416  66.356  1.00  0.00     0.003 C  
ENDBRANCH  14  16
ENDBRANCH  12  14
BRANCH  13  18
HETATM   18  C   UNL     1      -7.483   9.726  68.534  1.00  0.00    -0.079 A  
HETATM   19  C   UNL     1      -7.639   9.534  69.929  1.00  0.00    -0.123 A  
HETATM   20  C   UNL     1      -7.100   8.425  70.581  1.00  0.00    -0.044 A  
HETATM   21  C   UNL     1      -6.723   8.779  67.817  1.00  0.00    -0.066 A  
HETATM   22  C   UNL     1      -6.187   7.658  68.483  1.00  0.00    -0.039 A  
HETATM   23 CL   UNL     1      -6.469   8.962  66.110  1.00  0.00    -0.064 Cl 
HETATM   24 CL   UNL     1      -5.306   6.415  67.657  1.00  0.00    -0.005 Cl 
HETATM   25  C   UNL     1      -6.386   7.481  69.856  1.00  0.00    -0.027 A  
ENDBRANCH  13  18
ENDBRANCH   4   6
ENDBRANCH   3   4
ENDBRANCH   2   3
TORSDOF 6
ENDMDL
MODEL      217
REMARK 921   NORMALIZED FREE ENERGY PREDICTED BY IDOCK:    0.40 KCAL/MOL
REMARK 922        TOTAL FREE ENERGY PREDICTED BY IDOCK:   -0.68 KCAL/MOL
REMARK 923 INTER-LIGAND FREE ENERGY PREDICTED BY IDOCK:   -3.46 KCAL/MOL
REMARK 924 INTRA-LIGAND FREE ENERGY PREDICTED BY IDOCK:    2.78 KCAL/MOL
REMARK 927      BINDING AFFINITY PREDICTED BY RF-SCORE:    0.00 PKD
ROOT
HETATM    1  C   UNL     1      -9.208   6.938  69.975  1.00  0.00    -0.155 C  
HETATM    2  C   UNL     1      -8.303   7.417  68.861  1.00  0.00    -0.129 C  
ENDROOT
BRANCH   2   3
HETATM    3  O   UNL     1      -7.514   8.471  69.421  1.00  0.00    -0.083 OA 
BRANCH   3   4
HETATM    4  C   UNL     1      -7.953   9.087  70.539  1.00  0.00    -0.139 C  
HETATM    5  O   UNL     1      -7.453   9.005  71.655  1.00  0.00    -0.293 OA 
BRANCH   4   6
HETATM    6  C   UNL     1      -9.040  10.030  70.178  1.00  0.00    -0.063 C  
HETATM    7  C   UNL     1     -10.300   9.917  70.662  1.00  0.00    -0.187 C  
HETATM    8  C   UNL     1     -10.819   8.894  71.647  1.00  0.00    -0.420 C  
HETATM    9  N   UNL     1     -11.273  10.805  70.240  1.00  0.00    -0.285 NA 
HETATM   10  C   UNL     1     -11.110  11.758  69.255  1.00  0.00    -0.218 C  
HETATM   11  C   UNL     1     -12.374  12.496  68.883  1.00  0.00     0.208 C  
HETATM   12  C   UNL     1      -9.887  11.971  68.707  1.00  0.00    -0.057 C  
HETATM   13  C   UNL     1      -8.674  11.147  69.167  1.00  0.00     0.057 C  
BRANCH  12  14
HETATM   14  C   UNL     1      -9.737  13.003  67.646  1.00  0.00    -0.212 C  
HETATM   15  O   UNL     1      -9.732  12.761  66.448  1.00  0.00    -0.251 OA 
BRANCH  14  16
HETATM   16  O   UNL     1      -9.618  14.246  68.177  1.00  0.00    -0.205 OA 
HETATM   17  C   UNL     1      -8.828  15.144  67.384  1.00  0.00    -0.186 C  
ENDBRANCH  14  16
ENDBRANCH  12  14
BRANCH  13  18
HETATM   18  C   UNL     1      -7.792  10.617  68.016  1.00  0.00    -0.105 A  
HETATM   19  C   UNL     1      -6.423  10.978  68.029  1.00  0.00    -0.057 A  
HETATM   20  C   UNL     1      -5.515  10.446  67.114  1.00  0.00    -0.041 A  
HETATM   21  C   UNL     1      -8.232   9.725  67.015  1.00  0.00    -0.117 A  
HETATM   22  C   UNL     1      -7.306   9.187  66.099  1.00  0.00    -0.095 A  
HETATM   23 CL   UNL     1      -9.899   9.256  66.922  1.00  0.00    -0.255 Cl 
HETATM   24 CL   UNL     1      -7.757   8.031  64.888  1.00  0.00    -0.110 Cl 
HETATM   25  C   UNL     1      -5.955   9.541  66.157  1.00  0.00    -0.062 A  
ENDBRANCH  13  18
ENDBRANCH   4   6
ENDBRANCH   3   4
ENDBRANCH   2   3
TORSDOF 6
ENDMDL
MODEL      218
REMARK 921   NORMALIZED FREE ENERGY PREDICTED BY IDOCK:    2.03 KCAL/MOL
REMARK 922        TOTAL FREE ENERGY PREDICTED BY IDOCK:    1.51 KCAL/MOL
REMARK 923 INTER-LIGAND FREE ENERGY PREDICTED BY IDOCK:   -0.86 KCAL/MOL
REMARK 924 INTRA-LIGAND FREE ENERGY PREDICTED BY IDOCK:    2.37 KCAL/MOL
REMARK 927      BINDING AFFINITY PREDICTED BY RF-SCORE:    0.00 PKD
ROOT
HETATM    1  C   UNL     1     -11.695  13.144  66.396  1.00  0.00    -0.429 C  
HETATM    2  C   UNL     1     -10.821  14.255  65.857  1.00  0.00    -0.300 C  
ENDROOT
BRANCH   2   3
HETATM    3  O   UNL     1     -10.473  15.063  66.984  1.00  0.00    -0.269 OA 
BRANCH   3   4
HETATM    4  C   UNL     1     -10.902  16.343  67.023  1.00  0.00    -0.145 C  
HETATM    5  O   UNL     1     -12.068  16.717  66.976  1.00  0.00     1.531 OA 
BRANCH   4   6
HETATM    6  C   UNL     1      -9.750  17.232  67.313  1.00  0.00    -0.262 C  
HETATM    7  C   UNL     1      -9.597  18.445  66.732  1.00  0.00    -0.307 C  
HETATM    8  C   UNL     1     -10.535  19.126  65.760  1.00  0.00    -0.404 C  
HETATM    9  N   UNL     1      -8.470  19.198  67.013  1.00  0.00    -0.278 NA 
HETATM   10  C   UNL     1      -7.394  18.771  67.765  1.00  0.00    -0.233 C  
HETATM   11  C   UNL     1      -6.229  19.732  67.793  1.00  0.00    -0.233 C  
HETATM   12  C   UNL     1      -7.441  17.576  68.407  1.00  0.00    -0.247 C  
HETATM   13  C   UNL     1      -8.686  16.680  68.294  1.00  0.00    -0.216 C  
BRANCH  12  14
HETATM   14  C   UNL     1      -6.268  17.138  69.210  1.00  0.00    -0.224 C  
HETATM   15  O   UNL     1      -5.531  16.214  68.901  1.00  0.00    -0.110 OA 
BRANCH  14  16
HETATM   16  O   UNL     1      -6.116  17.900  70.321  1.00  0.00    -0.140 OA 
HETATM   17  C   UNL     1      -5.167  17.375  71.262  1.00  0.00    -0.042 C  
ENDBRANCH  14  16
ENDBRANCH  12  14
BRANCH  13  18
HETATM   18  C   UNL     1      -8.375  15.191  68.032  1.00  0.00    -0.147 A  
HETATM   19  C   UNL     1      -7.396  14.897  67.051  1.00  0.00     0.115 A  
HETATM   20  C   UNL     1      -6.946  13.595  66.832  1.00  0.00     0.940 A  
HETATM   21  C   UNL     1      -8.921  14.117  68.765  1.00  0.00    -0.065 A  
HETATM   22  C   UNL     1      -8.455  12.805  68.542  1.00  0.00    -0.044 A  
HETATM   23 CL   UNL     1     -10.140  14.398  69.966  1.00  0.00     0.442 Cl 
HETATM   24 CL   UNL     1      -9.025  11.445  69.452  1.00  0.00     0.352 Cl 
HETATM   25  C   UNL     1      -7.466  12.552  67.586  1.00  0.00    -0.139 A  
ENDBRANCH  13  18
ENDBRANCH   4   6
ENDBRANCH   3   4
ENDBRANCH   2   3
TORSDOF 6
ENDMDL
MODEL      219
REMARK 921   NORMALIZED FREE ENERGY PREDICTED BY IDOCK:    3.14 KCAL/MOL
REMARK 922        TOTAL FREE ENERGY PREDICTED BY IDOCK:    3.02 KCAL/MOL
REMARK 923 INTER-LIGAND FREE ENERGY PREDICTED BY IDOCK:   -2.55 KCAL/MOL
REMARK 924 INTRA-LIGAND FREE ENERGY PREDICTED BY IDOCK:    5.57 KCAL/MOL
REMARK 927      BINDING AFFINITY PREDICTED BY RF-SCORE:    0.00 PKD
ROOT
HETATM    1  C   UNL     1     -10.469   8.849  67.871  1.00  0.00    -0.281 C  
HETATM    2  C   UNL     1     -10.944   9.679  66.698  1.00  0.00     0.217 C  
ENDROOT
BRANCH   2   3
HETATM    3  O   UNL     1     -11.916  10.585  67.226  1.00  0.00     0.248 OA 
BRANCH   3   4
HETATM    4  C   UNL     1     -11.569  11.380  68.261  1.00  0.00    -0.306 C  
HETATM    5  O   UNL     1     -12.275  12.230  68.790  1.00  0.00    -0.185 OA 
BRANCH   4   6
HETATM    6  C   UNL     1     -10.251  10.946  68.785  1.00  0.00    -0.210 C  
HETATM    7  C   UNL     1     -10.099  10.371  70.002  1.00  0.00    -0.025 C  
HETATM    8  C   UNL     1     -11.183  10.031  71.001  1.00  0.00    -0.387 C  
HETATM    9  N   UNL     1      -8.832  10.038  70.445  1.00  0.00     0.030 NA 
HETATM   10  C   UNL     1      -7.654  10.347  69.795  1.00  0.00    -0.133 C  
HETATM   11  C   UNL     1      -6.403   9.999  70.568  1.00  0.00    -0.116 C  
HETATM   12  C   UNL     1      -7.682  10.912  68.562  1.00  0.00    -0.119 C  
HETATM   13  C   UNL     1      -9.024  11.225  67.880  1.00  0.00    -0.146 C  
BRANCH  12  14
HETATM   14  C   UNL     1      -6.399  11.237  67.883  1.00  0.00    -0.054 C  
HETATM   15  O   UNL     1      -6.181  11.040  66.697  1.00  0.00    -0.098 OA 
BRANCH  14  16
HETATM   16  O   UNL     1      -5.508  11.788  68.744  1.00  0.00    -0.049 OA 
HETATM   17  C   UNL     1      -5.285  13.190  68.533  1.00  0.00    -0.070 C  
ENDBRANCH  14  16
ENDBRANCH  12  14
BRANCH  13  18
HETATM   18  C   UNL     1      -9.094  12.623  67.228  1.00  0.00    -0.191 A  
HETATM   19  C   UNL     1      -9.638  12.703  65.923  1.00  0.00    -0.158 A  
HETATM   20  C   UNL     1      -9.870  13.928  65.299  1.00  0.00    -0.170 A  
HETATM   21  C   UNL     1      -8.748  13.827  67.876  1.00  0.00    -0.183 A  
HETATM   22  C   UNL     1      -8.992  15.062  67.240  1.00  0.00    -0.199 A  
HETATM   23 CL   UNL     1      -8.054  13.807  69.465  1.00  0.00     0.579 Cl 
HETATM   24 CL   UNL     1      -8.661  16.584  68.000  1.00  0.00    -0.181 Cl 
HETATM   25  C   UNL     1      -9.558  15.107  65.962  1.00  0.00    -0.365 A  
ENDBRANCH  13  18
ENDBRANCH   4   6
ENDBRANCH   3   4
ENDBRANCH   2   3
TORSDOF 6
ENDMDL
MODEL      220
REMARK 921   NORMALIZED FREE ENERGY PREDICTED BY IDOCK:    3.70 KCAL/MOL
REMARK 922        TOTAL FREE ENERGY PREDICTED BY IDOCK:    3.77 KCAL/MOL
REMARK 923 INTER-LIGAND FREE ENERGY PREDICTED BY IDOCK:    0.53 KCAL/MOL
REMARK 924 INTRA-LIGAND FREE ENERGY PREDICTED BY IDOCK:    3.24 KCAL/MOL
REMARK 927      BINDING AFFINITY PREDICTED BY RF-SCORE:    0.00 PKD
ROOT
HETATM    1  C   UNL     1     -11.569  12.948  71.662  1.00  0.00     2.441 C  
HETATM    2  C   UNL     1     -12.944  12.934  71.031  1.00  0.00    -0.098 C  
ENDROOT
BRANCH   2   3
HETATM    3  O   UNL     1     -13.020  11.719  70.281  1.00  0.00     0.124 OA 
BRANCH   3   4
HETATM    4  C   UNL     1     -12.192  11.554  69.226  1.00  0.00    -0.179 C  
HETATM    5  O   UNL     1     -12.349  12.019  68.104  1.00  0.00    -0.304 OA 
BRANCH   4   6
HETATM    6  C   UNL     1     -10.959  10.866  69.681  1.00  0.00    -0.311 C  
HETATM    7  C   UNL     1     -10.937  10.029  70.746  1.00  0.00    -0.305 C  
HETATM    8  C   UNL     1     -12.104   9.611  71.612  1.00  0.00    -0.481 C  
HETATM    9  N   UNL     1      -9.739   9.463  71.142  1.00  0.00    -0.244 NA 
HETATM   10  C   UNL     1      -8.500   9.765  70.613  1.00  0.00     0.184 C  
HETATM   11  C   UNL     1      -7.338   9.116  71.327  1.00  0.00    -0.054 C  
HETATM   12  C   UNL     1      -8.400  10.582  69.534  1.00  0.00    -0.075 C  
HETATM   13  C   UNL     1      -9.662  11.189  68.897  1.00  0.00    -0.163 C  
BRANCH  12  14
HETATM   14  C   UNL     1      -7.054  10.894  68.982  1.00  0.00    -0.095 C  
HETATM   15  O   UNL     1      -6.810  11.858  68.272  1.00  0.00    -0.059 OA 
BRANCH  14  16
HETATM   16  O   UNL     1      -6.133   9.979  69.375  1.00  0.00    -0.040 OA 
HETATM   17  C   UNL     1      -5.419   9.370  68.290  1.00  0.00    -0.037 C  
ENDBRANCH  14  16
ENDBRANCH  12  14
BRANCH  13  18
HETATM   18  C   UNL     1      -9.545  12.693  68.568  1.00  0.00    -0.112 A  
HETATM   19  C   UNL     1      -9.190  13.563  69.627  1.00  0.00     1.538 A  
HETATM   20  C   UNL     1      -8.928  14.915  69.409  1.00  0.00    -0.044 A  
HETATM   21  C   UNL     1      -9.671  13.242  67.274  1.00  0.00    -0.231 A  
HETATM   22  C   UNL     1      -9.398  14.609  67.062  1.00  0.00    -0.232 A  
HETATM   23 CL   UNL     1     -10.127  12.242  65.932  1.00  0.00    -0.264 Cl 
HETATM   24 CL   UNL     1      -9.460  15.339  65.492  1.00  0.00    -0.249 Cl 
HETATM   25  C   UNL     1      -9.020  15.435  68.125  1.00  0.00    -0.176 A  
ENDBRANCH  13  18
ENDBRANCH   4   6
ENDBRANCH   3   4
ENDBRANCH   2   3
TORSDOF 6
ENDMDL
MODEL      221
REMARK 921   NORMALIZED FREE ENERGY PREDICTED BY IDOCK:    4.57 KCAL/MOL
REMARK 922        TOTAL FREE ENERGY PREDICTED BY IDOCK:    4.95 KCAL/MOL
REMARK 923 INTER-LIGAND FREE ENERGY PREDICTED BY IDOCK:    1.85 KCAL/MOL
REMARK 924 INTRA-LIGAND FREE ENERGY PREDICTED BY IDOCK:    3.10 KCAL/MOL
REMARK 927      BINDING AFFINITY PREDICTED BY RF-SCORE:    0.00 PKD
ROOT
HETATM    1  C   UNL     1      -5.153  16.399  69.277  1.00  0.00    -0.118 C  
HETATM    2  C   UNL     1      -6.413  16.481  70.112  1.00  0.00     0.211 C  
ENDROOT
BRANCH   2   3
HETATM    3  O   UNL     1      -7.156  17.588  69.594  1.00  0.00    -0.034 OA 
BRANCH   3   4
HETATM    4  C   UNL     1      -6.763  18.145  68.428  1.00  0.00    -0.219 C  
HETATM    5  O   UNL     1      -5.608  18.369  68.085  1.00  0.00    -0.167 OA 
BRANCH   4   6
HETATM    6  C   UNL     1      -7.941  18.286  67.537  1.00  0.00    -0.233 C  
HETATM    7  C   UNL     1      -8.680  19.419  67.473  1.00  0.00    -0.304 C  
HETATM    8  C   UNL     1      -8.445  20.714  68.218  1.00  0.00     0.360 C  
HETATM    9  N   UNL     1      -9.795  19.460  66.656  1.00  0.00    -0.346 NA 
HETATM   10  C   UNL     1     -10.314  18.386  65.961  1.00  0.00    -0.375 C  
HETATM   11  C   UNL     1     -11.624  18.664  65.263  1.00  0.00     2.640 C  
HETATM   12  C   UNL     1      -9.651  17.201  65.941  1.00  0.00    -0.110 C  
HETATM   13  C   UNL     1      -8.323  17.039  66.700  1.00  0.00    -0.285 C  
BRANCH  12  14
HETATM   14  C   UNL     1     -10.230  16.058  65.186  1.00  0.00    -0.113 C  
HETATM   15  O   UNL     1      -9.975  14.885  65.413  1.00  0.00    -0.349 OA 
BRANCH  14  16
HETATM   16  O   UNL     1     -11.085  16.483  64.222  1.00  0.00    -0.915 OA 
HETATM   17  C   UNL     1     -11.958  15.458  63.726  1.00  0.00     0.426 C  
ENDBRANCH  14  16
ENDBRANCH  12  14
BRANCH  13  18
HETATM   18  C   UNL     1      -8.217  15.737  67.522  1.00  0.00    -0.181 A  
HETATM   19  C   UNL     1      -9.317  15.401  68.348  1.00  0.00    -0.193 A  
HETATM   20  C   UNL     1      -9.379  14.183  69.026  1.00  0.00     0.079 A  
HETATM   21  C   UNL     1      -7.151  14.817  67.431  1.00  0.00    -0.143 A  
HETATM   22  C   UNL     1      -7.226  13.587  68.115  1.00  0.00    -0.117 A  
HETATM   23 CL   UNL     1      -5.760  15.172  66.457  1.00  0.00     2.168 Cl 
HETATM   24 CL   UNL     1      -5.991  12.377  67.995  1.00  0.00    -0.063 Cl 
HETATM   25  C   UNL     1      -8.340  13.272  68.899  1.00  0.00     0.225 A  
ENDBRANCH  13  18
ENDBRANCH   4   6
ENDBRANCH   3   4
ENDBRANCH   2   3
TORSDOF 6
ENDMDL
MODEL      222
REMARK 921   NORMALIZED FREE ENERGY PREDICTED BY IDOCK:    4.73 KCAL/MOL
REMARK 922        TOTAL FREE ENERGY PREDICTED BY IDOCK:    5.17 KCAL/MOL
REMARK 923 INTER-LIGAND FREE ENERGY PREDICTED BY IDOCK:    0.53 KCAL/MOL
REMARK 924 INTRA-LIGAND FREE ENERGY PREDICTED BY IDOCK:    4.64 KCAL/MOL
REMARK 927      BINDING AFFINITY PREDICTED BY RF-SCORE:    0.00 PKD
ROOT
HETATM    1  C   UNL     1     -11.677   8.382  67.392  1.00  0.00     2.839 C  
HETATM    2  C   UNL     1     -10.650   8.142  66.306  1.00  0.00     0.755 C  
ENDROOT
BRANCH   2   3
HETATM    3  O   UNL     1     -10.009   6.908  66.637  1.00  0.00    -0.184 OA 
BRANCH   3   4
HETATM    4  C   UNL     1      -8.731   6.935  67.073  1.00  0.00    -0.119 C  
HETATM    5  O   UNL     1      -7.768   7.384  66.462  1.00  0.00    -0.090 OA 
BRANCH   4   6
HETATM    6  C   UNL     1      -8.692   6.498  68.490  1.00  0.00    -0.122 C  
HETATM    7  C   UNL     1      -9.150   5.291  68.897  1.00  0.00    -0.111 C  
HETATM    8  C   UNL     1      -9.720   4.185  68.037  1.00  0.00    -0.155 C  
HETATM    9  N   UNL     1      -9.127   4.972  70.243  1.00  0.00    -0.117 NA 
HETATM   10  C   UNL     1      -8.777   5.836  71.260  1.00  0.00    -0.132 C  
HETATM   11  C   UNL     1      -8.982   5.282  72.651  1.00  0.00    -0.135 C  
HETATM   12  C   UNL     1      -8.290   7.069  70.972  1.00  0.00    -0.125 C  
HETATM   13  C   UNL     1      -8.134   7.522  69.510  1.00  0.00    -0.128 C  
BRANCH  12  14
HETATM   14  C   UNL     1      -7.921   7.983  72.086  1.00  0.00    -0.121 C  
HETATM   15  O   UNL     1      -7.222   8.977  71.956  1.00  0.00    -0.315 OA 
BRANCH  14  16
HETATM   16  O   UNL     1      -8.466   7.579  73.260  1.00  0.00    -0.115 OA 
HETATM   17  C   UNL     1      -9.861   7.255  73.173  1.00  0.00    -0.235 C  
ENDBRANCH  14  16
ENDBRANCH  12  14
BRANCH  13  18
HETATM   18  C   UNL     1      -8.644   8.952  69.231  1.00  0.00    -0.133 A  
HETATM   19  C   UNL     1      -9.835   9.354  69.884  1.00  0.00    -0.235 A  
HETATM   20  C   UNL     1     -10.307  10.664  69.806  1.00  0.00    -0.146 A  
HETATM   21  C   UNL     1      -7.959   9.910  68.455  1.00  0.00    -0.086 A  
HETATM   22  C   UNL     1      -8.439  11.234  68.388  1.00  0.00    -0.153 A  
HETATM   23 CL   UNL     1      -6.506   9.484  67.608  1.00  0.00    -0.061 Cl 
HETATM   24 CL   UNL     1      -7.614  12.483  67.515  1.00  0.00    -0.145 Cl 
HETATM   25  C   UNL     1      -9.603  11.606  69.069  1.00  0.00     0.095 A  
ENDBRANCH  13  18
ENDBRANCH   4   6
ENDBRANCH   3   4
ENDBRANCH   2   3
TORSDOF 6
ENDMDL
MODEL      223
REMARK 921   NORMALIZED FREE ENERGY PREDICTED BY IDOCK:    5.97 KCAL/MOL
REMARK 922        TOTAL FREE ENERGY PREDICTED BY IDOCK:    6.84 KCAL/MOL
REMARK 923 INTER-LIGAND FREE ENERGY PREDICTED BY IDOCK:    0.79 KCAL/MOL
REMARK 924 INTRA-LIGAND FREE ENERGY PREDICTED BY IDOCK:    6.05 KCAL/MOL
REMARK 927      BINDING AFFINITY PREDICTED BY RF-SCORE:    0.00 PKD
ROOT
HETATM    1  C   UNL     1     -10.525  14.461  65.298  1.00  0.00    -0.410 C  
HETATM    2  C   UNL     1     -10.052  13.125  65.829  1.00  0.00    -0.285 C  
ENDROOT
BRANCH   2   3
HETATM    3  O   UNL     1     -10.476  13.072  67.193  1.00  0.00    -0.241 OA 
BRANCH   3   4
HETATM    4  C   UNL     1      -9.542  13.117  68.167  1.00  0.00    -0.227 C  
HETATM    5  O   UNL     1      -9.510  12.418  69.173  1.00  0.00     0.291 OA 
BRANCH   4   6
HETATM    6  C   UNL     1      -8.447  14.025  67.747  1.00  0.00    -0.184 C  
HETATM    7  C   UNL     1      -7.140  13.681  67.821  1.00  0.00    -0.161 C  
HETATM    8  C   UNL     1      -6.560  12.361  68.277  1.00  0.00    -0.063 C  
HETATM    9  N   UNL     1      -6.172  14.600  67.458  1.00  0.00    -0.337 NA 
HETATM   10  C   UNL     1      -6.409  15.918  67.123  1.00  0.00    -0.024 C  
HETATM   11  C   UNL     1      -5.163  16.745  66.913  1.00  0.00    -0.118 C  
HETATM   12  C   UNL     1      -7.682  16.373  67.004  1.00  0.00    -0.250 C  
HETATM   13  C   UNL     1      -8.872  15.431  67.251  1.00  0.00    -0.212 C  
BRANCH  12  14
HETATM   14  C   UNL     1      -7.912  17.798  66.643  1.00  0.00    -0.251 C  
HETATM   15  O   UNL     1      -7.336  18.378  65.735  1.00  0.00    -0.462 OA 
BRANCH  14  16
HETATM   16  O   UNL     1      -8.850  18.366  67.442  1.00  0.00    -0.254 OA 
HETATM   17  C   UNL     1      -8.390  18.642  68.773  1.00  0.00    -0.263 C  
ENDBRANCH  14  16
ENDBRANCH  12  14
BRANCH  13  18
HETATM   18  C   UNL     1      -9.991  16.038  68.125  1.00  0.00    -0.228 A  
HETATM   19  C   UNL     1     -10.963  16.834  67.472  1.00  0.00    -0.134 A  
HETATM   20  C   UNL     1     -12.087  17.316  68.143  1.00  0.00     1.985 A  
HETATM   21  C   UNL     1     -10.165  15.775  69.500  1.00  0.00    -0.271 A  
HETATM   22  C   UNL     1     -11.307  16.261  70.169  1.00  0.00    -0.282 A  
HETATM   23 CL   UNL     1      -9.003  14.827  70.372  1.00  0.00     1.034 Cl 
HETATM   24 CL   UNL     1     -11.628  15.919  71.837  1.00  0.00    -0.535 Cl 
HETATM   25  C   UNL     1     -12.265  17.019  69.487  1.00  0.00     2.672 A  
ENDBRANCH  13  18
ENDBRANCH   4   6
ENDBRANCH   3   4
ENDBRANCH   2   3
TORSDOF 6
ENDMDL
MODEL      224
REMARK 921   NORMALIZED FREE ENERGY PREDICTED BY IDOCK:   11.30 KCAL/MOL
REMARK 922        TOTAL FREE ENERGY PREDICTED BY IDOCK:   14.04 KCAL/MOL
REMARK 923 INTER-LIGAND FREE ENERGY PREDICTED BY IDOCK:    7.29 KCAL/MOL
REMARK 924 INTRA-LIGAND FREE ENERGY PREDICTED BY IDOCK:    6.75 KCAL/MOL
REMARK 927      BINDING AFFINITY PREDICTED BY RF-SCORE:    0.00 PKD
ROOT
HETATM    1  C   UNL     1     -11.670  12.612  67.057  1.00  0.00    -0.438 C  
HETATM    2  C   UNL     1     -11.197  12.014  65.750  1.00  0.00    -0.334 C  
ENDROOT
BRANCH   2   3
HETATM    3  O   UNL     1     -10.160  12.876  65.276  1.00  0.00    -0.284 OA 
BRANCH   3   4
HETATM    4  C   UNL     1      -9.217  13.297  66.146  1.00  0.00     0.023 C  
HETATM    5  O   UNL     1      -8.006  13.156  66.026  1.00  0.00     1.321 OA 
BRANCH   4   6
HETATM    6  C   UNL     1      -9.861  14.124  67.197  1.00  0.00    -0.253 C  
HETATM    7  C   UNL     1     -10.200  15.420  67.004  1.00  0.00    -0.262 C  
HETATM    8  C   UNL     1     -10.045  16.234  65.738  1.00  0.00    -0.373 C  
HETATM    9  N   UNL     1     -10.752  16.142  68.047  1.00  0.00    -0.310 NA 
HETATM   10  C   UNL     1     -10.891  15.690  69.344  1.00  0.00    -0.264 C  
HETATM   11  C   UNL     1     -11.386  16.730  70.320  1.00  0.00     0.284 C  
HETATM   12  C   UNL     1     -10.595  14.402  69.653  1.00  0.00    -0.021 C  
HETATM   13  C   UNL     1     -10.091  13.437  68.567  1.00  0.00    -0.208 C  
BRANCH  12  14
HETATM   14  C   UNL     1     -10.752  13.939  71.058  1.00  0.00     2.416 C  
HETATM   15  O   UNL     1     -10.672  14.669  72.035  1.00  0.00     0.953 OA 
BRANCH  14  16
HETATM   16  O   UNL     1     -11.005  12.608  71.116  1.00  0.00     2.813 OA 
HETATM   17  C   UNL     1     -12.189  12.272  71.855  1.00  0.00     0.914 C  
ENDBRANCH  14  16
ENDBRANCH  12  14
BRANCH  13  18
HETATM   18  C   UNL     1      -8.881  12.578  68.993  1.00  0.00     0.484 A  
HETATM   19  C   UNL     1      -7.592  13.123  68.777  1.00  0.00    -0.033 A  
HETATM   20  C   UNL     1      -6.440  12.490  69.246  1.00  0.00    -0.104 A  
HETATM   21  C   UNL     1      -8.973  11.342  69.667  1.00  0.00     0.886 A  
HETATM   22  C   UNL     1      -7.804  10.713  70.143  1.00  0.00     0.549 A  
HETATM   23 CL   UNL     1     -10.517  10.602  69.946  1.00  0.00    -0.209 Cl 
HETATM   24 CL   UNL     1      -7.843   9.232  71.041  1.00  0.00    -0.156 Cl 
HETATM   25  C   UNL     1      -6.548  11.293  69.939  1.00  0.00    -0.108 A  
ENDBRANCH  13  18
ENDBRANCH   4   6
ENDBRANCH   3   4
ENDBRANCH   2   3
TORSDOF 6
ENDMDL
MODEL      225
REMARK 921   NORMALIZED FREE ENERGY PREDICTED BY IDOCK:   13.21 KCAL/MOL
REMARK 922        TOTAL FREE ENERGY PREDICTED BY IDOCK:   16.62 KCAL/MOL
REMARK 923 INTER-LIGAND FREE ENERGY PREDICTED BY IDOCK:    9.02 KCAL/MOL
REMARK 924 INTRA-LIGAND FREE ENERGY PREDICTED BY IDOCK:    7.60 KCAL/MOL
REMARK 927      BINDING AFFINITY PREDICTED BY RF-SCORE:    0.00 PKD
ROOT
HETATM    1  C   UNL     1     -11.320  12.898  67.598  1.00  0.00    -0.349 C  
HETATM    2  C   UNL     1     -11.783  11.942  66.520  1.00  0.00    -0.170 C  
ENDROOT
BRANCH   2   3
HETATM    3  O   UNL     1     -11.637  12.644  65.283  1.00  0.00    -0.321 OA 
BRANCH   3   4
HETATM    4  C   UNL     1     -10.888  13.768  65.259  1.00  0.00    -0.324 C  
HETATM    5  O   UNL     1     -11.218  14.847  64.782  1.00  0.00    -0.387 OA 
BRANCH   4   6
HETATM    6  C   UNL     1      -9.660  13.550  66.061  1.00  0.00    -0.179 C  
HETATM    7  C   UNL     1      -8.978  14.563  66.647  1.00  0.00    -0.219 C  
HETATM    8  C   UNL     1      -9.331  16.033  66.643  1.00  0.00    -0.268 C  
HETATM    9  N   UNL     1      -7.812  14.288  67.339  1.00  0.00    -0.192 NA 
HETATM   10  C   UNL     1      -7.191  13.056  67.397  1.00  0.00    -0.116 C  
HETATM   11  C   UNL     1      -5.852  13.062  68.095  1.00  0.00    -0.093 C  
HETATM   12  C   UNL     1      -7.789  11.964  66.857  1.00  0.00    -0.120 C  
HETATM   13  C   UNL     1      -9.156  12.088  66.164  1.00  0.00    -0.129 C  
BRANCH  12  14
HETATM   14  C   UNL     1      -7.100  10.648  66.933  1.00  0.00    -0.109 C  
HETATM   15  O   UNL     1      -6.422  10.281  67.881  1.00  0.00    -0.060 OA 
BRANCH  14  16
HETATM   16  O   UNL     1      -7.329   9.904  65.822  1.00  0.00    -0.100 OA 
HETATM   17  C   UNL     1      -7.537   8.509  66.088  1.00  0.00    -0.089 C  
ENDBRANCH  14  16
ENDBRANCH  12  14
BRANCH  13  18
HETATM   18  C   UNL     1      -9.252  11.347  64.813  1.00  0.00    -0.047 A  
HETATM   19  C   UNL     1      -8.510  11.877  63.730  1.00  0.00     1.422 A  
HETATM   20  C   UNL     1      -8.421  11.212  62.507  1.00  0.00    -0.235 A  
HETATM   21  C   UNL     1      -9.944  10.135  64.611  1.00  0.00    -0.234 A  
HETATM   22  C   UNL     1      -9.843   9.466  63.374  1.00  0.00     1.589 A  
HETATM   23 CL   UNL     1     -10.894   9.438  65.885  1.00  0.00     0.697 Cl 
HETATM   24 CL   UNL     1     -10.604   7.938  63.075  1.00  0.00     9.359 Cl 
HETATM   25  C   UNL     1      -9.077  10.001  62.334  1.00  0.00    -0.310 A  
ENDBRANCH  13  18
ENDBRANCH   4   6
ENDBRANCH   3   4
ENDBRANCH   2   3
TORSDOF 6
ENDMDL
MODEL      226
REMARK 921   NORMALIZED FREE ENERGY PREDICTED BY IDOCK:   13.87 KCAL/MOL
REMARK 922        TOTAL FREE ENERGY PREDICTED BY IDOCK:   17.51 KCAL/MOL
REMARK 923 INTER-LIGAND FREE ENERGY PREDICTED BY IDOCK:    4.45 KCAL/MOL
REMARK 924 INTRA-LIGAND FREE ENERGY PREDICTED BY IDOCK:   13.06 KCAL/MOL
REMARK 927      BINDING AFFINITY PREDICTED BY RF-SCORE:    0.00 PKD
ROOT
HETATM    1  C   UNL     1      -9.678   7.165  71.781  1.00  0.00    -0.168 C  
HETATM    2  C   UNL     1     -10.574   8.165  72.480  1.00  0.00    -0.340 C  
ENDROOT
BRANCH   2   3
HETATM    3  O   UNL     1     -11.898   7.630  72.400  1.00  0.00    -0.310 OA 
BRANCH   3   4
HETATM    4  C   UNL     1     -12.649   7.914  71.314  1.00  0.00    -0.245 C  
HETATM    5  O   UNL     1     -13.842   8.195  71.313  1.00  0.00    -0.262 OA 
BRANCH   4   6
HETATM    6  C   UNL     1     -11.767   8.012  70.126  1.00  0.00     0.176 C  
HETATM    7  C   UNL     1     -10.830   7.081  69.830  1.00  0.00    -0.251 C  
HETATM    8  C   UNL     1     -10.537   5.800  70.580  1.00  0.00    -0.359 C  
HETATM    9  N   UNL     1     -10.009   7.265  68.732  1.00  0.00    -0.162 NA 
HETATM   10  C   UNL     1      -9.972   8.399  67.946  1.00  0.00    -0.184 C  
HETATM   11  C   UNL     1      -8.880   8.402  66.902  1.00  0.00    -0.157 C  
HETATM   12  C   UNL     1     -10.874   9.394  68.141  1.00  0.00    -0.174 C  
HETATM   13  C   UNL     1     -11.937   9.276  69.245  1.00  0.00     1.046 C  
BRANCH  12  14
HETATM   14  C   UNL     1     -10.813  10.607  67.281  1.00  0.00    -0.287 C  
HETATM   15  O   UNL     1      -9.824  11.315  67.161  1.00  0.00    -0.187 OA 
BRANCH  14  16
HETATM   16  O   UNL     1     -11.989  10.819  66.640  1.00  0.00     0.486 OA 
HETATM   17  C   UNL     1     -12.231  12.194  66.309  1.00  0.00     0.293 C  
ENDBRANCH  14  16
ENDBRANCH  12  14
BRANCH  13  18
HETATM   18  C   UNL     1     -12.114  10.553  70.095  1.00  0.00    -0.380 A  
HETATM   19  C   UNL     1     -13.240  10.609  70.952  1.00  0.00    -0.222 A  
HETATM   20  C   UNL     1     -13.421  11.654  71.858  1.00  0.00    -0.269 A  
HETATM   21  C   UNL     1     -11.188  11.615  70.149  1.00  0.00     0.142 A  
HETATM   22  C   UNL     1     -11.374  12.664  71.071  1.00  0.00     2.084 A  
HETATM   23 CL   UNL     1      -9.797  11.626  69.111  1.00  0.00     0.045 Cl 
HETATM   24 CL   UNL     1     -10.243  13.965  71.247  1.00  0.00     3.980 Cl 
HETATM   25  C   UNL     1     -12.482  12.675  71.926  1.00  0.00     0.158 A  
ENDBRANCH  13  18
ENDBRANCH   4   6
ENDBRANCH   3   4
ENDBRANCH   2   3
TORSDOF 6
ENDMDL
MODEL      227
REMARK 921   NORMALIZED FREE ENERGY PREDICTED BY IDOCK:   27.00 KCAL/MOL
REMARK 922        TOTAL FREE ENERGY PREDICTED BY IDOCK:   35.24 KCAL/MOL
REMARK 923 INTER-LIGAND FREE ENERGY PREDICTED BY IDOCK:   10.54 KCAL/MOL
REMARK 924 INTRA-LIGAND FREE ENERGY PREDICTED BY IDOCK:   24.70 KCAL/MOL
REMARK 927      BINDING AFFINITY PREDICTED BY RF-SCORE:    0.00 PKD
ROOT
HETATM    1  C   UNL     1     -10.245  15.054  70.393  1.00  0.00     0.150 C  
HETATM    2  C   UNL     1      -8.802  14.749  70.051  1.00  0.00     0.662 C  
ENDROOT
BRANCH   2   3
HETATM    3  O   UNL     1      -8.816  13.485  69.382  1.00  0.00     0.623 OA 
BRANCH   3   4
HETATM    4  C   UNL     1      -8.092  12.469  69.898  1.00  0.00     2.343 C  
HETATM    5  O   UNL     1      -7.625  12.415  71.029  1.00  0.00     4.344 OA 
BRANCH   4   6
HETATM    6  C   UNL     1      -8.096  11.336  68.941  1.00  0.00    -0.090 C  
HETATM    7  C   UNL     1      -6.982  10.627  68.640  1.00  0.00    -0.072 C  
HETATM    8  C   UNL     1      -5.595  10.802  69.218  1.00  0.00    -0.041 C  
HETATM    9  N   UNL     1      -7.052   9.615  67.699  1.00  0.00    -0.087 NA 
HETATM   10  C   UNL     1      -8.156   9.321  66.925  1.00  0.00    -0.108 C  
HETATM   11  C   UNL     1      -7.919   8.267  65.870  1.00  0.00    -0.097 C  
HETATM   12  C   UNL     1      -9.334   9.959  67.146  1.00  0.00    -0.170 C  
HETATM   13  C   UNL     1      -9.448  11.023  68.251  1.00  0.00    -0.172 C  
BRANCH  12  14
HETATM   14  C   UNL     1     -10.510   9.625  66.299  1.00  0.00    -0.079 C  
HETATM   15  O   UNL     1     -10.486   8.824  65.377  1.00  0.00     1.223 OA 
BRANCH  14  16
HETATM   16  O   UNL     1     -11.612  10.314  66.687  1.00  0.00     0.309 OA 
HETATM   17  C   UNL     1     -12.281   9.748  67.823  1.00  0.00     3.999 C  
ENDBRANCH  14  16
ENDBRANCH  12  14
BRANCH  13  18
HETATM   18  C   UNL     1     -10.189  12.307  67.822  1.00  0.00    -0.206 A  
HETATM   19  C   UNL     1     -10.205  13.384  68.742  1.00  0.00    -0.128 A  
HETATM   20  C   UNL     1     -10.729  14.631  68.402  1.00  0.00    -0.242 A  
HETATM   21  C   UNL     1     -10.759  12.515  66.549  1.00  0.00    -0.240 A  
HETATM   22  C   UNL     1     -11.280  13.781  66.211  1.00  0.00    -0.306 A  
HETATM   23 CL   UNL     1     -10.796  11.236  65.378  1.00  0.00    -0.294 Cl 
HETATM   24 CL   UNL     1     -11.931  14.134  64.645  1.00  0.00    -0.432 Cl 
HETATM   25  C   UNL     1     -11.255  14.833  67.133  1.00  0.00    -0.346 A  
ENDBRANCH  13  18
ENDBRANCH   4   6
ENDBRANCH   3   4
ENDBRANCH   2   3
TORSDOF 6
ENDMDL
MODEL      228
REMARK 921   NORMALIZED FREE ENERGY PREDICTED BY IDOCK:   42.90 KCAL/MOL
REMARK 922        TOTAL FREE ENERGY PREDICTED BY IDOCK:   56.72 KCAL/MOL
REMARK 923 INTER-LIGAND FREE ENERGY PREDICTED BY IDOCK:   36.01 KCAL/MOL
REMARK 924 INTRA-LIGAND FREE ENERGY PREDICTED BY IDOCK:   20.71 KCAL/MOL
REMARK 927      BINDING AFFINITY PREDICTED BY RF-SCORE:    0.00 PKD
ROOT
HETATM    1  C   UNL     1     -13.050  15.164  67.457  1.00  0.00     3.057 C  
HETATM    2  C   UNL     1     -12.990  16.037  66.222  1.00  0.00     3.940 C  
ENDROOT
BRANCH   2   3
HETATM    3  O   UNL     1     -11.611  16.372  66.044  1.00  0.00     0.561 OA 
BRANCH   3   4
HETATM    4  C   UNL     1     -10.815  16.447  67.132  1.00  0.00    -0.169 C  
HETATM    5  O   UNL     1      -9.644  16.807  67.149  1.00  0.00    -0.229 OA 
BRANCH   4   6
HETATM    6  C   UNL     1     -11.629  16.196  68.347  1.00  0.00    -0.228 C  
HETATM    7  C   UNL     1     -12.307  17.176  68.990  1.00  0.00     3.154 C  
HETATM    8  C   UNL     1     -12.408  18.634  68.600  1.00  0.00     6.538 C  
HETATM    9  N   UNL     1     -13.005  16.876  70.146  1.00  0.00     3.977 NA 
HETATM   10  C   UNL     1     -12.985  15.658  70.796  1.00  0.00    -0.359 C  
HETATM   11  C   UNL     1     -13.714  15.642  72.118  1.00  0.00    -0.554 C  
HETATM   12  C   UNL     1     -12.348  14.598  70.238  1.00  0.00    -0.406 C  
HETATM   13  C   UNL     1     -11.632  14.743  68.885  1.00  0.00    -0.340 C  
BRANCH  12  14
HETATM   14  C   UNL     1     -12.339  13.296  70.959  1.00  0.00    -0.291 C  
HETATM   15  O   UNL     1     -12.867  12.276  70.540  1.00  0.00    -0.022 OA 
BRANCH  14  16
HETATM   16  O   UNL     1     -11.662  13.382  72.130  1.00  0.00     1.395 OA 
HETATM   17  C   UNL     1     -12.470  13.800  73.240  1.00  0.00     0.840 C  
ENDBRANCH  14  16
ENDBRANCH  12  14
BRANCH  13  18
HETATM   18  C   UNL     1     -10.226  14.107  68.839  1.00  0.00    -0.181 A  
HETATM   19  C   UNL     1      -9.471  14.290  67.654  1.00  0.00    -0.211 A  
HETATM   20  C   UNL     1      -8.144  13.873  67.560  1.00  0.00    -0.191 A  
HETATM   21  C   UNL     1      -9.609  13.446  69.921  1.00  0.00     2.236 A  
HETATM   22  C   UNL     1      -8.265  13.034  69.819  1.00  0.00     1.996 A  
HETATM   23 CL   UNL     1     -10.480  13.165  71.395  1.00  0.00     5.978 Cl 
HETATM   24 CL   UNL     1      -7.418  12.283  71.131  1.00  0.00     5.613 Cl 
HETATM   25  C   UNL     1      -7.537  13.257  68.646  1.00  0.00    -0.094 A  
ENDBRANCH  13  18
ENDBRANCH   4   6
ENDBRANCH   3   4
ENDBRANCH   2   3
TORSDOF 6
ENDMDL
MODEL      229
REMARK 921   NORMALIZED FREE ENERGY PREDICTED BY IDOCK:   45.52 KCAL/MOL
REMARK 922        TOTAL FREE ENERGY PREDICTED BY IDOCK:   60.26 KCAL/MOL
REMARK 923 INTER-LIGAND FREE ENERGY PREDICTED BY IDOCK:   36.34 KCAL/MOL
REMARK 924 INTRA-LIGAND FREE ENERGY PREDICTED BY IDOCK:   23.92 KCAL/MOL
REMARK 927      BINDING AFFINITY PREDICTED BY RF-SCORE:    0.00 PKD
ROOT
HETATM    1  C   UNL     1     -11.256  16.008  72.725  1.00  0.00     0.552 C  
HETATM    2  C   UNL     1     -11.691  14.843  71.862  1.00  0.00    -0.313 C  
ENDROOT
BRANCH   2   3
HETATM    3  O   UNL     1     -11.787  15.355  70.530  1.00  0.00    -0.283 OA 
BRANCH   3   4
HETATM    4  C   UNL     1     -12.306  14.564  69.566  1.00  0.00    -0.208 C  
HETATM    5  O   UNL     1     -13.479  14.231  69.458  1.00  0.00     1.280 OA 
BRANCH   4   6
HETATM    6  C   UNL     1     -11.264  14.299  68.543  1.00  0.00    -0.289 C  
HETATM    7  C   UNL     1     -11.492  13.543  67.444  1.00  0.00    -0.336 C  
HETATM    8  C   UNL     1     -12.792  12.890  67.030  1.00  0.00     1.626 C  
HETATM    9  N   UNL     1     -10.458  13.298  66.559  1.00  0.00    -0.278 NA 
HETATM   10  C   UNL     1      -9.141  13.666  66.751  1.00  0.00    -0.217 C  
HETATM   11  C   UNL     1      -8.186  13.145  65.702  1.00  0.00     2.481 C  
HETATM   12  C   UNL     1      -8.795  14.437  67.812  1.00  0.00    -0.186 C  
HETATM   13  C   UNL     1      -9.862  14.900  68.818  1.00  0.00    -0.225 C  
BRANCH  12  14
HETATM   14  C   UNL     1      -7.369  14.819  67.998  1.00  0.00    -0.133 C  
HETATM   15  O   UNL     1      -6.994  15.936  68.322  1.00  0.00    -0.112 OA 
BRANCH  14  16
HETATM   16  O   UNL     1      -6.541  13.768  67.774  1.00  0.00    -0.148 OA 
HETATM   17  C   UNL     1      -7.140  12.490  68.034  1.00  0.00    -0.103 C  
ENDBRANCH  14  16
ENDBRANCH  12  14
BRANCH  13  18
HETATM   18  C   UNL     1      -9.448  14.747  70.298  1.00  0.00     0.865 A  
HETATM   19  C   UNL     1     -10.356  14.084  71.159  1.00  0.00     3.378 A  
HETATM   20  C   UNL     1     -10.023  13.776  72.478  1.00  0.00     9.881 A  
HETATM   21  C   UNL     1      -8.197  15.133  70.824  1.00  0.00     1.996 A  
HETATM   22  C   UNL     1      -7.867  14.811  72.156  1.00  0.00     5.242 A  
HETATM   23 CL   UNL     1      -7.045  15.970  69.835  1.00  0.00     0.005 Cl 
HETATM   24 CL   UNL     1      -6.324  15.186  72.851  1.00  0.00     1.527 Cl 
HETATM   25  C   UNL     1      -8.774  14.128  72.972  1.00  0.00    10.333 A  
ENDBRANCH  13  18
ENDBRANCH   4   6
ENDBRANCH   3   4
ENDBRANCH   2   3
TORSDOF 6
ENDMDL
MODEL      230
REMARK 921   NORMALIZED FREE ENERGY PREDICTED BY IDOCK:   61.64 KCAL/MOL
REMARK 922        TOTAL FREE ENERGY PREDICTED BY IDOCK:   82.04 KCAL/MOL
REMARK 923 INTER-LIGAND FREE ENERGY PREDICTED BY IDOCK:   55.93 KCAL/MOL
REMARK 924 INTRA-LIGAND FREE ENERGY PREDICTED BY IDOCK:   26.11 KCAL/MOL
REMARK 927      BINDING AFFINITY PREDICTED BY RF-SCORE:    0.00 PKD
ROOT
HETATM    1  C   UNL     1     -10.325  12.148  68.482  1.00  0.00    -0.233 C  
HETATM    2  C   UNL     1     -11.603  11.364  68.685  1.00  0.00    -0.320 C  
ENDROOT
BRANCH   2   3
HETATM    3  O   UNL     1     -11.501  10.776  69.984  1.00  0.00    -0.281 OA 
BRANCH   3   4
HETATM    4  C   UNL     1     -11.169  11.564  71.030  1.00  0.00     1.722 C  
HETATM    5  O   UNL     1     -11.931  11.976  71.896  1.00  0.00     0.932 OA 
BRANCH   4   6
HETATM    6  C   UNL     1      -9.694  11.713  71.075  1.00  0.00     7.322 C  
HETATM    7  C   UNL     1      -8.951  11.334  72.142  1.00  0.00    15.173 C  
HETATM    8  C   UNL     1      -9.436  10.676  73.414  1.00  0.00    14.740 C  
HETATM    9  N   UNL     1      -7.585  11.551  72.132  1.00  0.00     9.432 NA 
HETATM   10  C   UNL     1      -6.895  12.243  71.157  1.00  0.00     3.500 C  
HETATM   11  C   UNL     1      -5.432  12.465  71.464  1.00  0.00     0.118 C  
HETATM   12  C   UNL     1      -7.533  12.660  70.035  1.00  0.00     1.633 C  
HETATM   13  C   UNL     1      -9.032  12.378  69.841  1.00  0.00     2.939 C  
BRANCH  12  14
HETATM   14  C   UNL     1      -6.767  13.405  68.999  1.00  0.00    -0.108 C  
HETATM   15  O   UNL     1      -6.863  14.608  68.807  1.00  0.00    -0.086 OA 
BRANCH  14  16
HETATM   16  O   UNL     1      -5.943  12.582  68.304  1.00  0.00    -0.054 OA 
HETATM   17  C   UNL     1      -5.876  11.248  68.828  1.00  0.00    -0.043 C  
ENDBRANCH  14  16
ENDBRANCH  12  14
BRANCH  13  18
HETATM   18  C   UNL     1      -9.845  13.587  69.331  1.00  0.00     0.656 A  
HETATM   19  C   UNL     1      -9.628  14.831  69.972  1.00  0.00     0.440 A  
HETATM   20  C   UNL     1     -10.209  16.009  69.504  1.00  0.00    -0.274 A  
HETATM   21  C   UNL     1     -10.708  13.560  68.215  1.00  0.00    -0.258 A  
HETATM   22  C   UNL     1     -11.285  14.756  67.744  1.00  0.00    -0.313 A  
HETATM   23 CL   UNL     1     -11.040  12.068  67.394  1.00  0.00    -0.313 Cl 
HETATM   24 CL   UNL     1     -12.297  14.814  66.338  1.00  0.00    -0.065 Cl 
HETATM   25  C   UNL     1     -11.027  15.973  68.383  1.00  0.00    -0.331 A  
ENDBRANCH  13  18
ENDBRANCH   4   6
ENDBRANCH   3   4
ENDBRANCH   2   3
TORSDOF 6
ENDMDL
