MODEL        1
REMARK 921   NORMALIZED FREE ENERGY PREDICTED BY IDOCK:   -6.82 KCAL/MOL
REMARK 922        TOTAL FREE ENERGY PREDICTED BY IDOCK:   -9.08 KCAL/MOL
REMARK 923 INTER-LIGAND FREE ENERGY PREDICTED BY IDOCK:   -8.42 KCAL/MOL
REMARK 924 INTRA-LIGAND FREE ENERGY PREDICTED BY IDOCK:   -0.66 KCAL/MOL
REMARK 927      BINDING AFFINITY PREDICTED BY RF-SCORE:    0.00 PKD
ROOT
HETATM    1  O   UNL     1     -11.054  17.252  64.679  1.00  0.00    -1.052 OA 
HETATM    2  C   UNL     1     -11.503  15.983  64.567  1.00  0.00    -0.271 C  
HETATM    3  C   UNL     1     -10.752  15.007  65.428  1.00  0.00    -0.389 C  
HETATM    4  O   UNL     1     -12.460  15.690  63.872  1.00  0.00    -0.693 OA 
ENDROOT
BRANCH   3   5
HETATM    5  C   UNL     1     -10.770  13.613  64.811  1.00  0.00    -0.420 C  
BRANCH   5   6
HETATM    6  C   UNL     1     -11.825  12.763  65.484  1.00  0.00    -0.422 C  
HETATM    7  O   UNL     1     -12.930  12.625  64.963  1.00  0.00    -0.812 OA 
BRANCH   6   8
HETATM    8  C   UNL     1     -11.501  12.024  66.741  1.00  0.00    -0.410 A  
HETATM    9  C   UNL     1     -10.755  10.845  66.749  1.00  0.00    -0.309 A  
HETATM   10  C   UNL     1     -10.563  10.142  67.945  1.00  0.00    -0.294 A  
HETATM   11  C   UNL     1     -11.100  10.587  69.166  1.00  0.00    -0.302 A  
HETATM   12  C   UNL     1     -12.008  12.509  67.950  1.00  0.00    -0.283 A  
HETATM   13  C   UNL     1     -11.801  11.807  69.145  1.00  0.00    -0.389 A  
BRANCH  11  14
HETATM   14  C   UNL     1     -10.971   9.775  70.400  1.00  0.00    -0.371 A  
HETATM   15  C   UNL     1      -9.720   9.337  70.871  1.00  0.00    -0.346 A  
HETATM   16  C   UNL     1      -9.609   8.489  71.979  1.00  0.00    -0.371 A  
HETATM   17  C   UNL     1     -10.750   8.077  72.659  1.00  0.00    -0.426 A  
HETATM   18  C   UNL     1     -11.999   8.518  72.235  1.00  0.00    -0.454 A  
HETATM   19  C   UNL     1     -12.106   9.353  71.118  1.00  0.00    -0.406 A  
ENDBRANCH  11  14
ENDBRANCH   6   8
ENDBRANCH   5   6
ENDBRANCH   3   5
TORSDOF 4
ENDMDL
MODEL        2
REMARK 921   NORMALIZED FREE ENERGY PREDICTED BY IDOCK:   -6.79 KCAL/MOL
REMARK 922        TOTAL FREE ENERGY PREDICTED BY IDOCK:   -9.04 KCAL/MOL
REMARK 923 INTER-LIGAND FREE ENERGY PREDICTED BY IDOCK:   -8.28 KCAL/MOL
REMARK 924 INTRA-LIGAND FREE ENERGY PREDICTED BY IDOCK:   -0.76 KCAL/MOL
REMARK 927      BINDING AFFINITY PREDICTED BY RF-SCORE:    0.00 PKD
ROOT
HETATM    1  O   UNL     1     -13.341  11.860  62.989  1.00  0.00    -0.400 OA 
HETATM    2  C   UNL     1     -12.399  12.647  63.552  1.00  0.00    -0.496 C  
HETATM    3  C   UNL     1     -11.052  11.988  63.650  1.00  0.00    -0.525 C  
HETATM    4  O   UNL     1     -12.626  13.796  63.890  1.00  0.00    -0.701 OA 
ENDROOT
BRANCH   3   5
HETATM    5  C   UNL     1     -10.260  12.542  64.828  1.00  0.00    -0.304 C  
BRANCH   5   6
HETATM    6  C   UNL     1     -10.626  11.798  66.094  1.00  0.00    -0.260 C  
HETATM    7  O   UNL     1     -10.379  10.598  66.196  1.00  0.00    -0.245 OA 
BRANCH   6   8
HETATM    8  C   UNL     1     -11.215  12.535  67.252  1.00  0.00    -0.347 A  
HETATM    9  C   UNL     1     -11.515  13.896  67.203  1.00  0.00    -0.370 A  
HETATM   10  C   UNL     1     -11.975  14.557  68.348  1.00  0.00    -0.309 A  
HETATM   11  C   UNL     1     -12.154  13.890  69.572  1.00  0.00    -0.393 A  
HETATM   12  C   UNL     1     -11.427  11.840  68.447  1.00  0.00    -0.354 A  
HETATM   13  C   UNL     1     -11.900  12.507  69.585  1.00  0.00    -0.382 A  
BRANCH  11  14
HETATM   14  C   UNL     1     -12.544  14.630  70.798  1.00  0.00    -0.415 A  
HETATM   15  C   UNL     1     -11.587  15.234  71.633  1.00  0.00    -0.473 A  
HETATM   16  C   UNL     1     -11.949  15.847  72.839  1.00  0.00    -0.609 A  
HETATM   17  C   UNL     1     -13.283  15.888  73.227  1.00  0.00    -0.698 A  
HETATM   18  C   UNL     1     -14.255  15.326  72.407  1.00  0.00    -0.579 A  
HETATM   19  C   UNL     1     -13.888  14.701  71.210  1.00  0.00    -0.420 A  
ENDBRANCH  11  14
ENDBRANCH   6   8
ENDBRANCH   5   6
ENDBRANCH   3   5
TORSDOF 4
ENDMDL
MODEL        3
REMARK 921   NORMALIZED FREE ENERGY PREDICTED BY IDOCK:   -6.76 KCAL/MOL
REMARK 922        TOTAL FREE ENERGY PREDICTED BY IDOCK:   -9.00 KCAL/MOL
REMARK 923 INTER-LIGAND FREE ENERGY PREDICTED BY IDOCK:   -8.18 KCAL/MOL
REMARK 924 INTRA-LIGAND FREE ENERGY PREDICTED BY IDOCK:   -0.82 KCAL/MOL
REMARK 927      BINDING AFFINITY PREDICTED BY RF-SCORE:    0.00 PKD
ROOT
HETATM    1  O   UNL     1     -12.666  13.965  63.110  1.00  0.00    -0.718 OA 
HETATM    2  C   UNL     1     -12.243  13.036  63.995  1.00  0.00    -0.417 C  
HETATM    3  C   UNL     1     -10.781  12.712  63.867  1.00  0.00    -0.465 C  
HETATM    4  O   UNL     1     -12.979  12.561  64.843  1.00  0.00    -0.821 OA 
ENDROOT
BRANCH   3   5
HETATM    5  C   UNL     1     -10.499  11.285  64.320  1.00  0.00    -0.419 C  
BRANCH   5   6
HETATM    6  C   UNL     1      -9.683  11.297  65.593  1.00  0.00    -0.230 C  
HETATM    7  O   UNL     1      -8.500  10.965  65.570  1.00  0.00    -0.172 OA 
BRANCH   6   8
HETATM    8  C   UNL     1     -10.289  11.790  66.866  1.00  0.00    -0.247 A  
HETATM    9  C   UNL     1     -11.197  11.034  67.608  1.00  0.00    -0.373 A  
HETATM   10  C   UNL     1     -11.808  11.583  68.742  1.00  0.00    -0.394 A  
HETATM   11  C   UNL     1     -11.537  12.893  69.175  1.00  0.00    -0.375 A  
HETATM   12  C   UNL     1      -9.970  13.079  67.303  1.00  0.00    -0.232 A  
HETATM   13  C   UNL     1     -10.577  13.617  68.446  1.00  0.00    -0.260 A  
BRANCH  11  14
HETATM   14  C   UNL     1     -12.271  13.489  70.318  1.00  0.00    -0.417 A  
HETATM   15  C   UNL     1     -12.797  12.696  71.355  1.00  0.00    -0.358 A  
HETATM   16  C   UNL     1     -13.573  13.250  72.379  1.00  0.00    -0.694 A  
HETATM   17  C   UNL     1     -13.824  14.617  72.403  1.00  0.00    -0.580 A  
HETATM   18  C   UNL     1     -13.293  15.431  71.408  1.00  0.00    -0.601 A  
HETATM   19  C   UNL     1     -12.530  14.871  70.377  1.00  0.00    -0.403 A  
ENDBRANCH  11  14
ENDBRANCH   6   8
ENDBRANCH   5   6
ENDBRANCH   3   5
TORSDOF 4
ENDMDL
MODEL        4
REMARK 921   NORMALIZED FREE ENERGY PREDICTED BY IDOCK:   -6.62 KCAL/MOL
REMARK 922        TOTAL FREE ENERGY PREDICTED BY IDOCK:   -8.83 KCAL/MOL
REMARK 923 INTER-LIGAND FREE ENERGY PREDICTED BY IDOCK:   -8.22 KCAL/MOL
REMARK 924 INTRA-LIGAND FREE ENERGY PREDICTED BY IDOCK:   -0.62 KCAL/MOL
REMARK 927      BINDING AFFINITY PREDICTED BY RF-SCORE:    0.00 PKD
ROOT
HETATM    1  O   UNL     1     -11.075  11.715  63.280  1.00  0.00    -0.354 OA 
HETATM    2  C   UNL     1     -12.089  12.462  63.768  1.00  0.00    -0.529 C  
HETATM    3  C   UNL     1     -11.632  13.740  64.413  1.00  0.00    -0.418 C  
HETATM    4  O   UNL     1     -13.258  12.138  63.639  1.00  0.00    -0.770 OA 
ENDROOT
BRANCH   3   5
HETATM    5  C   UNL     1     -12.605  14.178  65.501  1.00  0.00    -0.501 C  
BRANCH   5   6
HETATM    6  C   UNL     1     -11.859  14.432  66.792  1.00  0.00    -0.410 C  
HETATM    7  O   UNL     1     -11.382  15.541  67.021  1.00  0.00    -0.244 OA 
BRANCH   6   8
HETATM    8  C   UNL     1     -11.768  13.358  67.827  1.00  0.00    -0.394 A  
HETATM    9  C   UNL     1     -11.499  12.028  67.508  1.00  0.00    -0.403 A  
HETATM   10  C   UNL     1     -11.521  11.046  68.507  1.00  0.00    -0.379 A  
HETATM   11  C   UNL     1     -11.806  11.354  69.848  1.00  0.00    -0.435 A  
HETATM   12  C   UNL     1     -12.011  13.696  69.162  1.00  0.00    -0.394 A  
HETATM   13  C   UNL     1     -12.019  12.710  70.157  1.00  0.00    -0.375 A  
BRANCH  11  14
HETATM   14  C   UNL     1     -11.925  10.286  70.870  1.00  0.00    -0.473 A  
HETATM   15  C   UNL     1     -10.852   9.427  71.171  1.00  0.00    -0.427 A  
HETATM   16  C   UNL     1     -10.997   8.358  72.064  1.00  0.00    -0.394 A  
HETATM   17  C   UNL     1     -12.215   8.137  72.695  1.00  0.00    -0.270 A  
HETATM   18  C   UNL     1     -13.286   8.988  72.441  1.00  0.00    -0.516 A  
HETATM   19  C   UNL     1     -13.142  10.046  71.537  1.00  0.00    -0.531 A  
ENDBRANCH  11  14
ENDBRANCH   6   8
ENDBRANCH   5   6
ENDBRANCH   3   5
TORSDOF 4
ENDMDL
MODEL        5
REMARK 921   NORMALIZED FREE ENERGY PREDICTED BY IDOCK:   -6.59 KCAL/MOL
REMARK 922        TOTAL FREE ENERGY PREDICTED BY IDOCK:   -8.79 KCAL/MOL
REMARK 923 INTER-LIGAND FREE ENERGY PREDICTED BY IDOCK:   -8.13 KCAL/MOL
REMARK 924 INTRA-LIGAND FREE ENERGY PREDICTED BY IDOCK:   -0.66 KCAL/MOL
REMARK 927      BINDING AFFINITY PREDICTED BY RF-SCORE:    0.00 PKD
ROOT
HETATM    1  O   UNL     1     -10.858  12.167  63.091  1.00  0.00    -0.366 OA 
HETATM    2  C   UNL     1     -11.946  12.662  63.720  1.00  0.00    -0.510 C  
HETATM    3  C   UNL     1     -11.695  13.981  64.395  1.00  0.00    -0.415 C  
HETATM    4  O   UNL     1     -13.030  12.105  63.684  1.00  0.00    -0.780 OA 
ENDROOT
BRANCH   3   5
HETATM    5  C   UNL     1     -12.616  14.160  65.597  1.00  0.00    -0.495 C  
BRANCH   5   6
HETATM    6  C   UNL     1     -11.796  14.298  66.861  1.00  0.00    -0.433 C  
HETATM    7  O   UNL     1     -11.148  15.322  67.066  1.00  0.00    -0.327 OA 
BRANCH   6   8
HETATM    8  C   UNL     1     -11.836  13.225  67.899  1.00  0.00    -0.388 A  
HETATM    9  C   UNL     1     -12.089  13.490  69.245  1.00  0.00    -0.335 A  
HETATM   10  C   UNL     1     -12.019  12.459  70.190  1.00  0.00    -0.376 A  
HETATM   11  C   UNL     1     -11.700  11.138  69.831  1.00  0.00    -0.433 A  
HETATM   12  C   UNL     1     -11.560  11.910  67.511  1.00  0.00    -0.374 A  
HETATM   13  C   UNL     1     -11.504  10.882  68.462  1.00  0.00    -0.380 A  
BRANCH  11  14
HETATM   14  C   UNL     1     -11.530  10.084  70.860  1.00  0.00    -0.452 A  
HETATM   15  C   UNL     1     -10.292   9.452  71.076  1.00  0.00    -0.382 A  
HETATM   16  C   UNL     1     -10.158   8.391  71.979  1.00  0.00    -0.364 A  
HETATM   17  C   UNL     1     -11.258   7.950  72.706  1.00  0.00    -0.466 A  
HETATM   18  C   UNL     1     -12.489   8.575  72.536  1.00  0.00    -0.358 A  
HETATM   19  C   UNL     1     -12.622   9.626  71.622  1.00  0.00    -0.493 A  
ENDBRANCH  11  14
ENDBRANCH   6   8
ENDBRANCH   5   6
ENDBRANCH   3   5
TORSDOF 4
ENDMDL
MODEL        6
REMARK 921   NORMALIZED FREE ENERGY PREDICTED BY IDOCK:   -6.53 KCAL/MOL
REMARK 922        TOTAL FREE ENERGY PREDICTED BY IDOCK:   -8.72 KCAL/MOL
REMARK 923 INTER-LIGAND FREE ENERGY PREDICTED BY IDOCK:   -8.25 KCAL/MOL
REMARK 924 INTRA-LIGAND FREE ENERGY PREDICTED BY IDOCK:   -0.47 KCAL/MOL
REMARK 927      BINDING AFFINITY PREDICTED BY RF-SCORE:    0.00 PKD
ROOT
HETATM    1  O   UNL     1     -12.654  14.963  63.872  1.00  0.00    -0.831 OA 
HETATM    2  C   UNL     1     -11.543  15.577  64.334  1.00  0.00    -0.258 C  
HETATM    3  C   UNL     1     -10.586  14.641  65.019  1.00  0.00    -0.461 C  
HETATM    4  O   UNL     1     -11.330  16.764  64.154  1.00  0.00    -1.194 OA 
ENDROOT
BRANCH   3   5
HETATM    5  C   UNL     1      -9.771  15.376  66.076  1.00  0.00    -0.370 C  
BRANCH   5   6
HETATM    6  C   UNL     1     -10.594  15.557  67.333  1.00  0.00    -0.292 C  
HETATM    7  O   UNL     1     -10.968  16.679  67.667  1.00  0.00    -0.296 OA 
BRANCH   6   8
HETATM    8  C   UNL     1     -11.021  14.366  68.125  1.00  0.00    -0.265 A  
HETATM    9  C   UNL     1     -11.939  14.448  69.171  1.00  0.00    -0.357 A  
HETATM   10  C   UNL     1     -12.231  13.317  69.943  1.00  0.00    -0.313 A  
HETATM   11  C   UNL     1     -11.624  12.072  69.700  1.00  0.00    -0.371 A  
HETATM   12  C   UNL     1     -10.438  13.128  67.836  1.00  0.00    -0.245 A  
HETATM   13  C   UNL     1     -10.744  11.997  68.605  1.00  0.00    -0.266 A  
BRANCH  11  14
HETATM   14  C   UNL     1     -11.870  10.913  70.592  1.00  0.00    -0.453 A  
HETATM   15  C   UNL     1     -10.986   9.819  70.646  1.00  0.00    -0.398 A  
HETATM   16  C   UNL     1     -11.270   8.685  71.415  1.00  0.00    -0.345 A  
HETATM   17  C   UNL     1     -12.437   8.626  72.168  1.00  0.00    -0.453 A  
HETATM   18  C   UNL     1     -13.316   9.704  72.158  1.00  0.00    -0.545 A  
HETATM   19  C   UNL     1     -13.036  10.830  71.377  1.00  0.00    -0.535 A  
ENDBRANCH  11  14
ENDBRANCH   6   8
ENDBRANCH   5   6
ENDBRANCH   3   5
TORSDOF 4
ENDMDL
MODEL        7
REMARK 921   NORMALIZED FREE ENERGY PREDICTED BY IDOCK:   -6.52 KCAL/MOL
REMARK 922        TOTAL FREE ENERGY PREDICTED BY IDOCK:   -8.71 KCAL/MOL
REMARK 923 INTER-LIGAND FREE ENERGY PREDICTED BY IDOCK:   -8.09 KCAL/MOL
REMARK 924 INTRA-LIGAND FREE ENERGY PREDICTED BY IDOCK:   -0.61 KCAL/MOL
REMARK 927      BINDING AFFINITY PREDICTED BY RF-SCORE:    0.00 PKD
ROOT
HETATM    1  O   UNL     1      -9.481  17.718  65.740  1.00  0.00    -0.518 OA 
HETATM    2  C   UNL     1     -10.454  16.890  65.300  1.00  0.00    -0.081 C  
HETATM    3  C   UNL     1     -10.530  15.600  66.068  1.00  0.00    -0.343 C  
HETATM    4  O   UNL     1     -11.219  17.200  64.404  1.00  0.00    -1.143 OA 
ENDROOT
BRANCH   3   5
HETATM    5  C   UNL     1     -11.078  14.478  65.193  1.00  0.00    -0.374 C  
BRANCH   5   6
HETATM    6  C   UNL     1     -12.199  13.761  65.913  1.00  0.00    -0.466 C  
HETATM    7  O   UNL     1     -13.357  13.877  65.519  1.00  0.00    -0.662 OA 
BRANCH   6   8
HETATM    8  C   UNL     1     -11.891  12.846  67.053  1.00  0.00    -0.437 A  
HETATM    9  C   UNL     1     -11.502  11.520  66.869  1.00  0.00    -0.261 A  
HETATM   10  C   UNL     1     -11.320  10.679  67.974  1.00  0.00    -0.350 A  
HETATM   11  C   UNL     1     -11.514  11.129  69.292  1.00  0.00    -0.363 A  
HETATM   12  C   UNL     1     -12.048  13.328  68.356  1.00  0.00    -0.244 A  
HETATM   13  C   UNL     1     -11.852  12.484  69.457  1.00  0.00    -0.375 A  
BRANCH  11  14
HETATM   14  C   UNL     1     -11.416  10.196  70.441  1.00  0.00    -0.400 A  
HETATM   15  C   UNL     1     -10.237   9.477  70.712  1.00  0.00    -0.363 A  
HETATM   16  C   UNL     1     -10.178   8.525  71.736  1.00  0.00    -0.352 A  
HETATM   17  C   UNL     1     -11.293   8.285  72.531  1.00  0.00    -0.455 A  
HETATM   18  C   UNL     1     -12.464   9.002  72.307  1.00  0.00    -0.427 A  
HETATM   19  C   UNL     1     -12.523   9.942  71.272  1.00  0.00    -0.479 A  
ENDBRANCH  11  14
ENDBRANCH   6   8
ENDBRANCH   5   6
ENDBRANCH   3   5
TORSDOF 4
ENDMDL
MODEL        8
REMARK 921   NORMALIZED FREE ENERGY PREDICTED BY IDOCK:   -6.44 KCAL/MOL
REMARK 922        TOTAL FREE ENERGY PREDICTED BY IDOCK:   -8.60 KCAL/MOL
REMARK 923 INTER-LIGAND FREE ENERGY PREDICTED BY IDOCK:   -7.93 KCAL/MOL
REMARK 924 INTRA-LIGAND FREE ENERGY PREDICTED BY IDOCK:   -0.67 KCAL/MOL
REMARK 927      BINDING AFFINITY PREDICTED BY RF-SCORE:    0.00 PKD
ROOT
HETATM    1  O   UNL     1      -9.838  17.466  65.665  1.00  0.00    -0.544 OA 
HETATM    2  C   UNL     1     -10.613  16.457  65.211  1.00  0.00    -0.299 C  
HETATM    3  C   UNL     1     -10.450  15.183  65.991  1.00  0.00    -0.330 C  
HETATM    4  O   UNL     1     -11.400  16.603  64.292  1.00  0.00    -1.116 OA 
ENDROOT
BRANCH   3   5
HETATM    5  C   UNL     1     -10.738  13.969  65.116  1.00  0.00    -0.393 C  
BRANCH   5   6
HETATM    6  C   UNL     1     -11.903  13.188  65.682  1.00  0.00    -0.387 C  
HETATM    7  O   UNL     1     -12.993  13.207  65.112  1.00  0.00    -0.695 OA 
BRANCH   6   8
HETATM    8  C   UNL     1     -11.712  12.327  66.887  1.00  0.00    -0.404 A  
HETATM    9  C   UNL     1     -12.021  12.760  68.176  1.00  0.00    -0.295 A  
HETATM   10  C   UNL     1     -11.732  11.948  69.280  1.00  0.00    -0.389 A  
HETATM   11  C   UNL     1     -11.132  10.685  69.139  1.00  0.00    -0.309 A  
HETATM   12  C   UNL     1     -11.155  11.056  66.719  1.00  0.00    -0.240 A  
HETATM   13  C   UNL     1     -10.880  10.244  67.827  1.00  0.00    -0.346 A  
BRANCH  11  14
HETATM   14  C   UNL     1     -10.741   9.886  70.326  1.00  0.00    -0.367 A  
HETATM   15  C   UNL     1      -9.420   9.437  70.514  1.00  0.00    -0.327 A  
HETATM   16  C   UNL     1      -9.076   8.602  71.583  1.00  0.00    -0.318 A  
HETATM   17  C   UNL     1     -10.041   8.213  72.504  1.00  0.00    -0.370 A  
HETATM   18  C   UNL     1     -11.349   8.665  72.362  1.00  0.00    -0.353 A  
HETATM   19  C   UNL     1     -11.693   9.488  71.283  1.00  0.00    -0.444 A  
ENDBRANCH  11  14
ENDBRANCH   6   8
ENDBRANCH   5   6
ENDBRANCH   3   5
TORSDOF 4
ENDMDL
MODEL        9
REMARK 921   NORMALIZED FREE ENERGY PREDICTED BY IDOCK:   -6.40 KCAL/MOL
REMARK 922        TOTAL FREE ENERGY PREDICTED BY IDOCK:   -8.56 KCAL/MOL
REMARK 923 INTER-LIGAND FREE ENERGY PREDICTED BY IDOCK:   -7.93 KCAL/MOL
REMARK 924 INTRA-LIGAND FREE ENERGY PREDICTED BY IDOCK:   -0.63 KCAL/MOL
REMARK 927      BINDING AFFINITY PREDICTED BY RF-SCORE:    0.00 PKD
ROOT
HETATM    1  O   UNL     1     -12.622  16.583  74.491  1.00  0.00    -0.750 OA 
HETATM    2  C   UNL     1     -12.964  15.921  73.364  1.00  0.00    -0.583 C  
HETATM    3  C   UNL     1     -11.832  15.131  72.771  1.00  0.00    -0.464 C  
HETATM    4  O   UNL     1     -14.099  15.932  72.920  1.00  0.00    -0.561 OA 
ENDROOT
BRANCH   3   5
HETATM    5  C   UNL     1     -11.996  14.995  71.262  1.00  0.00    -0.388 C  
BRANCH   5   6
HETATM    6  C   UNL     1     -12.404  13.582  70.910  1.00  0.00    -0.356 C  
HETATM    7  O   UNL     1     -13.056  12.912  71.708  1.00  0.00    -0.399 OA 
BRANCH   6   8
HETATM    8  C   UNL     1     -12.086  13.025  69.561  1.00  0.00    -0.289 A  
HETATM    9  C   UNL     1     -11.894  11.663  69.336  1.00  0.00    -0.408 A  
HETATM   10  C   UNL     1     -11.503  11.206  68.071  1.00  0.00    -0.366 A  
HETATM   11  C   UNL     1     -11.294  12.084  66.993  1.00  0.00    -0.396 A  
HETATM   12  C   UNL     1     -11.927  13.914  68.492  1.00  0.00    -0.394 A  
HETATM   13  C   UNL     1     -11.548  13.448  67.227  1.00  0.00    -0.400 A  
BRANCH  11  14
HETATM   14  C   UNL     1     -10.782  11.591  65.692  1.00  0.00    -0.323 A  
HETATM   15  C   UNL     1      -9.879  10.514  65.612  1.00  0.00    -0.311 A  
HETATM   16  C   UNL     1      -9.321  10.114  64.392  1.00  0.00    -0.348 A  
HETATM   17  C   UNL     1      -9.672  10.769  63.217  1.00  0.00    -0.396 A  
HETATM   18  C   UNL     1     -10.585  11.817  63.260  1.00  0.00    -0.427 A  
HETATM   19  C   UNL     1     -11.129  12.224  64.483  1.00  0.00    -0.368 A  
ENDBRANCH  11  14
ENDBRANCH   6   8
ENDBRANCH   5   6
ENDBRANCH   3   5
TORSDOF 4
ENDMDL
MODEL       10
REMARK 921   NORMALIZED FREE ENERGY PREDICTED BY IDOCK:   -6.38 KCAL/MOL
REMARK 922        TOTAL FREE ENERGY PREDICTED BY IDOCK:   -8.54 KCAL/MOL
REMARK 923 INTER-LIGAND FREE ENERGY PREDICTED BY IDOCK:   -8.00 KCAL/MOL
REMARK 924 INTRA-LIGAND FREE ENERGY PREDICTED BY IDOCK:   -0.53 KCAL/MOL
REMARK 927      BINDING AFFINITY PREDICTED BY RF-SCORE:    0.00 PKD
ROOT
HETATM    1  O   UNL     1     -11.666  16.759  63.834  1.00  0.00    -1.076 OA 
HETATM    2  C   UNL     1     -11.006  16.079  64.796  1.00  0.00    -0.356 C  
HETATM    3  C   UNL     1     -11.444  14.647  64.922  1.00  0.00    -0.401 C  
HETATM    4  O   UNL     1     -10.109  16.582  65.450  1.00  0.00    -0.570 OA 
ENDROOT
BRANCH   3   5
HETATM    5  C   UNL     1     -11.246  14.141  66.346  1.00  0.00    -0.328 C  
BRANCH   5   6
HETATM    6  C   UNL     1     -11.822  12.750  66.487  1.00  0.00    -0.405 C  
HETATM    7  O   UNL     1     -12.521  12.279  65.592  1.00  0.00    -0.591 OA 
BRANCH   6   8
HETATM    8  C   UNL     1     -11.479  11.914  67.676  1.00  0.00    -0.387 A  
HETATM    9  C   UNL     1     -10.785  10.710  67.574  1.00  0.00    -0.321 A  
HETATM   10  C   UNL     1     -10.574   9.919  68.710  1.00  0.00    -0.246 A  
HETATM   11  C   UNL     1     -11.041  10.300  69.980  1.00  0.00    -0.373 A  
HETATM   12  C   UNL     1     -11.915  12.335  68.937  1.00  0.00    -0.300 A  
HETATM   13  C   UNL     1     -11.690  11.545  70.071  1.00  0.00    -0.414 A  
BRANCH  11  14
HETATM   14  C   UNL     1     -10.897   9.401  71.151  1.00  0.00    -0.427 A  
HETATM   15  C   UNL     1      -9.634   9.038  71.654  1.00  0.00    -0.319 A  
HETATM   16  C   UNL     1      -9.499   8.113  72.696  1.00  0.00    -0.346 A  
HETATM   17  C   UNL     1     -10.627   7.543  73.274  1.00  0.00    -0.438 A  
HETATM   18  C   UNL     1     -11.890   7.905  72.818  1.00  0.00    -0.287 A  
HETATM   19  C   UNL     1     -12.021   8.819  71.767  1.00  0.00    -0.418 A  
ENDBRANCH  11  14
ENDBRANCH   6   8
ENDBRANCH   5   6
ENDBRANCH   3   5
TORSDOF 4
ENDMDL
MODEL       11
REMARK 921   NORMALIZED FREE ENERGY PREDICTED BY IDOCK:   -6.35 KCAL/MOL
REMARK 922        TOTAL FREE ENERGY PREDICTED BY IDOCK:   -8.50 KCAL/MOL
REMARK 923 INTER-LIGAND FREE ENERGY PREDICTED BY IDOCK:   -7.77 KCAL/MOL
REMARK 924 INTRA-LIGAND FREE ENERGY PREDICTED BY IDOCK:   -0.73 KCAL/MOL
REMARK 927      BINDING AFFINITY PREDICTED BY RF-SCORE:    0.00 PKD
ROOT
HETATM    1  O   UNL     1      -8.435   9.127  65.516  1.00  0.00    -0.131 OA 
HETATM    2  C   UNL     1      -9.022  10.324  65.729  1.00  0.00    -0.161 C  
HETATM    3  C   UNL     1     -10.281  10.522  64.931  1.00  0.00    -0.371 C  
HETATM    4  O   UNL     1      -8.588  11.129  66.535  1.00  0.00    -0.159 OA 
ENDROOT
BRANCH   3   5
HETATM    5  C   UNL     1     -10.514  12.000  64.642  1.00  0.00    -0.338 C  
BRANCH   5   6
HETATM    6  C   UNL     1     -11.808  12.454  65.281  1.00  0.00    -0.399 C  
HETATM    7  O   UNL     1     -12.864  12.379  64.656  1.00  0.00    -0.714 OA 
BRANCH   6   8
HETATM    8  C   UNL     1     -11.819  12.919  66.700  1.00  0.00    -0.461 A  
HETATM    9  C   UNL     1     -11.775  12.039  67.781  1.00  0.00    -0.379 A  
HETATM   10  C   UNL     1     -11.885  12.524  69.090  1.00  0.00    -0.348 A  
HETATM   11  C   UNL     1     -12.039  13.894  69.366  1.00  0.00    -0.384 A  
HETATM   12  C   UNL     1     -11.927  14.291  66.953  1.00  0.00    -0.467 A  
HETATM   13  C   UNL     1     -12.025  14.770  68.266  1.00  0.00    -0.258 A  
BRANCH  11  14
HETATM   14  C   UNL     1     -12.256  14.376  70.752  1.00  0.00    -0.413 A  
HETATM   15  C   UNL     1     -13.123  13.711  71.640  1.00  0.00    -0.455 A  
HETATM   16  C   UNL     1     -13.401  14.222  72.912  1.00  0.00    -0.561 A  
HETATM   17  C   UNL     1     -12.801  15.401  73.338  1.00  0.00    -0.662 A  
HETATM   18  C   UNL     1     -11.916  16.065  72.494  1.00  0.00    -0.649 A  
HETATM   19  C   UNL     1     -11.652  15.559  71.217  1.00  0.00    -0.462 A  
ENDBRANCH  11  14
ENDBRANCH   6   8
ENDBRANCH   5   6
ENDBRANCH   3   5
TORSDOF 4
ENDMDL
MODEL       12
REMARK 921   NORMALIZED FREE ENERGY PREDICTED BY IDOCK:   -6.30 KCAL/MOL
REMARK 922        TOTAL FREE ENERGY PREDICTED BY IDOCK:   -8.43 KCAL/MOL
REMARK 923 INTER-LIGAND FREE ENERGY PREDICTED BY IDOCK:   -7.83 KCAL/MOL
REMARK 924 INTRA-LIGAND FREE ENERGY PREDICTED BY IDOCK:   -0.60 KCAL/MOL
REMARK 927      BINDING AFFINITY PREDICTED BY RF-SCORE:    0.00 PKD
ROOT
HETATM    1  O   UNL     1     -11.043   8.663  72.285  1.00  0.00    -0.354 OA 
HETATM    2  C   UNL     1     -11.928   9.497  71.698  1.00  0.00    -0.401 C  
HETATM    3  C   UNL     1     -11.383  10.184  70.478  1.00  0.00    -0.416 C  
HETATM    4  O   UNL     1     -13.071   9.624  72.103  1.00  0.00    -0.414 OA 
ENDROOT
BRANCH   3   5
HETATM    5  C   UNL     1     -12.055  11.536  70.269  1.00  0.00    -0.444 C  
BRANCH   5   6
HETATM    6  C   UNL     1     -11.910  11.969  68.827  1.00  0.00    -0.302 C  
HETATM    7  O   UNL     1     -12.060  11.152  67.920  1.00  0.00    -0.627 OA 
BRANCH   6   8
HETATM    8  C   UNL     1     -11.664  13.405  68.498  1.00  0.00    -0.392 A  
HETATM    9  C   UNL     1     -11.449  13.851  67.194  1.00  0.00    -0.370 A  
HETATM   10  C   UNL     1     -11.127  15.193  66.954  1.00  0.00    -0.314 A  
HETATM   11  C   UNL     1     -11.013  16.130  67.995  1.00  0.00    -0.338 A  
HETATM   12  C   UNL     1     -11.599  14.328  69.546  1.00  0.00    -0.353 A  
HETATM   13  C   UNL     1     -11.289  15.671  69.296  1.00  0.00    -0.348 A  
BRANCH  11  14
HETATM   14  C   UNL     1     -10.571  17.521  67.728  1.00  0.00    -0.375 A  
HETATM   15  C   UNL     1     -10.247  18.408  68.772  1.00  0.00    -0.333 A  
HETATM   16  C   UNL     1      -9.926  19.747  68.522  1.00  0.00    -0.538 A  
HETATM   17  C   UNL     1      -9.900  20.227  67.217  1.00  0.00    -0.593 A  
HETATM   18  C   UNL     1     -10.187  19.366  66.163  1.00  0.00    -0.570 A  
HETATM   19  C   UNL     1     -10.522  18.032  66.418  1.00  0.00    -0.345 A  
ENDBRANCH  11  14
ENDBRANCH   6   8
ENDBRANCH   5   6
ENDBRANCH   3   5
TORSDOF 4
ENDMDL
MODEL       13
REMARK 921   NORMALIZED FREE ENERGY PREDICTED BY IDOCK:   -6.29 KCAL/MOL
REMARK 922        TOTAL FREE ENERGY PREDICTED BY IDOCK:   -8.42 KCAL/MOL
REMARK 923 INTER-LIGAND FREE ENERGY PREDICTED BY IDOCK:   -7.69 KCAL/MOL
REMARK 924 INTRA-LIGAND FREE ENERGY PREDICTED BY IDOCK:   -0.73 KCAL/MOL
REMARK 927      BINDING AFFINITY PREDICTED BY RF-SCORE:    0.00 PKD
ROOT
HETATM    1  O   UNL     1     -12.393  16.700  74.350  1.00  0.00    -0.687 OA 
HETATM    2  C   UNL     1     -12.510  15.619  73.548  1.00  0.00    -0.551 C  
HETATM    3  C   UNL     1     -12.573  15.965  72.087  1.00  0.00    -0.522 C  
HETATM    4  O   UNL     1     -12.508  14.481  73.984  1.00  0.00    -0.403 OA 
ENDROOT
BRANCH   3   5
HETATM    5  C   UNL     1     -13.364  14.917  71.314  1.00  0.00    -0.490 C  
BRANCH   5   6
HETATM    6  C   UNL     1     -12.440  14.138  70.404  1.00  0.00    -0.357 C  
HETATM    7  O   UNL     1     -11.744  14.728  69.581  1.00  0.00    -0.278 OA 
BRANCH   6   8
HETATM    8  C   UNL     1     -12.313  12.658  70.558  1.00  0.00    -0.350 A  
HETATM    9  C   UNL     1     -12.986  11.944  71.548  1.00  0.00    -0.427 A  
HETATM   10  C   UNL     1     -12.755  10.572  71.708  1.00  0.00    -0.508 A  
HETATM   11  C   UNL     1     -11.854   9.868  70.889  1.00  0.00    -0.443 A  
HETATM   12  C   UNL     1     -11.445  11.970  69.703  1.00  0.00    -0.322 A  
HETATM   13  C   UNL     1     -11.229  10.595  69.861  1.00  0.00    -0.378 A  
BRANCH  11  14
HETATM   14  C   UNL     1     -11.548   8.438  71.141  1.00  0.00    -0.317 A  
HETATM   15  C   UNL     1     -11.444   7.922  72.446  1.00  0.00    -0.433 A  
HETATM   16  C   UNL     1     -11.059   6.597  72.682  1.00  0.00    -0.291 A  
HETATM   17  C   UNL     1     -10.789   5.749  71.614  1.00  0.00    -0.316 A  
HETATM   18  C   UNL     1     -10.913   6.222  70.312  1.00  0.00    -0.400 A  
HETATM   19  C   UNL     1     -11.284   7.551  70.081  1.00  0.00    -0.213 A  
ENDBRANCH  11  14
ENDBRANCH   6   8
ENDBRANCH   5   6
ENDBRANCH   3   5
TORSDOF 4
ENDMDL
MODEL       14
REMARK 921   NORMALIZED FREE ENERGY PREDICTED BY IDOCK:   -6.22 KCAL/MOL
REMARK 922        TOTAL FREE ENERGY PREDICTED BY IDOCK:   -8.33 KCAL/MOL
REMARK 923 INTER-LIGAND FREE ENERGY PREDICTED BY IDOCK:   -7.66 KCAL/MOL
REMARK 924 INTRA-LIGAND FREE ENERGY PREDICTED BY IDOCK:   -0.67 KCAL/MOL
REMARK 927      BINDING AFFINITY PREDICTED BY RF-SCORE:    0.00 PKD
ROOT
HETATM    1  O   UNL     1     -12.469  16.289  74.562  1.00  0.00    -0.727 OA 
HETATM    2  C   UNL     1     -12.630  16.204  73.223  1.00  0.00    -0.519 C  
HETATM    3  C   UNL     1     -14.009  15.765  72.815  1.00  0.00    -0.541 C  
HETATM    4  O   UNL     1     -11.748  16.510  72.440  1.00  0.00    -0.507 OA 
ENDROOT
BRANCH   3   5
HETATM    5  C   UNL     1     -13.973  15.034  71.478  1.00  0.00    -0.590 C  
BRANCH   5   6
HETATM    6  C   UNL     1     -13.449  13.628  71.671  1.00  0.00    -0.322 C  
HETATM    7  O   UNL     1     -13.762  12.986  72.672  1.00  0.00    -0.621 OA 
BRANCH   6   8
HETATM    8  C   UNL     1     -12.616  12.987  70.610  1.00  0.00    -0.270 A  
HETATM    9  C   UNL     1     -12.058  13.708  69.555  1.00  0.00    -0.368 A  
HETATM   10  C   UNL     1     -11.367  13.043  68.534  1.00  0.00    -0.323 A  
HETATM   11  C   UNL     1     -11.206  11.646  68.532  1.00  0.00    -0.312 A  
HETATM   12  C   UNL     1     -12.431  11.602  70.651  1.00  0.00    -0.386 A  
HETATM   13  C   UNL     1     -11.728  10.945  69.633  1.00  0.00    -0.403 A  
BRANCH  11  14
HETATM   14  C   UNL     1     -10.560  10.953  67.391  1.00  0.00    -0.285 A  
HETATM   15  C   UNL     1     -10.492  11.536  66.112  1.00  0.00    -0.296 A  
HETATM   16  C   UNL     1      -9.971  10.840  65.016  1.00  0.00    -0.361 A  
HETATM   17  C   UNL     1      -9.483   9.548  65.177  1.00  0.00    -0.305 A  
HETATM   18  C   UNL     1      -9.509   8.956  66.435  1.00  0.00    -0.283 A  
HETATM   19  C   UNL     1     -10.045   9.650  67.526  1.00  0.00    -0.247 A  
ENDBRANCH  11  14
ENDBRANCH   6   8
ENDBRANCH   5   6
ENDBRANCH   3   5
TORSDOF 4
ENDMDL
MODEL       15
REMARK 921   NORMALIZED FREE ENERGY PREDICTED BY IDOCK:   -6.19 KCAL/MOL
REMARK 922        TOTAL FREE ENERGY PREDICTED BY IDOCK:   -8.29 KCAL/MOL
REMARK 923 INTER-LIGAND FREE ENERGY PREDICTED BY IDOCK:   -7.59 KCAL/MOL
REMARK 924 INTRA-LIGAND FREE ENERGY PREDICTED BY IDOCK:   -0.70 KCAL/MOL
REMARK 927      BINDING AFFINITY PREDICTED BY RF-SCORE:    0.00 PKD
ROOT
HETATM    1  O   UNL     1     -11.095   6.660  66.907  1.00  0.00    -0.400 OA 
HETATM    2  C   UNL     1     -10.321   6.589  68.012  1.00  0.00    -0.187 C  
HETATM    3  C   UNL     1     -11.018   5.968  69.190  1.00  0.00    -0.429 C  
HETATM    4  O   UNL     1      -9.156   6.948  68.016  1.00  0.00    -0.122 OA 
ENDROOT
BRANCH   3   5
HETATM    5  C   UNL     1     -10.454   6.506  70.500  1.00  0.00    -0.251 C  
BRANCH   5   6
HETATM    6  C   UNL     1     -11.569   7.080  71.347  1.00  0.00    -0.292 C  
HETATM    7  O   UNL     1     -12.126   6.379  72.189  1.00  0.00    -0.326 OA 
BRANCH   6   8
HETATM    8  C   UNL     1     -11.940   8.521  71.218  1.00  0.00    -0.334 A  
HETATM    9  C   UNL     1     -11.300   9.386  70.331  1.00  0.00    -0.295 A  
HETATM   10  C   UNL     1     -11.622  10.748  70.320  1.00  0.00    -0.427 A  
HETATM   11  C   UNL     1     -12.589  11.292  71.183  1.00  0.00    -0.501 A  
HETATM   12  C   UNL     1     -12.937   9.031  72.056  1.00  0.00    -0.470 A  
HETATM   13  C   UNL     1     -13.262  10.393  72.030  1.00  0.00    -0.497 A  
BRANCH  11  14
HETATM   14  C   UNL     1     -12.842  12.753  71.226  1.00  0.00    -0.355 A  
HETATM   15  C   UNL     1     -12.268  13.632  70.289  1.00  0.00    -0.423 A  
HETATM   16  C   UNL     1     -12.428  15.018  70.390  1.00  0.00    -0.407 A  
HETATM   17  C   UNL     1     -13.187  15.560  71.422  1.00  0.00    -0.587 A  
HETATM   18  C   UNL     1     -13.793  14.715  72.346  1.00  0.00    -0.580 A  
HETATM   19  C   UNL     1     -13.617  13.330  72.250  1.00  0.00    -0.703 A  
ENDBRANCH  11  14
ENDBRANCH   6   8
ENDBRANCH   5   6
ENDBRANCH   3   5
TORSDOF 4
ENDMDL
MODEL       16
REMARK 921   NORMALIZED FREE ENERGY PREDICTED BY IDOCK:   -6.17 KCAL/MOL
REMARK 922        TOTAL FREE ENERGY PREDICTED BY IDOCK:   -8.28 KCAL/MOL
REMARK 923 INTER-LIGAND FREE ENERGY PREDICTED BY IDOCK:   -7.74 KCAL/MOL
REMARK 924 INTRA-LIGAND FREE ENERGY PREDICTED BY IDOCK:   -0.54 KCAL/MOL
REMARK 927      BINDING AFFINITY PREDICTED BY RF-SCORE:    0.00 PKD
ROOT
HETATM    1  O   UNL     1     -12.576  14.595  64.137  1.00  0.00    -0.766 OA 
HETATM    2  C   UNL     1     -12.673  13.544  64.980  1.00  0.00    -0.344 C  
HETATM    3  C   UNL     1     -12.198  13.850  66.373  1.00  0.00    -0.487 C  
HETATM    4  O   UNL     1     -13.152  12.476  64.638  1.00  0.00    -0.845 OA 
ENDROOT
BRANCH   3   5
HETATM    5  C   UNL     1     -11.671  12.594  67.056  1.00  0.00    -0.438 C  
BRANCH   5   6
HETATM    6  C   UNL     1     -11.748  12.751  68.559  1.00  0.00    -0.333 C  
HETATM    7  O   UNL     1     -12.091  13.824  69.049  1.00  0.00    -0.346 OA 
BRANCH   6   8
HETATM    8  C   UNL     1     -11.484  11.580  69.448  1.00  0.00    -0.376 A  
HETATM    9  C   UNL     1     -10.440  10.684  69.221  1.00  0.00    -0.252 A  
HETATM   10  C   UNL     1     -10.297   9.549  70.029  1.00  0.00    -0.284 A  
HETATM   11  C   UNL     1     -11.181   9.272  71.087  1.00  0.00    -0.413 A  
HETATM   12  C   UNL     1     -12.349  11.348  70.522  1.00  0.00    -0.439 A  
HETATM   13  C   UNL     1     -12.192  10.218  71.334  1.00  0.00    -0.481 A  
BRANCH  11  14
HETATM   14  C   UNL     1     -11.072   8.014  71.865  1.00  0.00    -0.333 A  
HETATM   15  C   UNL     1     -10.398   7.963  73.099  1.00  0.00    -0.357 A  
HETATM   16  C   UNL     1     -10.212   6.756  73.783  1.00  0.00    -0.378 A  
HETATM   17  C   UNL     1     -10.718   5.572  73.259  1.00  0.00    -0.314 A  
HETATM   18  C   UNL     1     -11.415   5.595  72.056  1.00  0.00    -0.199 A  
HETATM   19  C   UNL     1     -11.586   6.802  71.367  1.00  0.00    -0.350 A  
ENDBRANCH  11  14
ENDBRANCH   6   8
ENDBRANCH   5   6
ENDBRANCH   3   5
TORSDOF 4
ENDMDL
MODEL       17
REMARK 921   NORMALIZED FREE ENERGY PREDICTED BY IDOCK:   -6.14 KCAL/MOL
REMARK 922        TOTAL FREE ENERGY PREDICTED BY IDOCK:   -8.23 KCAL/MOL
REMARK 923 INTER-LIGAND FREE ENERGY PREDICTED BY IDOCK:   -7.46 KCAL/MOL
REMARK 924 INTRA-LIGAND FREE ENERGY PREDICTED BY IDOCK:   -0.77 KCAL/MOL
REMARK 927      BINDING AFFINITY PREDICTED BY RF-SCORE:    0.00 PKD
ROOT
HETATM    1  O   UNL     1     -10.261  17.353  67.189  1.00  0.00    -0.305 OA 
HETATM    2  C   UNL     1      -9.865  16.246  66.524  1.00  0.00    -0.271 C  
HETATM    3  C   UNL     1     -10.603  16.030  65.233  1.00  0.00    -0.424 C  
HETATM    4  O   UNL     1      -8.958  15.535  66.923  1.00  0.00    -0.212 OA 
ENDROOT
BRANCH   3   5
HETATM    5  C   UNL     1     -10.670  14.547  64.886  1.00  0.00    -0.448 C  
BRANCH   5   6
HETATM    6  C   UNL     1     -11.878  13.916  65.543  1.00  0.00    -0.362 C  
HETATM    7  O   UNL     1     -13.000  14.106  65.080  1.00  0.00    -0.721 OA 
BRANCH   6   8
HETATM    8  C   UNL     1     -11.702  12.997  66.707  1.00  0.00    -0.440 A  
HETATM    9  C   UNL     1     -11.323  11.663  66.561  1.00  0.00    -0.331 A  
HETATM   10  C   UNL     1     -11.267  10.821  67.678  1.00  0.00    -0.370 A  
HETATM   11  C   UNL     1     -11.581  11.276  68.971  1.00  0.00    -0.386 A  
HETATM   12  C   UNL     1     -11.976  13.483  67.989  1.00  0.00    -0.372 A  
HETATM   13  C   UNL     1     -11.906  12.637  69.104  1.00  0.00    -0.349 A  
BRANCH  11  14
HETATM   14  C   UNL     1     -11.614  10.342  70.124  1.00  0.00    -0.392 A  
HETATM   15  C   UNL     1     -12.742  10.237  70.958  1.00  0.00    -0.491 A  
HETATM   16  C   UNL     1     -12.735   9.429  72.101  1.00  0.00    -0.460 A  
HETATM   17  C   UNL     1     -11.603   8.689  72.425  1.00  0.00    -0.385 A  
HETATM   18  C   UNL     1     -10.483   8.749  71.603  1.00  0.00    -0.387 A  
HETATM   19  C   UNL     1     -10.489   9.569  70.469  1.00  0.00    -0.358 A  
ENDBRANCH  11  14
ENDBRANCH   6   8
ENDBRANCH   5   6
ENDBRANCH   3   5
TORSDOF 4
ENDMDL
MODEL       18
REMARK 921   NORMALIZED FREE ENERGY PREDICTED BY IDOCK:   -6.06 KCAL/MOL
REMARK 922        TOTAL FREE ENERGY PREDICTED BY IDOCK:   -8.13 KCAL/MOL
REMARK 923 INTER-LIGAND FREE ENERGY PREDICTED BY IDOCK:   -7.57 KCAL/MOL
REMARK 924 INTRA-LIGAND FREE ENERGY PREDICTED BY IDOCK:   -0.57 KCAL/MOL
REMARK 927      BINDING AFFINITY PREDICTED BY RF-SCORE:    0.00 PKD
ROOT
HETATM    1  O   UNL     1     -13.285  12.135  63.526  1.00  0.00    -0.744 OA 
HETATM    2  C   UNL     1     -12.597  12.703  64.540  1.00  0.00    -0.412 C  
HETATM    3  C   UNL     1     -12.167  14.115  64.252  1.00  0.00    -0.449 C  
HETATM    4  O   UNL     1     -12.401  12.129  65.597  1.00  0.00    -0.560 OA 
ENDROOT
BRANCH   3   5
HETATM    5  C   UNL     1     -10.893  14.461  65.013  1.00  0.00    -0.420 C  
BRANCH   5   6
HETATM    6  C   UNL     1     -10.678  15.958  65.009  1.00  0.00    -0.404 C  
HETATM    7  O   UNL     1     -11.390  16.681  64.315  1.00  0.00    -1.116 OA 
BRANCH   6   8
HETATM    8  C   UNL     1      -9.654  16.569  65.908  1.00  0.00    -0.284 A  
HETATM    9  C   UNL     1      -8.537  15.869  66.361  1.00  0.00    -0.364 A  
HETATM   10  C   UNL     1      -7.660  16.459  67.279  1.00  0.00    -0.198 A  
HETATM   11  C   UNL     1      -7.862  17.760  67.773  1.00  0.00    -0.216 A  
HETATM   12  C   UNL     1      -9.852  17.881  66.351  1.00  0.00    -0.339 A  
HETATM   13  C   UNL     1      -8.963  18.469  67.260  1.00  0.00    -0.275 A  
BRANCH  11  14
HETATM   14  C   UNL     1      -6.979  18.327  68.821  1.00  0.00    -0.280 A  
HETATM   15  C   UNL     1      -6.152  17.510  69.614  1.00  0.00    -0.249 A  
HETATM   16  C   UNL     1      -5.394  18.036  70.667  1.00  0.00    -0.261 A  
HETATM   17  C   UNL     1      -5.429  19.399  70.938  1.00  0.00    -0.262 A  
HETATM   18  C   UNL     1      -6.213  20.237  70.152  1.00  0.00    -0.349 A  
HETATM   19  C   UNL     1      -6.981  19.704  69.110  1.00  0.00    -0.386 A  
ENDBRANCH  11  14
ENDBRANCH   6   8
ENDBRANCH   5   6
ENDBRANCH   3   5
TORSDOF 4
ENDMDL
MODEL       19
REMARK 921   NORMALIZED FREE ENERGY PREDICTED BY IDOCK:   -6.06 KCAL/MOL
REMARK 922        TOTAL FREE ENERGY PREDICTED BY IDOCK:   -8.13 KCAL/MOL
REMARK 923 INTER-LIGAND FREE ENERGY PREDICTED BY IDOCK:   -7.56 KCAL/MOL
REMARK 924 INTRA-LIGAND FREE ENERGY PREDICTED BY IDOCK:   -0.57 KCAL/MOL
REMARK 927      BINDING AFFINITY PREDICTED BY RF-SCORE:    0.00 PKD
ROOT
HETATM    1  O   UNL     1     -11.533  11.307  64.069  1.00  0.00    -0.241 OA 
HETATM    2  C   UNL     1     -12.096  12.466  64.474  1.00  0.00    -0.417 C  
HETATM    3  C   UNL     1     -11.155  13.637  64.422  1.00  0.00    -0.378 C  
HETATM    4  O   UNL     1     -13.270  12.544  64.793  1.00  0.00    -0.839 OA 
ENDROOT
BRANCH   3   5
HETATM    5  C   UNL     1     -11.530  14.682  65.465  1.00  0.00    -0.341 C  
BRANCH   5   6
HETATM    6  C   UNL     1     -11.107  16.057  64.997  1.00  0.00    -0.336 C  
HETATM    7  O   UNL     1     -11.564  16.521  63.954  1.00  0.00    -1.175 OA 
BRANCH   6   8
HETATM    8  C   UNL     1     -10.194  16.886  65.839  1.00  0.00    -0.330 A  
HETATM    9  C   UNL     1     -10.611  18.057  66.472  1.00  0.00    -0.263 A  
HETATM   10  C   UNL     1      -9.690  18.847  67.171  1.00  0.00    -0.345 A  
HETATM   11  C   UNL     1      -8.331  18.499  67.265  1.00  0.00    -0.259 A  
HETATM   12  C   UNL     1      -8.856  16.497  65.956  1.00  0.00    -0.267 A  
HETATM   13  C   UNL     1      -7.943  17.287  66.667  1.00  0.00    -0.296 A  
BRANCH  11  14
HETATM   14  C   UNL     1      -7.354  19.401  67.922  1.00  0.00    -0.295 A  
HETATM   15  C   UNL     1      -6.805  20.511  67.253  1.00  0.00    -0.340 A  
HETATM   16  C   UNL     1      -5.811  21.303  67.839  1.00  0.00    -0.395 A  
HETATM   17  C   UNL     1      -5.357  21.016  69.121  1.00  0.00    -0.374 A  
HETATM   18  C   UNL     1      -5.902  19.943  69.820  1.00  0.00    -0.329 A  
HETATM   19  C   UNL     1      -6.884  19.145  69.224  1.00  0.00    -0.336 A  
ENDBRANCH  11  14
ENDBRANCH   6   8
ENDBRANCH   5   6
ENDBRANCH   3   5
TORSDOF 4
ENDMDL
MODEL       20
REMARK 921   NORMALIZED FREE ENERGY PREDICTED BY IDOCK:   -6.00 KCAL/MOL
REMARK 922        TOTAL FREE ENERGY PREDICTED BY IDOCK:   -8.07 KCAL/MOL
REMARK 923 INTER-LIGAND FREE ENERGY PREDICTED BY IDOCK:   -7.66 KCAL/MOL
REMARK 924 INTRA-LIGAND FREE ENERGY PREDICTED BY IDOCK:   -0.41 KCAL/MOL
REMARK 927      BINDING AFFINITY PREDICTED BY RF-SCORE:    0.00 PKD
ROOT
HETATM    1  O   UNL     1     -13.641  16.463  73.576  1.00  0.00    -0.596 OA 
HETATM    2  C   UNL     1     -12.807  15.749  72.789  1.00  0.00    -0.472 C  
HETATM    3  C   UNL     1     -13.451  15.269  71.519  1.00  0.00    -0.577 C  
HETATM    4  O   UNL     1     -11.635  15.569  73.074  1.00  0.00    -0.439 OA 
ENDROOT
BRANCH   3   5
HETATM    5  C   UNL     1     -12.801  13.979  71.033  1.00  0.00    -0.410 C  
BRANCH   5   6
HETATM    6  C   UNL     1     -13.304  12.807  71.847  1.00  0.00    -0.413 C  
HETATM    7  O   UNL     1     -14.141  12.984  72.730  1.00  0.00    -0.573 OA 
BRANCH   6   8
HETATM    8  C   UNL     1     -12.846  11.422  71.527  1.00  0.00    -0.508 A  
HETATM    9  C   UNL     1     -13.376  10.292  72.148  1.00  0.00    -0.404 A  
HETATM   10  C   UNL     1     -12.842   9.025  71.881  1.00  0.00    -0.451 A  
HETATM   11  C   UNL     1     -11.771   8.842  70.989  1.00  0.00    -0.329 A  
HETATM   12  C   UNL     1     -11.809  11.259  70.603  1.00  0.00    -0.368 A  
HETATM   13  C   UNL     1     -11.288   9.987  70.332  1.00  0.00    -0.392 A  
BRANCH  11  14
HETATM   14  C   UNL     1     -11.155   7.506  70.799  1.00  0.00    -0.280 A  
HETATM   15  C   UNL     1     -10.698   7.074  69.540  1.00  0.00    -0.263 A  
HETATM   16  C   UNL     1     -10.208   5.778  69.343  1.00  0.00    -0.301 A  
HETATM   17  C   UNL     1     -10.141   4.888  70.409  1.00  0.00    -0.316 A  
HETATM   18  C   UNL     1     -10.557   5.296  71.672  1.00  0.00    -0.261 A  
HETATM   19  C   UNL     1     -11.061   6.587  71.861  1.00  0.00    -0.300 A  
ENDBRANCH  11  14
ENDBRANCH   6   8
ENDBRANCH   5   6
ENDBRANCH   3   5
TORSDOF 4
ENDMDL
MODEL       21
REMARK 921   NORMALIZED FREE ENERGY PREDICTED BY IDOCK:   -5.97 KCAL/MOL
REMARK 922        TOTAL FREE ENERGY PREDICTED BY IDOCK:   -8.03 KCAL/MOL
REMARK 923 INTER-LIGAND FREE ENERGY PREDICTED BY IDOCK:   -7.41 KCAL/MOL
REMARK 924 INTRA-LIGAND FREE ENERGY PREDICTED BY IDOCK:   -0.62 KCAL/MOL
REMARK 927      BINDING AFFINITY PREDICTED BY RF-SCORE:    0.00 PKD
ROOT
HETATM    1  O   UNL     1      -8.810  18.041  65.748  1.00  0.00    -0.476 OA 
HETATM    2  C   UNL     1      -9.761  17.946  66.702  1.00  0.00    -0.319 C  
HETATM    3  C   UNL     1      -9.713  16.651  67.464  1.00  0.00    -0.247 C  
HETATM    4  O   UNL     1     -10.537  18.855  66.942  1.00  0.00    -0.404 OA 
ENDROOT
BRANCH   3   5
HETATM    5  C   UNL     1     -11.096  16.275  67.982  1.00  0.00    -0.299 C  
BRANCH   5   6
HETATM    6  C   UNL     1     -11.531  14.955  67.384  1.00  0.00    -0.343 C  
HETATM    7  O   UNL     1     -11.638  14.836  66.166  1.00  0.00    -0.355 OA 
BRANCH   6   8
HETATM    8  C   UNL     1     -11.754  13.771  68.267  1.00  0.00    -0.394 A  
HETATM    9  C   UNL     1     -12.043  13.891  69.626  1.00  0.00    -0.404 A  
HETATM   10  C   UNL     1     -12.147  12.747  70.427  1.00  0.00    -0.382 A  
HETATM   11  C   UNL     1     -11.971  11.453  69.906  1.00  0.00    -0.434 A  
HETATM   12  C   UNL     1     -11.618  12.493  67.717  1.00  0.00    -0.401 A  
HETATM   13  C   UNL     1     -11.735  11.352  68.523  1.00  0.00    -0.386 A  
BRANCH  11  14
HETATM   14  C   UNL     1     -11.984  10.263  70.791  1.00  0.00    -0.456 A  
HETATM   15  C   UNL     1     -13.162   9.821  71.421  1.00  0.00    -0.482 A  
HETATM   16  C   UNL     1     -13.152   8.759  72.331  1.00  0.00    -0.444 A  
HETATM   17  C   UNL     1     -11.964   8.096  72.618  1.00  0.00    -0.353 A  
HETATM   18  C   UNL     1     -10.789   8.490  71.988  1.00  0.00    -0.405 A  
HETATM   19  C   UNL     1     -10.800   9.563  71.089  1.00  0.00    -0.425 A  
ENDBRANCH  11  14
ENDBRANCH   6   8
ENDBRANCH   5   6
ENDBRANCH   3   5
TORSDOF 4
ENDMDL
MODEL       22
REMARK 921   NORMALIZED FREE ENERGY PREDICTED BY IDOCK:   -5.97 KCAL/MOL
REMARK 922        TOTAL FREE ENERGY PREDICTED BY IDOCK:   -8.03 KCAL/MOL
REMARK 923 INTER-LIGAND FREE ENERGY PREDICTED BY IDOCK:   -7.35 KCAL/MOL
REMARK 924 INTRA-LIGAND FREE ENERGY PREDICTED BY IDOCK:   -0.68 KCAL/MOL
REMARK 927      BINDING AFFINITY PREDICTED BY RF-SCORE:    0.00 PKD
ROOT
HETATM    1  O   UNL     1     -11.423   6.105  69.360  1.00  0.00    -0.423 OA 
HETATM    2  C   UNL     1     -11.111   6.669  70.547  1.00  0.00    -0.307 C  
HETATM    3  C   UNL     1     -12.296   6.847  71.453  1.00  0.00    -0.421 C  
HETATM    4  O   UNL     1      -9.964   6.948  70.854  1.00  0.00    -0.189 OA 
ENDROOT
BRANCH   3   5
HETATM    5  C   UNL     1     -12.090   8.030  72.392  1.00  0.00    -0.374 C  
BRANCH   5   6
HETATM    6  C   UNL     1     -13.177   9.059  72.174  1.00  0.00    -0.446 C  
HETATM    7  O   UNL     1     -14.302   8.874  72.634  1.00  0.00    -0.613 OA 
BRANCH   6   8
HETATM    8  C   UNL     1     -12.865  10.339  71.470  1.00  0.00    -0.557 A  
HETATM    9  C   UNL     1     -12.139  10.385  70.281  1.00  0.00    -0.370 A  
HETATM   10  C   UNL     1     -11.792  11.619  69.715  1.00  0.00    -0.428 A  
HETATM   11  C   UNL     1     -12.157  12.840  70.308  1.00  0.00    -0.373 A  
HETATM   12  C   UNL     1     -13.277  11.541  72.056  1.00  0.00    -0.443 A  
HETATM   13  C   UNL     1     -12.937  12.770  71.477  1.00  0.00    -0.388 A  
BRANCH  11  14
HETATM   14  C   UNL     1     -11.693  14.132  69.748  1.00  0.00    -0.370 A  
HETATM   15  C   UNL     1     -11.349  15.217  70.575  1.00  0.00    -0.340 A  
HETATM   16  C   UNL     1     -11.006  16.465  70.043  1.00  0.00    -0.322 A  
HETATM   17  C   UNL     1     -10.976  16.652  68.665  1.00  0.00    -0.328 A  
HETATM   18  C   UNL     1     -11.281  15.589  67.821  1.00  0.00    -0.302 A  
HETATM   19  C   UNL     1     -11.639  14.347  68.358  1.00  0.00    -0.351 A  
ENDBRANCH  11  14
ENDBRANCH   6   8
ENDBRANCH   5   6
ENDBRANCH   3   5
TORSDOF 4
ENDMDL
MODEL       23
REMARK 921   NORMALIZED FREE ENERGY PREDICTED BY IDOCK:   -5.96 KCAL/MOL
REMARK 922        TOTAL FREE ENERGY PREDICTED BY IDOCK:   -8.02 KCAL/MOL
REMARK 923 INTER-LIGAND FREE ENERGY PREDICTED BY IDOCK:   -7.28 KCAL/MOL
REMARK 924 INTRA-LIGAND FREE ENERGY PREDICTED BY IDOCK:   -0.74 KCAL/MOL
REMARK 927      BINDING AFFINITY PREDICTED BY RF-SCORE:    0.00 PKD
ROOT
HETATM    1  O   UNL     1     -11.203  12.246  63.081  1.00  0.00    -0.370 OA 
HETATM    2  C   UNL     1     -12.192  12.705  63.878  1.00  0.00    -0.481 C  
HETATM    3  C   UNL     1     -11.956  14.104  64.375  1.00  0.00    -0.478 C  
HETATM    4  O   UNL     1     -13.195  12.053  64.114  1.00  0.00    -0.712 OA 
ENDROOT
BRANCH   3   5
HETATM    5  C   UNL     1     -12.635  14.324  65.721  1.00  0.00    -0.405 C  
BRANCH   5   6
HETATM    6  C   UNL     1     -11.628  14.170  66.840  1.00  0.00    -0.391 C  
HETATM    7  O   UNL     1     -10.774  15.035  67.023  1.00  0.00    -0.291 OA 
BRANCH   6   8
HETATM    8  C   UNL     1     -11.719  13.009  67.774  1.00  0.00    -0.405 A  
HETATM    9  C   UNL     1     -12.021  13.154  69.128  1.00  0.00    -0.329 A  
HETATM   10  C   UNL     1     -11.998  12.041  69.978  1.00  0.00    -0.400 A  
HETATM   11  C   UNL     1     -11.678  10.754  69.511  1.00  0.00    -0.384 A  
HETATM   12  C   UNL     1     -11.441  11.730  67.279  1.00  0.00    -0.373 A  
HETATM   13  C   UNL     1     -11.432  10.620  68.133  1.00  0.00    -0.303 A  
BRANCH  11  14
HETATM   14  C   UNL     1     -11.560   9.608  70.447  1.00  0.00    -0.299 A  
HETATM   15  C   UNL     1     -12.293   9.553  71.647  1.00  0.00    -0.480 A  
HETATM   16  C   UNL     1     -12.106   8.521  72.573  1.00  0.00    -0.395 A  
HETATM   17  C   UNL     1     -11.195   7.505  72.310  1.00  0.00    -0.329 A  
HETATM   18  C   UNL     1     -10.477   7.515  71.119  1.00  0.00    -0.216 A  
HETATM   19  C   UNL     1     -10.656   8.557  70.202  1.00  0.00    -0.238 A  
ENDBRANCH  11  14
ENDBRANCH   6   8
ENDBRANCH   5   6
ENDBRANCH   3   5
TORSDOF 4
ENDMDL
MODEL       24
REMARK 921   NORMALIZED FREE ENERGY PREDICTED BY IDOCK:   -5.95 KCAL/MOL
REMARK 922        TOTAL FREE ENERGY PREDICTED BY IDOCK:   -7.99 KCAL/MOL
REMARK 923 INTER-LIGAND FREE ENERGY PREDICTED BY IDOCK:   -7.43 KCAL/MOL
REMARK 924 INTRA-LIGAND FREE ENERGY PREDICTED BY IDOCK:   -0.57 KCAL/MOL
REMARK 927      BINDING AFFINITY PREDICTED BY RF-SCORE:    0.00 PKD
ROOT
HETATM    1  O   UNL     1     -13.024   8.178  72.026  1.00  0.00    -0.323 OA 
HETATM    2  C   UNL     1     -12.242   9.229  71.698  1.00  0.00    -0.370 C  
HETATM    3  C   UNL     1     -12.973  10.543  71.713  1.00  0.00    -0.582 C  
HETATM    4  O   UNL     1     -11.051   9.109  71.468  1.00  0.00    -0.313 OA 
ENDROOT
BRANCH   3   5
HETATM    5  C   UNL     1     -12.345  11.525  70.731  1.00  0.00    -0.472 C  
BRANCH   5   6
HETATM    6  C   UNL     1     -12.688  12.944  71.127  1.00  0.00    -0.276 C  
HETATM    7  O   UNL     1     -13.447  13.154  72.071  1.00  0.00    -0.469 OA 
BRANCH   6   8
HETATM    8  C   UNL     1     -12.044  14.093  70.423  1.00  0.00    -0.417 A  
HETATM    9  C   UNL     1     -11.620  15.242  71.091  1.00  0.00    -0.416 A  
HETATM   10  C   UNL     1     -11.111  16.329  70.370  1.00  0.00    -0.322 A  
HETATM   11  C   UNL     1     -11.005  16.308  68.968  1.00  0.00    -0.325 A  
HETATM   12  C   UNL     1     -11.907  14.033  69.033  1.00  0.00    -0.391 A  
HETATM   13  C   UNL     1     -11.385  15.120  68.319  1.00  0.00    -0.338 A  
BRANCH  11  14
HETATM   14  C   UNL     1     -10.559  17.507  68.217  1.00  0.00    -0.354 A  
HETATM   15  C   UNL     1     -10.229  18.710  68.870  1.00  0.00    -0.262 A  
HETATM   16  C   UNL     1      -9.904  19.867  68.154  1.00  0.00    -0.524 A  
HETATM   17  C   UNL     1      -9.879  19.844  66.764  1.00  0.00    -0.550 A  
HETATM   18  C   UNL     1     -10.171  18.662  66.091  1.00  0.00    -0.450 A  
HETATM   19  C   UNL     1     -10.511  17.511  66.810  1.00  0.00    -0.270 A  
ENDBRANCH  11  14
ENDBRANCH   6   8
ENDBRANCH   5   6
ENDBRANCH   3   5
TORSDOF 4
ENDMDL
MODEL       25
REMARK 921   NORMALIZED FREE ENERGY PREDICTED BY IDOCK:   -5.94 KCAL/MOL
REMARK 922        TOTAL FREE ENERGY PREDICTED BY IDOCK:   -7.99 KCAL/MOL
REMARK 923 INTER-LIGAND FREE ENERGY PREDICTED BY IDOCK:   -7.34 KCAL/MOL
REMARK 924 INTRA-LIGAND FREE ENERGY PREDICTED BY IDOCK:   -0.64 KCAL/MOL
REMARK 927      BINDING AFFINITY PREDICTED BY RF-SCORE:    0.00 PKD
ROOT
HETATM    1  O   UNL     1      -8.948   9.387  63.139  1.00  0.00    -0.235 OA 
HETATM    2  C   UNL     1      -9.498  10.582  63.445  1.00  0.00    -0.316 C  
HETATM    3  C   UNL     1     -10.155  10.607  64.797  1.00  0.00    -0.412 C  
HETATM    4  O   UNL     1      -9.411  11.548  62.707  1.00  0.00    -0.374 OA 
ENDROOT
BRANCH   3   5
HETATM    5  C   UNL     1     -11.294  11.619  64.828  1.00  0.00    -0.270 C  
BRANCH   5   6
HETATM    6  C   UNL     1     -11.493  12.132  66.238  1.00  0.00    -0.374 C  
HETATM    7  O   UNL     1     -11.900  11.375  67.117  1.00  0.00    -0.566 OA 
BRANCH   6   8
HETATM    8  C   UNL     1     -11.119  13.536  66.582  1.00  0.00    -0.309 A  
HETATM    9  C   UNL     1     -11.531  14.156  67.761  1.00  0.00    -0.352 A  
HETATM   10  C   UNL     1     -11.233  15.505  67.989  1.00  0.00    -0.332 A  
HETATM   11  C   UNL     1     -10.515  16.277  67.058  1.00  0.00    -0.306 A  
HETATM   12  C   UNL     1     -10.366  14.271  65.662  1.00  0.00    -0.352 A  
HETATM   13  C   UNL     1     -10.060  15.617  65.903  1.00  0.00    -0.378 A  
BRANCH  11  14
HETATM   14  C   UNL     1     -10.298  17.729  67.273  1.00  0.00    -0.364 A  
HETATM   15  C   UNL     1     -10.178  18.277  68.563  1.00  0.00    -0.402 A  
HETATM   16  C   UNL     1     -10.073  19.657  68.766  1.00  0.00    -0.532 A  
HETATM   17  C   UNL     1     -10.062  20.524  67.679  1.00  0.00    -0.412 A  
HETATM   18  C   UNL     1     -10.149  20.009  66.390  1.00  0.00    -0.609 A  
HETATM   19  C   UNL     1     -10.269  18.629  66.192  1.00  0.00    -0.450 A  
ENDBRANCH  11  14
ENDBRANCH   6   8
ENDBRANCH   5   6
ENDBRANCH   3   5
TORSDOF 4
ENDMDL
MODEL       26
REMARK 921   NORMALIZED FREE ENERGY PREDICTED BY IDOCK:   -5.91 KCAL/MOL
REMARK 922        TOTAL FREE ENERGY PREDICTED BY IDOCK:   -7.96 KCAL/MOL
REMARK 923 INTER-LIGAND FREE ENERGY PREDICTED BY IDOCK:   -7.21 KCAL/MOL
REMARK 924 INTRA-LIGAND FREE ENERGY PREDICTED BY IDOCK:   -0.75 KCAL/MOL
REMARK 927      BINDING AFFINITY PREDICTED BY RF-SCORE:    0.00 PKD
ROOT
HETATM    1  O   UNL     1     -12.515  13.964  63.341  1.00  0.00    -0.833 OA 
HETATM    2  C   UNL     1     -11.861  12.853  63.745  1.00  0.00    -0.504 C  
HETATM    3  C   UNL     1     -12.405  12.270  65.018  1.00  0.00    -0.326 C  
HETATM    4  O   UNL     1     -10.955  12.358  63.095  1.00  0.00    -0.374 OA 
ENDROOT
BRANCH   3   5
HETATM    5  C   UNL     1     -11.316  11.528  65.785  1.00  0.00    -0.160 C  
BRANCH   5   6
HETATM    6  C   UNL     1     -11.185  12.098  67.180  1.00  0.00    -0.314 C  
HETATM    7  O   UNL     1     -11.270  11.358  68.158  1.00  0.00    -0.233 OA 
BRANCH   6   8
HETATM    8  C   UNL     1     -10.873  13.546  67.371  1.00  0.00    -0.279 A  
HETATM    9  C   UNL     1     -11.588  14.360  68.249  1.00  0.00    -0.359 A  
HETATM   10  C   UNL     1     -11.316  15.732  68.317  1.00  0.00    -0.354 A  
HETATM   11  C   UNL     1     -10.327  16.336  67.520  1.00  0.00    -0.288 A  
HETATM   12  C   UNL     1      -9.855  14.116  66.601  1.00  0.00    -0.289 A  
HETATM   13  C   UNL     1      -9.580  15.487  66.683  1.00  0.00    -0.273 A  
BRANCH  11  14
HETATM   14  C   UNL     1     -10.125  17.805  67.534  1.00  0.00    -0.340 A  
HETATM   15  C   UNL     1      -9.990  18.523  68.736  1.00  0.00    -0.417 A  
HETATM   16  C   UNL     1      -9.899  19.919  68.750  1.00  0.00    -0.417 A  
HETATM   17  C   UNL     1      -9.918  20.632  67.556  1.00  0.00    -0.428 A  
HETATM   18  C   UNL     1     -10.020  19.948  66.349  1.00  0.00    -0.593 A  
HETATM   19  C   UNL     1     -10.126  18.552  66.341  1.00  0.00    -0.430 A  
ENDBRANCH  11  14
ENDBRANCH   6   8
ENDBRANCH   5   6
ENDBRANCH   3   5
TORSDOF 4
ENDMDL
MODEL       27
REMARK 921   NORMALIZED FREE ENERGY PREDICTED BY IDOCK:   -5.90 KCAL/MOL
REMARK 922        TOTAL FREE ENERGY PREDICTED BY IDOCK:   -7.94 KCAL/MOL
REMARK 923 INTER-LIGAND FREE ENERGY PREDICTED BY IDOCK:   -7.36 KCAL/MOL
REMARK 924 INTRA-LIGAND FREE ENERGY PREDICTED BY IDOCK:   -0.58 KCAL/MOL
REMARK 927      BINDING AFFINITY PREDICTED BY RF-SCORE:    0.00 PKD
ROOT
HETATM    1  O   UNL     1     -14.286   6.723  71.849  1.00  0.00    -0.290 OA 
HETATM    2  C   UNL     1     -13.112   7.253  71.442  1.00  0.00    -0.361 C  
HETATM    3  C   UNL     1     -12.734   8.504  72.185  1.00  0.00    -0.423 C  
HETATM    4  O   UNL     1     -12.417   6.723  70.592  1.00  0.00    -0.320 OA 
ENDROOT
BRANCH   3   5
HETATM    5  C   UNL     1     -11.873   9.413  71.315  1.00  0.00    -0.435 C  
BRANCH   5   6
HETATM    6  C   UNL     1     -12.469  10.803  71.271  1.00  0.00    -0.399 C  
HETATM    7  O   UNL     1     -13.167  11.203  72.200  1.00  0.00    -0.481 OA 
BRANCH   6   8
HETATM    8  C   UNL     1     -12.145  11.720  70.138  1.00  0.00    -0.398 A  
HETATM    9  C   UNL     1     -12.182  13.109  70.261  1.00  0.00    -0.376 A  
HETATM   10  C   UNL     1     -11.964  13.921  69.141  1.00  0.00    -0.404 A  
HETATM   11  C   UNL     1     -11.699  13.382  67.870  1.00  0.00    -0.396 A  
HETATM   12  C   UNL     1     -11.840  11.162  68.893  1.00  0.00    -0.406 A  
HETATM   13  C   UNL     1     -11.610  11.981  67.780  1.00  0.00    -0.400 A  
BRANCH  11  14
HETATM   14  C   UNL     1     -11.572  14.256  66.678  1.00  0.00    -0.397 A  
HETATM   15  C   UNL     1     -12.285  14.000  65.492  1.00  0.00    -0.455 A  
HETATM   16  C   UNL     1     -12.089  14.768  64.339  1.00  0.00    -0.457 A  
HETATM   17  C   UNL     1     -11.190  15.829  64.351  1.00  0.00    -0.249 A  
HETATM   18  C   UNL     1     -10.493  16.126  65.518  1.00  0.00    -0.407 A  
HETATM   19  C   UNL     1     -10.680  15.345  66.665  1.00  0.00    -0.309 A  
ENDBRANCH  11  14
ENDBRANCH   6   8
ENDBRANCH   5   6
ENDBRANCH   3   5
TORSDOF 4
ENDMDL
MODEL       28
REMARK 921   NORMALIZED FREE ENERGY PREDICTED BY IDOCK:   -5.88 KCAL/MOL
REMARK 922        TOTAL FREE ENERGY PREDICTED BY IDOCK:   -7.92 KCAL/MOL
REMARK 923 INTER-LIGAND FREE ENERGY PREDICTED BY IDOCK:   -7.30 KCAL/MOL
REMARK 924 INTRA-LIGAND FREE ENERGY PREDICTED BY IDOCK:   -0.62 KCAL/MOL
REMARK 927      BINDING AFFINITY PREDICTED BY RF-SCORE:    0.00 PKD
ROOT
HETATM    1  O   UNL     1      -8.934   9.458  63.111  1.00  0.00    -0.235 OA 
HETATM    2  C   UNL     1      -9.498  10.647  63.413  1.00  0.00    -0.319 C  
HETATM    3  C   UNL     1     -10.273  10.629  64.701  1.00  0.00    -0.404 C  
HETATM    4  O   UNL     1      -9.336  11.639  62.724  1.00  0.00    -0.350 OA 
ENDROOT
BRANCH   3   5
HETATM    5  C   UNL     1     -11.401  11.654  64.670  1.00  0.00    -0.284 C  
BRANCH   5   6
HETATM    6  C   UNL     1     -11.600  12.248  66.047  1.00  0.00    -0.393 C  
HETATM    7  O   UNL     1     -11.851  11.516  67.002  1.00  0.00    -0.568 OA 
BRANCH   6   8
HETATM    8  C   UNL     1     -11.412  13.713  66.264  1.00  0.00    -0.352 A  
HETATM    9  C   UNL     1     -10.976  14.573  65.256  1.00  0.00    -0.366 A  
HETATM   10  C   UNL     1     -10.724  15.921  65.540  1.00  0.00    -0.386 A  
HETATM   11  C   UNL     1     -10.900  16.456  66.829  1.00  0.00    -0.098 A  
HETATM   12  C   UNL     1     -11.635  14.233  67.543  1.00  0.00    -0.390 A  
HETATM   13  C   UNL     1     -11.393  15.585  67.817  1.00  0.00    -0.286 A  
BRANCH  11  14
HETATM   14  C   UNL     1     -10.530  17.861  67.131  1.00  0.00    -0.359 A  
HETATM   15  C   UNL     1     -10.471  18.843  66.125  1.00  0.00    -0.521 A  
HETATM   16  C   UNL     1     -10.027  20.143  66.396  1.00  0.00    -0.573 A  
HETATM   17  C   UNL     1      -9.652  20.497  67.687  1.00  0.00    -0.489 A  
HETATM   18  C   UNL     1      -9.728  19.556  68.708  1.00  0.00    -0.513 A  
HETATM   19  C   UNL     1     -10.158  18.254  68.430  1.00  0.00    -0.412 A  
ENDBRANCH  11  14
ENDBRANCH   6   8
ENDBRANCH   5   6
ENDBRANCH   3   5
TORSDOF 4
ENDMDL
MODEL       29
REMARK 921   NORMALIZED FREE ENERGY PREDICTED BY IDOCK:   -5.87 KCAL/MOL
REMARK 922        TOTAL FREE ENERGY PREDICTED BY IDOCK:   -7.90 KCAL/MOL
REMARK 923 INTER-LIGAND FREE ENERGY PREDICTED BY IDOCK:   -7.23 KCAL/MOL
REMARK 924 INTRA-LIGAND FREE ENERGY PREDICTED BY IDOCK:   -0.68 KCAL/MOL
REMARK 927      BINDING AFFINITY PREDICTED BY RF-SCORE:    0.00 PKD
ROOT
HETATM    1  O   UNL     1      -6.111  16.721  66.577  1.00  0.00    -0.292 OA 
HETATM    2  C   UNL     1      -7.086  17.571  66.188  1.00  0.00    -0.306 C  
HETATM    3  C   UNL     1      -8.302  17.528  67.072  1.00  0.00    -0.239 C  
HETATM    4  O   UNL     1      -6.952  18.329  65.243  1.00  0.00    -0.516 OA 
ENDROOT
BRANCH   3   5
HETATM    5  C   UNL     1      -9.555  17.905  66.290  1.00  0.00    -0.252 C  
BRANCH   5   6
HETATM    6  C   UNL     1     -10.357  16.663  65.968  1.00  0.00    -0.340 C  
HETATM    7  O   UNL     1     -10.699  16.434  64.810  1.00  0.00    -0.700 OA 
BRANCH   6   8
HETATM    8  C   UNL     1     -10.665  15.672  67.043  1.00  0.00    -0.314 A  
HETATM    9  C   UNL     1     -10.406  14.309  66.906  1.00  0.00    -0.268 A  
HETATM   10  C   UNL     1     -10.804  13.412  67.905  1.00  0.00    -0.263 A  
HETATM   11  C   UNL     1     -11.467  13.840  69.069  1.00  0.00    -0.349 A  
HETATM   12  C   UNL     1     -11.284  16.127  68.212  1.00  0.00    -0.343 A  
HETATM   13  C   UNL     1     -11.668  15.225  69.213  1.00  0.00    -0.359 A  
BRANCH  11  14
HETATM   14  C   UNL     1     -11.970  12.864  70.066  1.00  0.00    -0.380 A  
HETATM   15  C   UNL     1     -11.703  11.487  69.954  1.00  0.00    -0.420 A  
HETATM   16  C   UNL     1     -12.260  10.558  70.840  1.00  0.00    -0.490 A  
HETATM   17  C   UNL     1     -13.082  10.987  71.875  1.00  0.00    -0.525 A  
HETATM   18  C   UNL     1     -13.340  12.345  72.030  1.00  0.00    -0.511 A  
HETATM   19  C   UNL     1     -12.793  13.270  71.133  1.00  0.00    -0.363 A  
ENDBRANCH  11  14
ENDBRANCH   6   8
ENDBRANCH   5   6
ENDBRANCH   3   5
TORSDOF 4
ENDMDL
MODEL       30
REMARK 921   NORMALIZED FREE ENERGY PREDICTED BY IDOCK:   -5.85 KCAL/MOL
REMARK 922        TOTAL FREE ENERGY PREDICTED BY IDOCK:   -7.88 KCAL/MOL
REMARK 923 INTER-LIGAND FREE ENERGY PREDICTED BY IDOCK:   -7.15 KCAL/MOL
REMARK 924 INTRA-LIGAND FREE ENERGY PREDICTED BY IDOCK:   -0.74 KCAL/MOL
REMARK 927      BINDING AFFINITY PREDICTED BY RF-SCORE:    0.00 PKD
ROOT
HETATM    1  O   UNL     1     -10.881   5.088  74.412  1.00  0.00    -0.340 OA 
HETATM    2  C   UNL     1     -10.142   5.337  73.309  1.00  0.00    -0.175 C  
HETATM    3  C   UNL     1     -10.022   6.801  72.991  1.00  0.00    -0.199 C  
HETATM    4  O   UNL     1      -9.591   4.451  72.680  1.00  0.00    -0.131 OA 
ENDROOT
BRANCH   3   5
HETATM    5  C   UNL     1      -9.831   7.017  71.494  1.00  0.00    -0.176 C  
BRANCH   5   6
HETATM    6  C   UNL     1     -11.152   7.373  70.849  1.00  0.00    -0.263 C  
HETATM    7  O   UNL     1     -11.874   6.488  70.395  1.00  0.00    -0.400 OA 
BRANCH   6   8
HETATM    8  C   UNL     1     -11.620   8.791  70.835  1.00  0.00    -0.320 A  
HETATM    9  C   UNL     1     -10.992   9.783  70.082  1.00  0.00    -0.339 A  
HETATM   10  C   UNL     1     -11.413  11.115  70.181  1.00  0.00    -0.361 A  
HETATM   11  C   UNL     1     -12.469  11.502  71.025  1.00  0.00    -0.458 A  
HETATM   12  C   UNL     1     -12.702   9.145  71.649  1.00  0.00    -0.429 A  
HETATM   13  C   UNL     1     -13.125  10.478  71.733  1.00  0.00    -0.570 A  
BRANCH  11  14
HETATM   14  C   UNL     1     -12.831  12.931  71.192  1.00  0.00    -0.326 A  
HETATM   15  C   UNL     1     -12.404  13.914  70.280  1.00  0.00    -0.413 A  
HETATM   16  C   UNL     1     -12.664  15.273  70.493  1.00  0.00    -0.440 A  
HETATM   17  C   UNL     1     -13.377  15.679  71.614  1.00  0.00    -0.543 A  
HETATM   18  C   UNL     1     -13.838  14.728  72.519  1.00  0.00    -0.561 A  
HETATM   19  C   UNL     1     -13.563  13.372  72.310  1.00  0.00    -0.703 A  
ENDBRANCH  11  14
ENDBRANCH   6   8
ENDBRANCH   5   6
ENDBRANCH   3   5
TORSDOF 4
ENDMDL
MODEL       31
REMARK 921   NORMALIZED FREE ENERGY PREDICTED BY IDOCK:   -5.85 KCAL/MOL
REMARK 922        TOTAL FREE ENERGY PREDICTED BY IDOCK:   -7.88 KCAL/MOL
REMARK 923 INTER-LIGAND FREE ENERGY PREDICTED BY IDOCK:   -7.28 KCAL/MOL
REMARK 924 INTRA-LIGAND FREE ENERGY PREDICTED BY IDOCK:   -0.60 KCAL/MOL
REMARK 927      BINDING AFFINITY PREDICTED BY RF-SCORE:    0.00 PKD
ROOT
HETATM    1  O   UNL     1     -10.580   6.738  73.750  1.00  0.00    -0.337 OA 
HETATM    2  C   UNL     1     -10.548   7.821  72.943  1.00  0.00    -0.366 C  
HETATM    3  C   UNL     1     -11.904   8.229  72.439  1.00  0.00    -0.461 C  
HETATM    4  O   UNL     1      -9.517   8.425  72.704  1.00  0.00    -0.269 OA 
ENDROOT
BRANCH   3   5
HETATM    5  C   UNL     1     -11.794   8.922  71.086  1.00  0.00    -0.353 C  
BRANCH   5   6
HETATM    6  C   UNL     1     -12.368  10.319  71.172  1.00  0.00    -0.395 C  
HETATM    7  O   UNL     1     -13.016  10.659  72.159  1.00  0.00    -0.427 OA 
BRANCH   6   8
HETATM    8  C   UNL     1     -12.081  11.313  70.094  1.00  0.00    -0.448 A  
HETATM    9  C   UNL     1     -12.178  12.690  70.296  1.00  0.00    -0.347 A  
HETATM   10  C   UNL     1     -11.992  13.573  69.226  1.00  0.00    -0.378 A  
HETATM   11  C   UNL     1     -11.701  13.119  67.927  1.00  0.00    -0.398 A  
HETATM   12  C   UNL     1     -11.749  10.840  68.821  1.00  0.00    -0.315 A  
HETATM   13  C   UNL     1     -11.551  11.731  67.758  1.00  0.00    -0.374 A  
BRANCH  11  14
HETATM   14  C   UNL     1     -11.608  14.066  66.789  1.00  0.00    -0.406 A  
HETATM   15  C   UNL     1     -12.386  13.904  65.627  1.00  0.00    -0.511 A  
HETATM   16  C   UNL     1     -12.226  14.740  64.516  1.00  0.00    -0.443 A  
HETATM   17  C   UNL     1     -11.298  15.775  64.549  1.00  0.00    -0.324 A  
HETATM   18  C   UNL     1     -10.536  15.978  65.695  1.00  0.00    -0.416 A  
HETATM   19  C   UNL     1     -10.688  15.131  66.798  1.00  0.00    -0.311 A  
ENDBRANCH  11  14
ENDBRANCH   6   8
ENDBRANCH   5   6
ENDBRANCH   3   5
TORSDOF 4
ENDMDL
MODEL       32
REMARK 921   NORMALIZED FREE ENERGY PREDICTED BY IDOCK:   -5.84 KCAL/MOL
REMARK 922        TOTAL FREE ENERGY PREDICTED BY IDOCK:   -7.87 KCAL/MOL
REMARK 923 INTER-LIGAND FREE ENERGY PREDICTED BY IDOCK:   -7.32 KCAL/MOL
REMARK 924 INTRA-LIGAND FREE ENERGY PREDICTED BY IDOCK:   -0.55 KCAL/MOL
REMARK 927      BINDING AFFINITY PREDICTED BY RF-SCORE:    0.00 PKD
ROOT
HETATM    1  O   UNL     1      -9.089   9.578  62.616  1.00  0.00    -0.265 OA 
HETATM    2  C   UNL     1      -9.537  10.563  63.424  1.00  0.00    -0.331 C  
HETATM    3  C   UNL     1      -9.684  10.136  64.858  1.00  0.00    -0.392 C  
HETATM    4  O   UNL     1      -9.743  11.694  63.021  1.00  0.00    -0.396 OA 
ENDROOT
BRANCH   3   5
HETATM    5  C   UNL     1     -10.774  10.942  65.555  1.00  0.00    -0.182 C  
BRANCH   5   6
HETATM    6  C   UNL     1     -10.877  10.527  67.006  1.00  0.00    -0.225 C  
HETATM    7  O   UNL     1     -10.492   9.413  67.357  1.00  0.00    -0.251 OA 
BRANCH   6   8
HETATM    8  C   UNL     1     -11.372  11.497  68.029  1.00  0.00    -0.368 A  
HETATM    9  C   UNL     1     -11.557  12.851  67.753  1.00  0.00    -0.391 A  
HETATM   10  C   UNL     1     -11.930  13.733  68.774  1.00  0.00    -0.400 A  
HETATM   11  C   UNL     1     -12.134  13.299  70.096  1.00  0.00    -0.403 A  
HETATM   12  C   UNL     1     -11.611  11.034  69.327  1.00  0.00    -0.384 A  
HETATM   13  C   UNL     1     -11.996  11.921  70.340  1.00  0.00    -0.400 A  
BRANCH  11  14
HETATM   14  C   UNL     1     -12.428  14.266  71.182  1.00  0.00    -0.433 A  
HETATM   15  C   UNL     1     -11.422  15.068  71.752  1.00  0.00    -0.376 A  
HETATM   16  C   UNL     1     -11.683  15.907  72.841  1.00  0.00    -0.468 A  
HETATM   17  C   UNL     1     -12.965  15.980  73.374  1.00  0.00    -0.676 A  
HETATM   18  C   UNL     1     -13.987  15.222  72.813  1.00  0.00    -0.471 A  
HETATM   19  C   UNL     1     -13.719  14.373  71.733  1.00  0.00    -0.504 A  
ENDBRANCH  11  14
ENDBRANCH   6   8
ENDBRANCH   5   6
ENDBRANCH   3   5
TORSDOF 4
ENDMDL
MODEL       33
REMARK 921   NORMALIZED FREE ENERGY PREDICTED BY IDOCK:   -5.82 KCAL/MOL
REMARK 922        TOTAL FREE ENERGY PREDICTED BY IDOCK:   -7.84 KCAL/MOL
REMARK 923 INTER-LIGAND FREE ENERGY PREDICTED BY IDOCK:   -7.24 KCAL/MOL
REMARK 924 INTRA-LIGAND FREE ENERGY PREDICTED BY IDOCK:   -0.60 KCAL/MOL
REMARK 927      BINDING AFFINITY PREDICTED BY RF-SCORE:    0.00 PKD
ROOT
HETATM    1  O   UNL     1     -11.667  16.404  64.023  1.00  0.00    -1.044 OA 
HETATM    2  C   UNL     1     -11.252  15.397  64.821  1.00  0.00    -0.395 C  
HETATM    3  C   UNL     1     -12.154  14.195  64.782  1.00  0.00    -0.454 C  
HETATM    4  O   UNL     1     -10.215  15.455  65.459  1.00  0.00    -0.331 OA 
ENDROOT
BRANCH   3   5
HETATM    5  C   UNL     1     -12.096  13.430  66.099  1.00  0.00    -0.481 C  
BRANCH   5   6
HETATM    6  C   UNL     1     -11.221  12.205  65.949  1.00  0.00    -0.339 C  
HETATM    7  O   UNL     1     -10.602  12.016  64.904  1.00  0.00    -0.268 OA 
BRANCH   6   8
HETATM    8  C   UNL     1     -11.044  11.266  67.096  1.00  0.00    -0.364 A  
HETATM    9  C   UNL     1     -10.438  10.018  66.960  1.00  0.00    -0.302 A  
HETATM   10  C   UNL     1     -10.385   9.138  68.049  1.00  0.00    -0.272 A  
HETATM   11  C   UNL     1     -10.928   9.471  69.302  1.00  0.00    -0.167 A  
HETATM   12  C   UNL     1     -11.552  11.636  68.346  1.00  0.00    -0.376 A  
HETATM   13  C   UNL     1     -11.484  10.756  69.433  1.00  0.00    -0.366 A  
BRANCH  11  14
HETATM   14  C   UNL     1     -10.952   8.486  70.411  1.00  0.00    -0.254 A  
HETATM   15  C   UNL     1     -11.372   7.157  70.212  1.00  0.00    -0.305 A  
HETATM   16  C   UNL     1     -11.487   6.258  71.278  1.00  0.00    -0.352 A  
HETATM   17  C   UNL     1     -11.164   6.660  72.569  1.00  0.00    -0.302 A  
HETATM   18  C   UNL     1     -10.718   7.958  72.793  1.00  0.00    -0.435 A  
HETATM   19  C   UNL     1     -10.618   8.859  71.726  1.00  0.00    -0.432 A  
ENDBRANCH  11  14
ENDBRANCH   6   8
ENDBRANCH   5   6
ENDBRANCH   3   5
TORSDOF 4
ENDMDL
MODEL       34
REMARK 921   NORMALIZED FREE ENERGY PREDICTED BY IDOCK:   -5.82 KCAL/MOL
REMARK 922        TOTAL FREE ENERGY PREDICTED BY IDOCK:   -7.84 KCAL/MOL
REMARK 923 INTER-LIGAND FREE ENERGY PREDICTED BY IDOCK:   -7.16 KCAL/MOL
REMARK 924 INTRA-LIGAND FREE ENERGY PREDICTED BY IDOCK:   -0.68 KCAL/MOL
REMARK 927      BINDING AFFINITY PREDICTED BY RF-SCORE:    0.00 PKD
ROOT
HETATM    1  O   UNL     1      -8.123   5.193  71.425  1.00  0.00    -0.108 OA 
HETATM    2  C   UNL     1      -9.076   5.761  72.197  1.00  0.00    -0.143 C  
HETATM    3  C   UNL     1     -10.441   5.168  71.991  1.00  0.00    -0.278 C  
HETATM    4  O   UNL     1      -8.821   6.629  73.014  1.00  0.00    -0.128 OA 
ENDROOT
BRANCH   3   5
HETATM    5  C   UNL     1     -11.529   6.194  72.285  1.00  0.00    -0.360 C  
BRANCH   5   6
HETATM    6  C   UNL     1     -11.769   7.059  71.067  1.00  0.00    -0.333 C  
HETATM    7  O   UNL     1     -11.856   6.545  69.954  1.00  0.00    -0.381 OA 
BRANCH   6   8
HETATM    8  C   UNL     1     -11.982   8.529  71.224  1.00  0.00    -0.334 A  
HETATM    9  C   UNL     1     -12.929   9.063  72.097  1.00  0.00    -0.490 A  
HETATM   10  C   UNL     1     -13.154  10.445  72.133  1.00  0.00    -0.427 A  
HETATM   11  C   UNL     1     -12.446  11.336  71.308  1.00  0.00    -0.441 A  
HETATM   12  C   UNL     1     -11.234   9.400  70.425  1.00  0.00    -0.309 A  
HETATM   13  C   UNL     1     -11.456  10.783  70.476  1.00  0.00    -0.367 A  
BRANCH  11  14
HETATM   14  C   UNL     1     -12.771  12.784  71.288  1.00  0.00    -0.364 A  
HETATM   15  C   UNL     1     -12.255  13.645  70.303  1.00  0.00    -0.423 A  
HETATM   16  C   UNL     1     -12.484  15.025  70.343  1.00  0.00    -0.407 A  
HETATM   17  C   UNL     1     -13.255  15.575  71.361  1.00  0.00    -0.587 A  
HETATM   18  C   UNL     1     -13.803  14.745  72.333  1.00  0.00    -0.578 A  
HETATM   19  C   UNL     1     -13.560  13.368  72.297  1.00  0.00    -0.703 A  
ENDBRANCH  11  14
ENDBRANCH   6   8
ENDBRANCH   5   6
ENDBRANCH   3   5
TORSDOF 4
ENDMDL
MODEL       35
REMARK 921   NORMALIZED FREE ENERGY PREDICTED BY IDOCK:   -5.80 KCAL/MOL
REMARK 922        TOTAL FREE ENERGY PREDICTED BY IDOCK:   -7.82 KCAL/MOL
REMARK 923 INTER-LIGAND FREE ENERGY PREDICTED BY IDOCK:   -7.25 KCAL/MOL
REMARK 924 INTRA-LIGAND FREE ENERGY PREDICTED BY IDOCK:   -0.57 KCAL/MOL
REMARK 927      BINDING AFFINITY PREDICTED BY RF-SCORE:    0.00 PKD
ROOT
HETATM    1  O   UNL     1     -13.033  16.182  74.276  1.00  0.00    -0.646 OA 
HETATM    2  C   UNL     1     -13.071  15.427  73.157  1.00  0.00    -0.530 C  
HETATM    3  C   UNL     1     -12.129  15.902  72.086  1.00  0.00    -0.596 C  
HETATM    4  O   UNL     1     -13.768  14.431  73.065  1.00  0.00    -0.596 OA 
ENDROOT
BRANCH   3   5
HETATM    5  C   UNL     1     -12.651  15.536  70.702  1.00  0.00    -0.493 C  
BRANCH   5   6
HETATM    6  C   UNL     1     -11.591  15.814  69.658  1.00  0.00    -0.358 C  
HETATM    7  O   UNL     1     -10.861  16.797  69.769  1.00  0.00    -0.325 OA 
BRANCH   6   8
HETATM    8  C   UNL     1     -11.376  14.853  68.535  1.00  0.00    -0.314 A  
HETATM    9  C   UNL     1     -11.369  13.471  68.719  1.00  0.00    -0.329 A  
HETATM   10  C   UNL     1     -11.067  12.620  67.649  1.00  0.00    -0.303 A  
HETATM   11  C   UNL     1     -10.767  13.112  66.367  1.00  0.00    -0.293 A  
HETATM   12  C   UNL     1     -11.124  15.365  67.258  1.00  0.00    -0.302 A  
HETATM   13  C   UNL     1     -10.835  14.506  66.190  1.00  0.00    -0.317 A  
BRANCH  11  14
HETATM   14  C   UNL     1     -10.350  12.199  65.275  1.00  0.00    -0.310 A  
HETATM   15  C   UNL     1     -10.698  12.442  63.933  1.00  0.00    -0.465 A  
HETATM   16  C   UNL     1     -10.388  11.529  62.919  1.00  0.00    -0.157 A  
HETATM   17  C   UNL     1      -9.701  10.359  63.220  1.00  0.00    -0.308 A  
HETATM   18  C   UNL     1      -9.316  10.105  64.532  1.00  0.00    -0.345 A  
HETATM   19  C   UNL     1      -9.641  11.013  65.546  1.00  0.00    -0.263 A  
ENDBRANCH  11  14
ENDBRANCH   6   8
ENDBRANCH   5   6
ENDBRANCH   3   5
TORSDOF 4
ENDMDL
MODEL       36
REMARK 921   NORMALIZED FREE ENERGY PREDICTED BY IDOCK:   -5.75 KCAL/MOL
REMARK 922        TOTAL FREE ENERGY PREDICTED BY IDOCK:   -7.76 KCAL/MOL
REMARK 923 INTER-LIGAND FREE ENERGY PREDICTED BY IDOCK:   -7.21 KCAL/MOL
REMARK 924 INTRA-LIGAND FREE ENERGY PREDICTED BY IDOCK:   -0.54 KCAL/MOL
REMARK 927      BINDING AFFINITY PREDICTED BY RF-SCORE:    0.00 PKD
ROOT
HETATM    1  O   UNL     1     -10.044  19.522  67.574  1.00  0.00    -0.356 OA 
HETATM    2  C   UNL     1     -10.324  18.621  66.607  1.00  0.00    -0.415 C  
HETATM    3  C   UNL     1     -10.248  17.197  67.080  1.00  0.00    -0.313 C  
HETATM    4  O   UNL     1     -10.657  18.954  65.483  1.00  0.00    -0.572 OA 
ENDROOT
BRANCH   3   5
HETATM    5  C   UNL     1      -9.877  16.263  65.933  1.00  0.00    -0.365 C  
BRANCH   5   6
HETATM    6  C   UNL     1     -10.981  15.253  65.710  1.00  0.00    -0.338 C  
HETATM    7  O   UNL     1     -11.643  15.282  64.675  1.00  0.00    -0.404 OA 
BRANCH   6   8
HETATM    8  C   UNL     1     -11.217  14.169  66.711  1.00  0.00    -0.330 A  
HETATM    9  C   UNL     1     -11.907  14.384  67.903  1.00  0.00    -0.384 A  
HETATM   10  C   UNL     1     -12.015  13.357  68.849  1.00  0.00    -0.362 A  
HETATM   11  C   UNL     1     -11.446  12.088  68.639  1.00  0.00    -0.350 A  
HETATM   12  C   UNL     1     -10.681  12.902  66.461  1.00  0.00    -0.285 A  
HETATM   13  C   UNL     1     -10.804  11.876  67.407  1.00  0.00    -0.289 A  
BRANCH  11  14
HETATM   14  C   UNL     1     -11.485  11.048  69.697  1.00  0.00    -0.375 A  
HETATM   15  C   UNL     1     -12.518  11.000  70.651  1.00  0.00    -0.465 A  
HETATM   16  C   UNL     1     -12.500  10.080  71.705  1.00  0.00    -0.513 A  
HETATM   17  C   UNL     1     -11.456   9.169  71.817  1.00  0.00    -0.452 A  
HETATM   18  C   UNL     1     -10.436   9.172  70.872  1.00  0.00    -0.347 A  
HETATM   19  C   UNL     1     -10.450  10.104  69.828  1.00  0.00    -0.301 A  
ENDBRANCH  11  14
ENDBRANCH   6   8
ENDBRANCH   5   6
ENDBRANCH   3   5
TORSDOF 4
ENDMDL
MODEL       37
REMARK 921   NORMALIZED FREE ENERGY PREDICTED BY IDOCK:   -5.74 KCAL/MOL
REMARK 922        TOTAL FREE ENERGY PREDICTED BY IDOCK:   -7.75 KCAL/MOL
REMARK 923 INTER-LIGAND FREE ENERGY PREDICTED BY IDOCK:   -7.15 KCAL/MOL
REMARK 924 INTRA-LIGAND FREE ENERGY PREDICTED BY IDOCK:   -0.59 KCAL/MOL
REMARK 927      BINDING AFFINITY PREDICTED BY RF-SCORE:    0.00 PKD
ROOT
HETATM    1  O   UNL     1     -13.852  15.765  72.710  1.00  0.00    -0.581 OA 
HETATM    2  C   UNL     1     -12.702  15.822  72.005  1.00  0.00    -0.449 C  
HETATM    3  C   UNL     1     -12.851  15.360  70.582  1.00  0.00    -0.484 C  
HETATM    4  O   UNL     1     -11.667  16.259  72.479  1.00  0.00    -0.501 OA 
ENDROOT
BRANCH   3   5
HETATM    5  C   UNL     1     -11.540  14.786  70.057  1.00  0.00    -0.332 C  
BRANCH   5   6
HETATM    6  C   UNL     1     -11.819  13.626  69.127  1.00  0.00    -0.348 C  
HETATM    7  O   UNL     1     -12.007  13.827  67.930  1.00  0.00    -0.362 OA 
BRANCH   6   8
HETATM    8  C   UNL     1     -11.787  12.226  69.647  1.00  0.00    -0.393 A  
HETATM    9  C   UNL     1     -12.457  11.839  70.807  1.00  0.00    -0.405 A  
HETATM   10  C   UNL     1     -12.314  10.537  71.302  1.00  0.00    -0.502 A  
HETATM   11  C   UNL     1     -11.506   9.581  70.662  1.00  0.00    -0.362 A  
HETATM   12  C   UNL     1     -11.012  11.279  68.969  1.00  0.00    -0.288 A  
HETATM   13  C   UNL     1     -10.884   9.975  69.464  1.00  0.00    -0.283 A  
BRANCH  11  14
HETATM   14  C   UNL     1     -11.288   8.240  71.259  1.00  0.00    -0.308 A  
HETATM   15  C   UNL     1     -11.221   7.079  70.467  1.00  0.00    -0.335 A  
HETATM   16  C   UNL     1     -11.114   5.807  71.039  1.00  0.00    -0.264 A  
HETATM   17  C   UNL     1     -11.047   5.666  72.421  1.00  0.00    -0.324 A  
HETATM   18  C   UNL     1     -11.080   6.798  73.229  1.00  0.00    -0.167 A  
HETATM   19  C   UNL     1     -11.203   8.068  72.653  1.00  0.00    -0.462 A  
ENDBRANCH  11  14
ENDBRANCH   6   8
ENDBRANCH   5   6
ENDBRANCH   3   5
TORSDOF 4
ENDMDL
MODEL       38
REMARK 921   NORMALIZED FREE ENERGY PREDICTED BY IDOCK:   -5.72 KCAL/MOL
REMARK 922        TOTAL FREE ENERGY PREDICTED BY IDOCK:   -7.72 KCAL/MOL
REMARK 923 INTER-LIGAND FREE ENERGY PREDICTED BY IDOCK:   -6.98 KCAL/MOL
REMARK 924 INTRA-LIGAND FREE ENERGY PREDICTED BY IDOCK:   -0.74 KCAL/MOL
REMARK 927      BINDING AFFINITY PREDICTED BY RF-SCORE:    0.00 PKD
ROOT
HETATM    1  O   UNL     1     -10.602   5.590  73.300  1.00  0.00    -0.212 OA 
HETATM    2  C   UNL     1     -11.350   5.807  72.197  1.00  0.00    -0.258 C  
HETATM    3  C   UNL     1     -10.587   5.630  70.914  1.00  0.00    -0.328 C  
HETATM    4  O   UNL     1     -12.540   6.066  72.257  1.00  0.00    -0.150 OA 
ENDROOT
BRANCH   3   5
HETATM    5  C   UNL     1     -11.172   6.503  69.809  1.00  0.00    -0.456 C  
BRANCH   5   6
HETATM    6  C   UNL     1     -10.357   7.768  69.663  1.00  0.00    -0.212 C  
HETATM    7  O   UNL     1      -9.191   7.709  69.279  1.00  0.00    -0.146 OA 
BRANCH   6   8
HETATM    8  C   UNL     1     -10.990   9.099  69.909  1.00  0.00    -0.218 A  
HETATM    9  C   UNL     1     -10.701  10.223  69.136  1.00  0.00    -0.259 A  
HETATM   10  C   UNL     1     -11.250  11.467  69.470  1.00  0.00    -0.305 A  
HETATM   11  C   UNL     1     -12.103  11.633  70.576  1.00  0.00    -0.458 A  
HETATM   12  C   UNL     1     -11.871   9.230  70.987  1.00  0.00    -0.376 A  
HETATM   13  C   UNL     1     -12.426  10.476  71.308  1.00  0.00    -0.524 A  
BRANCH  11  14
HETATM   14  C   UNL     1     -12.590  12.976  70.972  1.00  0.00    -0.386 A  
HETATM   15  C   UNL     1     -12.196  14.140  70.285  1.00  0.00    -0.416 A  
HETATM   16  C   UNL     1     -12.578  15.413  70.721  1.00  0.00    -0.497 A  
HETATM   17  C   UNL     1     -13.386  15.553  71.844  1.00  0.00    -0.569 A  
HETATM   18  C   UNL     1     -13.817  14.420  72.526  1.00  0.00    -0.559 A  
HETATM   19  C   UNL     1     -13.420  13.149  72.096  1.00  0.00    -0.653 A  
ENDBRANCH  11  14
ENDBRANCH   6   8
ENDBRANCH   5   6
ENDBRANCH   3   5
TORSDOF 4
ENDMDL
MODEL       39
REMARK 921   NORMALIZED FREE ENERGY PREDICTED BY IDOCK:   -5.71 KCAL/MOL
REMARK 922        TOTAL FREE ENERGY PREDICTED BY IDOCK:   -7.70 KCAL/MOL
REMARK 923 INTER-LIGAND FREE ENERGY PREDICTED BY IDOCK:   -7.01 KCAL/MOL
REMARK 924 INTRA-LIGAND FREE ENERGY PREDICTED BY IDOCK:   -0.69 KCAL/MOL
REMARK 927      BINDING AFFINITY PREDICTED BY RF-SCORE:    0.00 PKD
ROOT
HETATM    1  O   UNL     1     -14.373   8.979  72.638  1.00  0.00    -0.603 OA 
HETATM    2  C   UNL     1     -13.547   8.113  72.013  1.00  0.00    -0.289 C  
HETATM    3  C   UNL     1     -12.114   8.233  72.452  1.00  0.00    -0.430 C  
HETATM    4  O   UNL     1     -13.953   7.286  71.215  1.00  0.00    -0.369 OA 
ENDROOT
BRANCH   3   5
HETATM    5  C   UNL     1     -11.167   7.812  71.334  1.00  0.00    -0.276 C  
BRANCH   5   6
HETATM    6  C   UNL     1     -10.215   8.943  71.010  1.00  0.00    -0.254 C  
HETATM    7  O   UNL     1      -9.230   9.140  71.718  1.00  0.00    -0.338 OA 
BRANCH   6   8
HETATM    8  C   UNL     1     -10.425   9.770  69.785  1.00  0.00    -0.278 A  
HETATM    9  C   UNL     1     -11.418  10.745  69.697  1.00  0.00    -0.376 A  
HETATM   10  C   UNL     1     -11.634  11.424  68.492  1.00  0.00    -0.384 A  
HETATM   11  C   UNL     1     -10.872  11.159  67.340  1.00  0.00    -0.317 A  
HETATM   12  C   UNL     1      -9.625   9.520  68.665  1.00  0.00    -0.151 A  
HETATM   13  C   UNL     1      -9.839  10.212  67.466  1.00  0.00    -0.211 A  
BRANCH  11  14
HETATM   14  C   UNL     1     -11.184  11.816  66.048  1.00  0.00    -0.352 A  
HETATM   15  C   UNL     1     -12.156  12.828  65.947  1.00  0.00    -0.485 A  
HETATM   16  C   UNL     1     -12.519  13.377  64.712  1.00  0.00    -0.416 A  
HETATM   17  C   UNL     1     -11.900  12.940  63.546  1.00  0.00    -0.605 A  
HETATM   18  C   UNL     1     -10.914  11.962  63.616  1.00  0.00    -0.511 A  
HETATM   19  C   UNL     1     -10.565  11.405  64.852  1.00  0.00    -0.368 A  
ENDBRANCH  11  14
ENDBRANCH   6   8
ENDBRANCH   5   6
ENDBRANCH   3   5
TORSDOF 4
ENDMDL
MODEL       40
REMARK 921   NORMALIZED FREE ENERGY PREDICTED BY IDOCK:   -5.69 KCAL/MOL
REMARK 922        TOTAL FREE ENERGY PREDICTED BY IDOCK:   -7.68 KCAL/MOL
REMARK 923 INTER-LIGAND FREE ENERGY PREDICTED BY IDOCK:   -6.98 KCAL/MOL
REMARK 924 INTRA-LIGAND FREE ENERGY PREDICTED BY IDOCK:   -0.70 KCAL/MOL
REMARK 927      BINDING AFFINITY PREDICTED BY RF-SCORE:    0.00 PKD
ROOT
HETATM    1  O   UNL     1     -10.928  17.568  64.860  1.00  0.00    -0.887 OA 
HETATM    2  C   UNL     1     -11.382  16.332  64.562  1.00  0.00    -0.202 C  
HETATM    3  C   UNL     1     -10.793  15.255  65.429  1.00  0.00    -0.399 C  
HETATM    4  O   UNL     1     -12.228  16.137  63.706  1.00  0.00    -0.934 OA 
ENDROOT
BRANCH   3   5
HETATM    5  C   UNL     1     -10.747  13.924  64.687  1.00  0.00    -0.422 C  
BRANCH   5   6
HETATM    6  C   UNL     1     -11.802  12.989  65.236  1.00  0.00    -0.376 C  
HETATM    7  O   UNL     1     -12.954  13.043  64.810  1.00  0.00    -0.735 OA 
BRANCH   6   8
HETATM    8  C   UNL     1     -11.429  11.945  66.236  1.00  0.00    -0.367 A  
HETATM    9  C   UNL     1     -11.899  11.960  67.549  1.00  0.00    -0.249 A  
HETATM   10  C   UNL     1     -11.441  11.011  68.472  1.00  0.00    -0.379 A  
HETATM   11  C   UNL     1     -10.508  10.020  68.121  1.00  0.00    -0.250 A  
HETATM   12  C   UNL     1     -10.535  10.941  65.852  1.00  0.00    -0.285 A  
HETATM   13  C   UNL     1     -10.091   9.988  66.778  1.00  0.00    -0.286 A  
BRANCH  11  14
HETATM   14  C   UNL     1      -9.960   9.090  69.138  1.00  0.00    -0.187 A  
HETATM   15  C   UNL     1      -9.409   9.555  70.346  1.00  0.00    -0.311 A  
HETATM   16  C   UNL     1      -8.804   8.685  71.259  1.00  0.00    -0.263 A  
HETATM   17  C   UNL     1      -8.755   7.320  70.996  1.00  0.00    -0.140 A  
HETATM   18  C   UNL     1      -9.318   6.826  69.823  1.00  0.00    -0.145 A  
HETATM   19  C   UNL     1      -9.909   7.702  68.906  1.00  0.00    -0.164 A  
ENDBRANCH  11  14
ENDBRANCH   6   8
ENDBRANCH   5   6
ENDBRANCH   3   5
TORSDOF 4
ENDMDL
MODEL       41
REMARK 921   NORMALIZED FREE ENERGY PREDICTED BY IDOCK:   -5.69 KCAL/MOL
REMARK 922        TOTAL FREE ENERGY PREDICTED BY IDOCK:   -7.68 KCAL/MOL
REMARK 923 INTER-LIGAND FREE ENERGY PREDICTED BY IDOCK:   -7.07 KCAL/MOL
REMARK 924 INTRA-LIGAND FREE ENERGY PREDICTED BY IDOCK:   -0.61 KCAL/MOL
REMARK 927      BINDING AFFINITY PREDICTED BY RF-SCORE:    0.00 PKD
ROOT
HETATM    1  O   UNL     1     -11.345  16.574  64.308  1.00  0.00    -1.020 OA 
HETATM    2  C   UNL     1     -10.522  15.992  65.206  1.00  0.00    -0.358 C  
HETATM    3  C   UNL     1     -11.252  15.269  66.303  1.00  0.00    -0.223 C  
HETATM    4  O   UNL     1      -9.309  16.017  65.090  1.00  0.00    -0.116 OA 
ENDROOT
BRANCH   3   5
HETATM    5  C   UNL     1     -10.424  15.245  67.583  1.00  0.00    -0.263 C  
BRANCH   5   6
HETATM    6  C   UNL     1     -11.332  15.101  68.784  1.00  0.00    -0.300 C  
HETATM    7  O   UNL     1     -11.944  16.076  69.215  1.00  0.00    -0.324 OA 
BRANCH   6   8
HETATM    8  C   UNL     1     -11.549  13.758  69.401  1.00  0.00    -0.365 A  
HETATM    9  C   UNL     1     -11.042  12.584  68.844  1.00  0.00    -0.309 A  
HETATM   10  C   UNL     1     -11.357  11.343  69.411  1.00  0.00    -0.365 A  
HETATM   11  C   UNL     1     -12.179  11.228  70.545  1.00  0.00    -0.474 A  
HETATM   12  C   UNL     1     -12.334  13.672  70.555  1.00  0.00    -0.425 A  
HETATM   13  C   UNL     1     -12.634  12.427  71.124  1.00  0.00    -0.349 A  
BRANCH  11  14
HETATM   14  C   UNL     1     -12.583   9.900  71.067  1.00  0.00    -0.431 A  
HETATM   15  C   UNL     1     -11.731   8.783  70.986  1.00  0.00    -0.329 A  
HETATM   16  C   UNL     1     -12.152   7.510  71.389  1.00  0.00    -0.354 A  
HETATM   17  C   UNL     1     -13.430   7.328  71.906  1.00  0.00    -0.295 A  
HETATM   18  C   UNL     1     -14.284   8.419  72.026  1.00  0.00    -0.528 A  
HETATM   19  C   UNL     1     -13.865   9.687  71.608  1.00  0.00    -0.239 A  
ENDBRANCH  11  14
ENDBRANCH   6   8
ENDBRANCH   5   6
ENDBRANCH   3   5
TORSDOF 4
ENDMDL
MODEL       42
REMARK 921   NORMALIZED FREE ENERGY PREDICTED BY IDOCK:   -5.68 KCAL/MOL
REMARK 922        TOTAL FREE ENERGY PREDICTED BY IDOCK:   -7.67 KCAL/MOL
REMARK 923 INTER-LIGAND FREE ENERGY PREDICTED BY IDOCK:   -7.41 KCAL/MOL
REMARK 924 INTRA-LIGAND FREE ENERGY PREDICTED BY IDOCK:   -0.26 KCAL/MOL
REMARK 927      BINDING AFFINITY PREDICTED BY RF-SCORE:    0.00 PKD
ROOT
HETATM    1  O   UNL     1     -13.124  11.724  63.125  1.00  0.00    -0.568 OA 
HETATM    2  C   UNL     1     -12.274  12.704  63.503  1.00  0.00    -0.547 C  
HETATM    3  C   UNL     1     -11.071  12.195  64.247  1.00  0.00    -0.403 C  
HETATM    4  O   UNL     1     -12.457  13.873  63.212  1.00  0.00    -0.817 OA 
ENDROOT
BRANCH   3   5
HETATM    5  C   UNL     1     -10.545  13.249  65.214  1.00  0.00    -0.325 C  
BRANCH   5   6
HETATM    6  C   UNL     1     -11.469  13.365  66.406  1.00  0.00    -0.329 C  
HETATM    7  O   UNL     1     -12.260  14.303  66.484  1.00  0.00    -0.441 OA 
BRANCH   6   8
HETATM    8  C   UNL     1     -11.478  12.299  67.452  1.00  0.00    -0.422 A  
HETATM    9  C   UNL     1     -11.870  12.541  68.769  1.00  0.00    -0.347 A  
HETATM   10  C   UNL     1     -11.767  11.529  69.731  1.00  0.00    -0.426 A  
HETATM   11  C   UNL     1     -11.277  10.249  69.417  1.00  0.00    -0.292 A  
HETATM   12  C   UNL     1     -11.029  11.021  67.107  1.00  0.00    -0.344 A  
HETATM   13  C   UNL     1     -10.941  10.010  68.073  1.00  0.00    -0.296 A  
BRANCH  11  14
HETATM   14  C   UNL     1     -11.081   9.224  70.472  1.00  0.00    -0.317 A  
HETATM   15  C   UNL     1     -10.183   8.154  70.306  1.00  0.00    -0.200 A  
HETATM   16  C   UNL     1     -10.072   7.136  71.260  1.00  0.00    -0.196 A  
HETATM   17  C   UNL     1     -10.842   7.176  72.416  1.00  0.00    -0.280 A  
HETATM   18  C   UNL     1     -11.717   8.238  72.622  1.00  0.00    -0.406 A  
HETATM   19  C   UNL     1     -11.836   9.246  71.659  1.00  0.00    -0.453 A  
ENDBRANCH  11  14
ENDBRANCH   6   8
ENDBRANCH   5   6
ENDBRANCH   3   5
TORSDOF 4
ENDMDL
MODEL       43
REMARK 921   NORMALIZED FREE ENERGY PREDICTED BY IDOCK:   -5.65 KCAL/MOL
REMARK 922        TOTAL FREE ENERGY PREDICTED BY IDOCK:   -7.63 KCAL/MOL
REMARK 923 INTER-LIGAND FREE ENERGY PREDICTED BY IDOCK:   -6.91 KCAL/MOL
REMARK 924 INTRA-LIGAND FREE ENERGY PREDICTED BY IDOCK:   -0.72 KCAL/MOL
REMARK 927      BINDING AFFINITY PREDICTED BY RF-SCORE:    0.00 PKD
ROOT
HETATM    1  O   UNL     1      -7.450  20.708  67.427  1.00  0.00    -0.326 OA 
HETATM    2  C   UNL     1      -8.465  20.143  66.737  1.00  0.00    -0.302 C  
HETATM    3  C   UNL     1      -9.820  20.447  67.312  1.00  0.00    -0.597 C  
HETATM    4  O   UNL     1      -8.281  19.499  65.718  1.00  0.00    -0.427 OA 
ENDROOT
BRANCH   3   5
HETATM    5  C   UNL     1     -10.805  19.326  67.004  1.00  0.00    -0.515 C  
BRANCH   5   6
HETATM    6  C   UNL     1     -10.486  18.110  67.845  1.00  0.00    -0.392 C  
HETATM    7  O   UNL     1     -10.283  18.232  69.052  1.00  0.00    -0.376 OA 
BRANCH   6   8
HETATM    8  C   UNL     1     -10.494  16.750  67.228  1.00  0.00    -0.310 A  
HETATM    9  C   UNL     1     -10.671  15.586  67.975  1.00  0.00    -0.283 A  
HETATM   10  C   UNL     1     -10.574  14.332  67.359  1.00  0.00    -0.276 A  
HETATM   11  C   UNL     1     -10.301  14.196  65.987  1.00  0.00    -0.316 A  
HETATM   12  C   UNL     1     -10.265  16.640  65.853  1.00  0.00    -0.358 A  
HETATM   13  C   UNL     1     -10.181  15.382  65.242  1.00  0.00    -0.390 A  
BRANCH  11  14
HETATM   14  C   UNL     1     -10.100  12.859  65.376  1.00  0.00    -0.265 A  
HETATM   15  C   UNL     1     -10.480  12.587  64.049  1.00  0.00    -0.449 A  
HETATM   16  C   UNL     1     -10.380  11.300  63.507  1.00  0.00    -0.463 A  
HETATM   17  C   UNL     1      -9.877  10.257  64.275  1.00  0.00    -0.357 A  
HETATM   18  C   UNL     1      -9.465  10.501  65.581  1.00  0.00    -0.259 A  
HETATM   19  C   UNL     1      -9.581  11.785  66.124  1.00  0.00    -0.250 A  
ENDBRANCH  11  14
ENDBRANCH   6   8
ENDBRANCH   5   6
ENDBRANCH   3   5
TORSDOF 4
ENDMDL
MODEL       44
REMARK 921   NORMALIZED FREE ENERGY PREDICTED BY IDOCK:   -5.63 KCAL/MOL
REMARK 922        TOTAL FREE ENERGY PREDICTED BY IDOCK:   -7.60 KCAL/MOL
REMARK 923 INTER-LIGAND FREE ENERGY PREDICTED BY IDOCK:   -6.85 KCAL/MOL
REMARK 924 INTRA-LIGAND FREE ENERGY PREDICTED BY IDOCK:   -0.75 KCAL/MOL
REMARK 927      BINDING AFFINITY PREDICTED BY RF-SCORE:    0.00 PKD
ROOT
HETATM    1  O   UNL     1     -10.587   5.219  70.309  1.00  0.00    -0.278 OA 
HETATM    2  C   UNL     1     -10.814   6.014  71.376  1.00  0.00    -0.270 C  
HETATM    3  C   UNL     1     -11.912   7.016  71.151  1.00  0.00    -0.398 C  
HETATM    4  O   UNL     1     -10.214   5.880  72.429  1.00  0.00    -0.182 OA 
ENDROOT
BRANCH   3   5
HETATM    5  C   UNL     1     -11.690   8.264  71.997  1.00  0.00    -0.407 C  
BRANCH   5   6
HETATM    6  C   UNL     1     -10.634   9.140  71.359  1.00  0.00    -0.341 C  
HETATM    7  O   UNL     1      -9.512   9.212  71.856  1.00  0.00    -0.332 OA 
BRANCH   6   8
HETATM    8  C   UNL     1     -10.928   9.857  70.082  1.00  0.00    -0.356 A  
HETATM    9  C   UNL     1     -10.441   9.425  68.849  1.00  0.00    -0.236 A  
HETATM   10  C   UNL     1     -10.666  10.188  67.696  1.00  0.00    -0.339 A  
HETATM   11  C   UNL     1     -11.381  11.398  67.732  1.00  0.00    -0.354 A  
HETATM   12  C   UNL     1     -11.679  11.035  70.135  1.00  0.00    -0.442 A  
HETATM   13  C   UNL     1     -11.911  11.786  68.975  1.00  0.00    -0.379 A  
BRANCH  11  14
HETATM   14  C   UNL     1     -11.520  12.241  66.519  1.00  0.00    -0.438 A  
HETATM   15  C   UNL     1     -12.294  13.416  66.519  1.00  0.00    -0.354 A  
HETATM   16  C   UNL     1     -12.503  14.155  65.349  1.00  0.00    -0.488 A  
HETATM   17  C   UNL     1     -11.923  13.748  64.153  1.00  0.00    -0.473 A  
HETATM   18  C   UNL     1     -11.128  12.607  64.128  1.00  0.00    -0.428 A  
HETATM   19  C   UNL     1     -10.934  11.862  65.297  1.00  0.00    -0.354 A  
ENDBRANCH  11  14
ENDBRANCH   6   8
ENDBRANCH   5   6
ENDBRANCH   3   5
TORSDOF 4
ENDMDL
MODEL       45
REMARK 921   NORMALIZED FREE ENERGY PREDICTED BY IDOCK:   -5.53 KCAL/MOL
REMARK 922        TOTAL FREE ENERGY PREDICTED BY IDOCK:   -7.49 KCAL/MOL
REMARK 923 INTER-LIGAND FREE ENERGY PREDICTED BY IDOCK:   -6.93 KCAL/MOL
REMARK 924 INTRA-LIGAND FREE ENERGY PREDICTED BY IDOCK:   -0.56 KCAL/MOL
REMARK 927      BINDING AFFINITY PREDICTED BY RF-SCORE:    0.00 PKD
ROOT
HETATM    1  O   UNL     1     -10.764   7.328  66.757  1.00  0.00    -0.311 OA 
HETATM    2  C   UNL     1     -10.022   8.453  66.662  1.00  0.00    -0.284 C  
HETATM    3  C   UNL     1     -10.379   9.491  67.688  1.00  0.00    -0.299 C  
HETATM    4  O   UNL     1      -9.118   8.571  65.852  1.00  0.00    -0.182 OA 
ENDROOT
BRANCH   3   5
HETATM    5  C   UNL     1     -10.082  10.893  67.168  1.00  0.00    -0.235 C  
BRANCH   5   6
HETATM    6  C   UNL     1     -11.183  11.844  67.584  1.00  0.00    -0.276 C  
HETATM    7  O   UNL     1     -12.198  11.412  68.125  1.00  0.00    -0.602 OA 
BRANCH   6   8
HETATM    8  C   UNL     1     -11.004  13.317  67.412  1.00  0.00    -0.287 A  
HETATM    9  C   UNL     1     -10.095  13.863  66.506  1.00  0.00    -0.286 A  
HETATM   10  C   UNL     1      -9.898  15.248  66.455  1.00  0.00    -0.295 A  
HETATM   11  C   UNL     1     -10.598  16.132  67.296  1.00  0.00    -0.305 A  
HETATM   12  C   UNL     1     -11.743  14.179  68.228  1.00  0.00    -0.383 A  
HETATM   13  C   UNL     1     -11.550  15.565  68.162  1.00  0.00    -0.313 A  
BRANCH  11  14
HETATM   14  C   UNL     1     -10.300  17.585  67.296  1.00  0.00    -0.337 A  
HETATM   15  C   UNL     1      -9.861  18.251  68.455  1.00  0.00    -0.400 A  
HETATM   16  C   UNL     1      -9.675  19.638  68.478  1.00  0.00    -0.493 A  
HETATM   17  C   UNL     1      -9.905  20.391  67.333  1.00  0.00    -0.587 A  
HETATM   18  C   UNL     1     -10.311  19.758  66.163  1.00  0.00    -0.627 A  
HETATM   19  C   UNL     1     -10.510  18.373  66.148  1.00  0.00    -0.422 A  
ENDBRANCH  11  14
ENDBRANCH   6   8
ENDBRANCH   5   6
ENDBRANCH   3   5
TORSDOF 4
ENDMDL
MODEL       46
REMARK 921   NORMALIZED FREE ENERGY PREDICTED BY IDOCK:   -5.46 KCAL/MOL
REMARK 922        TOTAL FREE ENERGY PREDICTED BY IDOCK:   -7.39 KCAL/MOL
REMARK 923 INTER-LIGAND FREE ENERGY PREDICTED BY IDOCK:   -6.69 KCAL/MOL
REMARK 924 INTRA-LIGAND FREE ENERGY PREDICTED BY IDOCK:   -0.70 KCAL/MOL
REMARK 927      BINDING AFFINITY PREDICTED BY RF-SCORE:    0.00 PKD
ROOT
HETATM    1  O   UNL     1     -13.027  15.059  73.924  1.00  0.00    -0.469 OA 
HETATM    2  C   UNL     1     -13.076  14.255  72.839  1.00  0.00    -0.491 C  
HETATM    3  C   UNL     1     -12.045  14.593  71.799  1.00  0.00    -0.391 C  
HETATM    4  O   UNL     1     -13.852  13.319  72.757  1.00  0.00    -0.690 OA 
ENDROOT
BRANCH   3   5
HETATM    5  C   UNL     1     -12.529  14.204  70.408  1.00  0.00    -0.424 C  
BRANCH   5   6
HETATM    6  C   UNL     1     -11.347  13.995  69.488  1.00  0.00    -0.245 C  
HETATM    7  O   UNL     1     -11.136  12.887  68.998  1.00  0.00    -0.251 OA 
BRANCH   6   8
HETATM    8  C   UNL     1     -10.480  15.151  69.108  1.00  0.00    -0.252 A  
HETATM    9  C   UNL     1      -9.107  15.173  69.351  1.00  0.00    -0.180 A  
HETATM   10  C   UNL     1      -8.360  16.321  69.062  1.00  0.00    -0.239 A  
HETATM   11  C   UNL     1      -8.949  17.478  68.523  1.00  0.00    -0.279 A  
HETATM   12  C   UNL     1     -11.081  16.274  68.531  1.00  0.00    -0.368 A  
HETATM   13  C   UNL     1     -10.324  17.415  68.234  1.00  0.00    -0.374 A  
BRANCH  11  14
HETATM   14  C   UNL     1      -8.158  18.717  68.321  1.00  0.00    -0.339 A  
HETATM   15  C   UNL     1      -8.484  19.648  67.317  1.00  0.00    -0.348 A  
HETATM   16  C   UNL     1      -7.680  20.765  67.065  1.00  0.00    -0.271 A  
HETATM   17  C   UNL     1      -6.539  20.990  67.828  1.00  0.00    -0.385 A  
HETATM   18  C   UNL     1      -6.208  20.104  68.847  1.00  0.00    -0.351 A  
HETATM   19  C   UNL     1      -7.007  18.980  69.086  1.00  0.00    -0.346 A  
ENDBRANCH  11  14
ENDBRANCH   6   8
ENDBRANCH   5   6
ENDBRANCH   3   5
TORSDOF 4
ENDMDL
MODEL       47
REMARK 921   NORMALIZED FREE ENERGY PREDICTED BY IDOCK:   -5.45 KCAL/MOL
REMARK 922        TOTAL FREE ENERGY PREDICTED BY IDOCK:   -7.38 KCAL/MOL
REMARK 923 INTER-LIGAND FREE ENERGY PREDICTED BY IDOCK:   -6.79 KCAL/MOL
REMARK 924 INTRA-LIGAND FREE ENERGY PREDICTED BY IDOCK:   -0.60 KCAL/MOL
REMARK 927      BINDING AFFINITY PREDICTED BY RF-SCORE:    0.00 PKD
ROOT
HETATM    1  O   UNL     1      -6.434  19.773  70.271  1.00  0.00    -0.289 OA 
HETATM    2  C   UNL     1      -6.651  20.047  68.966  1.00  0.00    -0.311 C  
HETATM    3  C   UNL     1      -8.000  19.599  68.479  1.00  0.00    -0.350 C  
HETATM    4  O   UNL     1      -5.840  20.649  68.283  1.00  0.00    -0.257 OA 
ENDROOT
BRANCH   3   5
HETATM    5  C   UNL     1      -7.960  19.275  66.990  1.00  0.00    -0.277 C  
BRANCH   5   6
HETATM    6  C   UNL     1      -8.264  17.810  66.770  1.00  0.00    -0.250 C  
HETATM    7  O   UNL     1      -7.711  17.196  65.860  1.00  0.00    -0.446 OA 
BRANCH   6   8
HETATM    8  C   UNL     1      -9.175  17.086  67.706  1.00  0.00    -0.236 A  
HETATM    9  C   UNL     1     -10.557  17.277  67.709  1.00  0.00    -0.367 A  
HETATM   10  C   UNL     1     -11.353  16.646  68.672  1.00  0.00    -0.155 A  
HETATM   11  C   UNL     1     -10.806  15.805  69.656  1.00  0.00    -0.300 A  
HETATM   12  C   UNL     1      -8.613  16.219  68.648  1.00  0.00    -0.222 A  
HETATM   13  C   UNL     1      -9.418  15.581  69.601  1.00  0.00    -0.244 A  
BRANCH  11  14
HETATM   14  C   UNL     1     -11.654  15.228  70.728  1.00  0.00    -0.371 A  
HETATM   15  C   UNL     1     -12.205  13.937  70.622  1.00  0.00    -0.443 A  
HETATM   16  C   UNL     1     -13.083  13.434  71.589  1.00  0.00    -0.463 A  
HETATM   17  C   UNL     1     -13.415  14.203  72.698  1.00  0.00    -0.634 A  
HETATM   18  C   UNL     1     -12.862  15.471  72.846  1.00  0.00    -0.564 A  
HETATM   19  C   UNL     1     -11.996  15.976  71.870  1.00  0.00    -0.606 A  
ENDBRANCH  11  14
ENDBRANCH   6   8
ENDBRANCH   5   6
ENDBRANCH   3   5
TORSDOF 4
ENDMDL
MODEL       48
REMARK 921   NORMALIZED FREE ENERGY PREDICTED BY IDOCK:   -5.43 KCAL/MOL
REMARK 922        TOTAL FREE ENERGY PREDICTED BY IDOCK:   -7.36 KCAL/MOL
REMARK 923 INTER-LIGAND FREE ENERGY PREDICTED BY IDOCK:   -6.72 KCAL/MOL
REMARK 924 INTRA-LIGAND FREE ENERGY PREDICTED BY IDOCK:   -0.64 KCAL/MOL
REMARK 927      BINDING AFFINITY PREDICTED BY RF-SCORE:    0.00 PKD
ROOT
HETATM    1  O   UNL     1      -6.991  19.840  69.658  1.00  0.00    -0.337 OA 
HETATM    2  C   UNL     1      -6.925  19.297  68.423  1.00  0.00    -0.280 C  
HETATM    3  C   UNL     1      -8.247  19.281  67.708  1.00  0.00    -0.322 C  
HETATM    4  O   UNL     1      -5.876  18.913  67.935  1.00  0.00    -0.194 OA 
ENDROOT
BRANCH   3   5
HETATM    5  C   UNL     1      -8.315  18.123  66.719  1.00  0.00    -0.270 C  
BRANCH   5   6
HETATM    6  C   UNL     1      -9.734  17.606  66.623  1.00  0.00    -0.301 C  
HETATM    7  O   UNL     1     -10.488  18.035  65.752  1.00  0.00    -0.573 OA 
BRANCH   6   8
HETATM    8  C   UNL     1     -10.197  16.518  67.535  1.00  0.00    -0.283 A  
HETATM    9  C   UNL     1      -9.871  15.178  67.333  1.00  0.00    -0.224 A  
HETATM   10  C   UNL     1     -10.412  14.188  68.163  1.00  0.00    -0.244 A  
HETATM   11  C   UNL     1     -11.288  14.497  69.218  1.00  0.00    -0.317 A  
HETATM   12  C   UNL     1     -11.032  16.854  68.606  1.00  0.00    -0.262 A  
HETATM   13  C   UNL     1     -11.559  15.860  69.440  1.00  0.00    -0.352 A  
BRANCH  11  14
HETATM   14  C   UNL     1     -11.929  13.427  70.020  1.00  0.00    -0.407 A  
HETATM   15  C   UNL     1     -12.674  13.714  71.178  1.00  0.00    -0.432 A  
HETATM   16  C   UNL     1     -13.194  12.697  71.987  1.00  0.00    -0.531 A  
HETATM   17  C   UNL     1     -13.000  11.364  71.642  1.00  0.00    -0.523 A  
HETATM   18  C   UNL     1     -12.294  11.049  70.486  1.00  0.00    -0.462 A  
HETATM   19  C   UNL     1     -11.762  12.069  69.689  1.00  0.00    -0.405 A  
ENDBRANCH  11  14
ENDBRANCH   6   8
ENDBRANCH   5   6
ENDBRANCH   3   5
TORSDOF 4
ENDMDL
MODEL       49
REMARK 921   NORMALIZED FREE ENERGY PREDICTED BY IDOCK:   -5.42 KCAL/MOL
REMARK 922        TOTAL FREE ENERGY PREDICTED BY IDOCK:   -7.35 KCAL/MOL
REMARK 923 INTER-LIGAND FREE ENERGY PREDICTED BY IDOCK:   -6.78 KCAL/MOL
REMARK 924 INTRA-LIGAND FREE ENERGY PREDICTED BY IDOCK:   -0.57 KCAL/MOL
REMARK 927      BINDING AFFINITY PREDICTED BY RF-SCORE:    0.00 PKD
ROOT
HETATM    1  O   UNL     1      -7.374  20.693  66.920  1.00  0.00    -0.301 OA 
HETATM    2  C   UNL     1      -8.174  19.698  66.480  1.00  0.00    -0.328 C  
HETATM    3  C   UNL     1      -9.635  19.955  66.725  1.00  0.00    -0.523 C  
HETATM    4  O   UNL     1      -7.738  18.722  65.894  1.00  0.00    -0.439 OA 
ENDROOT
BRANCH   3   5
HETATM    5  C   UNL     1     -10.398  18.644  66.880  1.00  0.00    -0.444 C  
BRANCH   5   6
HETATM    6  C   UNL     1     -10.272  18.137  68.300  1.00  0.00    -0.389 C  
HETATM    7  O   UNL     1      -9.851  18.879  69.184  1.00  0.00    -0.349 OA 
BRANCH   6   8
HETATM    8  C   UNL     1     -10.734  16.759  68.646  1.00  0.00    -0.352 A  
HETATM    9  C   UNL     1     -11.132  16.401  69.933  1.00  0.00    -0.313 A  
HETATM   10  C   UNL     1     -11.464  15.072  70.224  1.00  0.00    -0.308 A  
HETATM   11  C   UNL     1     -11.414  14.061  69.247  1.00  0.00    -0.344 A  
HETATM   12  C   UNL     1     -10.719  15.780  67.648  1.00  0.00    -0.310 A  
HETATM   13  C   UNL     1     -11.064  14.455  67.943  1.00  0.00    -0.288 A  
BRANCH  11  14
HETATM   14  C   UNL     1     -11.670  12.643  69.600  1.00  0.00    -0.373 A  
HETATM   15  C   UNL     1     -12.402  12.286  70.748  1.00  0.00    -0.383 A  
HETATM   16  C   UNL     1     -12.558  10.949  71.131  1.00  0.00    -0.532 A  
HETATM   17  C   UNL     1     -12.003   9.933  70.361  1.00  0.00    -0.271 A  
HETATM   18  C   UNL     1     -11.299  10.254  69.204  1.00  0.00    -0.244 A  
HETATM   19  C   UNL     1     -11.133  11.592  68.833  1.00  0.00    -0.287 A  
ENDBRANCH  11  14
ENDBRANCH   6   8
ENDBRANCH   5   6
ENDBRANCH   3   5
TORSDOF 4
ENDMDL
MODEL       50
REMARK 921   NORMALIZED FREE ENERGY PREDICTED BY IDOCK:   -5.42 KCAL/MOL
REMARK 922        TOTAL FREE ENERGY PREDICTED BY IDOCK:   -7.35 KCAL/MOL
REMARK 923 INTER-LIGAND FREE ENERGY PREDICTED BY IDOCK:   -6.80 KCAL/MOL
REMARK 924 INTRA-LIGAND FREE ENERGY PREDICTED BY IDOCK:   -0.55 KCAL/MOL
REMARK 927      BINDING AFFINITY PREDICTED BY RF-SCORE:    0.00 PKD
ROOT
HETATM    1  O   UNL     1      -5.788  14.761  67.456  1.00  0.00    -0.332 OA 
HETATM    2  C   UNL     1      -6.526  15.890  67.517  1.00  0.00    -0.175 C  
HETATM    3  C   UNL     1      -7.873  15.758  66.863  1.00  0.00    -0.271 C  
HETATM    4  O   UNL     1      -6.142  16.889  68.100  1.00  0.00    -0.125 OA 
ENDROOT
BRANCH   3   5
HETATM    5  C   UNL     1      -8.356  17.104  66.338  1.00  0.00    -0.315 C  
BRANCH   5   6
HETATM    6  C   UNL     1      -9.850  17.233  66.540  1.00  0.00    -0.298 C  
HETATM    7  O   UNL     1     -10.503  17.998  65.834  1.00  0.00    -0.506 OA 
BRANCH   6   8
HETATM    8  C   UNL     1     -10.546  16.373  67.543  1.00  0.00    -0.309 A  
HETATM    9  C   UNL     1     -10.563  16.670  68.905  1.00  0.00    -0.337 A  
HETATM   10  C   UNL     1     -11.147  15.778  69.813  1.00  0.00    -0.322 A  
HETATM   11  C   UNL     1     -11.735  14.570  69.398  1.00  0.00    -0.361 A  
HETATM   12  C   UNL     1     -11.163  15.198  67.101  1.00  0.00    -0.320 A  
HETATM   13  C   UNL     1     -11.757  14.317  68.015  1.00  0.00    -0.386 A  
BRANCH  11  14
HETATM   14  C   UNL     1     -12.257  13.594  70.385  1.00  0.00    -0.434 A  
HETATM   15  C   UNL     1     -12.070  12.208  70.225  1.00  0.00    -0.385 A  
HETATM   16  C   UNL     1     -12.648  11.285  71.105  1.00  0.00    -0.501 A  
HETATM   17  C   UNL     1     -13.408  11.728  72.181  1.00  0.00    -0.334 A  
HETATM   18  C   UNL     1     -13.585  13.093  72.382  1.00  0.00    -0.667 A  
HETATM   19  C   UNL     1     -13.019  14.012  71.492  1.00  0.00    -0.427 A  
ENDBRANCH  11  14
ENDBRANCH   6   8
ENDBRANCH   5   6
ENDBRANCH   3   5
TORSDOF 4
ENDMDL
MODEL       51
REMARK 921   NORMALIZED FREE ENERGY PREDICTED BY IDOCK:   -5.35 KCAL/MOL
REMARK 922        TOTAL FREE ENERGY PREDICTED BY IDOCK:   -7.26 KCAL/MOL
REMARK 923 INTER-LIGAND FREE ENERGY PREDICTED BY IDOCK:   -6.65 KCAL/MOL
REMARK 924 INTRA-LIGAND FREE ENERGY PREDICTED BY IDOCK:   -0.61 KCAL/MOL
REMARK 927      BINDING AFFINITY PREDICTED BY RF-SCORE:    0.00 PKD
ROOT
HETATM    1  O   UNL     1      -5.866  20.612  71.671  1.00  0.00    -0.620 OA 
HETATM    2  C   UNL     1      -5.624  19.841  70.589  1.00  0.00    -0.263 C  
HETATM    3  C   UNL     1      -5.639  20.607  69.296  1.00  0.00    -0.405 C  
HETATM    4  O   UNL     1      -5.366  18.653  70.679  1.00  0.00    -0.230 OA 
ENDROOT
BRANCH   3   5
HETATM    5  C   UNL     1      -6.056  19.708  68.137  1.00  0.00    -0.256 C  
BRANCH   5   6
HETATM    6  C   UNL     1      -7.458  20.056  67.690  1.00  0.00    -0.292 C  
HETATM    7  O   UNL     1      -7.832  21.227  67.691  1.00  0.00    -0.212 OA 
BRANCH   6   8
HETATM    8  C   UNL     1      -8.364  18.988  67.170  1.00  0.00    -0.296 A  
HETATM    9  C   UNL     1      -9.752  19.128  67.141  1.00  0.00    -0.393 A  
HETATM   10  C   UNL     1     -10.559  18.059  66.734  1.00  0.00    -0.281 A  
HETATM   11  C   UNL     1     -10.016  16.822  66.342  1.00  0.00    -0.317 A  
HETATM   12  C   UNL     1      -7.799  17.783  66.743  1.00  0.00    -0.262 A  
HETATM   13  C   UNL     1      -8.613  16.721  66.325  1.00  0.00    -0.340 A  
BRANCH  11  14
HETATM   14  C   UNL     1     -10.892  15.671  66.013  1.00  0.00    -0.276 A  
HETATM   15  C   UNL     1     -11.395  14.815  67.010  1.00  0.00    -0.358 A  
HETATM   16  C   UNL     1     -12.140  13.675  66.689  1.00  0.00    -0.459 A  
HETATM   17  C   UNL     1     -12.418  13.374  65.360  1.00  0.00    -0.543 A  
HETATM   18  C   UNL     1     -11.960  14.218  64.354  1.00  0.00    -0.476 A  
HETATM   19  C   UNL     1     -11.203  15.349  64.678  1.00  0.00    -0.374 A  
ENDBRANCH  11  14
ENDBRANCH   6   8
ENDBRANCH   5   6
ENDBRANCH   3   5
TORSDOF 4
ENDMDL
MODEL       52
REMARK 921   NORMALIZED FREE ENERGY PREDICTED BY IDOCK:   -5.33 KCAL/MOL
REMARK 922        TOTAL FREE ENERGY PREDICTED BY IDOCK:   -7.23 KCAL/MOL
REMARK 923 INTER-LIGAND FREE ENERGY PREDICTED BY IDOCK:   -6.45 KCAL/MOL
REMARK 924 INTRA-LIGAND FREE ENERGY PREDICTED BY IDOCK:   -0.78 KCAL/MOL
REMARK 927      BINDING AFFINITY PREDICTED BY RF-SCORE:    0.00 PKD
ROOT
HETATM    1  O   UNL     1     -10.347   5.216  69.690  1.00  0.00    -0.264 OA 
HETATM    2  C   UNL     1     -10.392   5.348  71.033  1.00  0.00    -0.236 C  
HETATM    3  C   UNL     1     -11.525   6.212  71.509  1.00  0.00    -0.325 C  
HETATM    4  O   UNL     1      -9.613   4.770  71.771  1.00  0.00    -0.143 OA 
ENDROOT
BRANCH   3   5
HETATM    5  C   UNL     1     -11.174   6.891  72.828  1.00  0.00    -0.277 C  
BRANCH   5   6
HETATM    6  C   UNL     1     -10.317   8.111  72.570  1.00  0.00    -0.330 C  
HETATM    7  O   UNL     1      -9.293   8.294  73.224  1.00  0.00    -0.252 OA 
BRANCH   6   8
HETATM    8  C   UNL     1     -10.671   9.054  71.467  1.00  0.00    -0.421 A  
HETATM    9  C   UNL     1      -9.828   9.292  70.382  1.00  0.00    -0.290 A  
HETATM   10  C   UNL     1     -10.166  10.258  69.426  1.00  0.00    -0.255 A  
HETATM   11  C   UNL     1     -11.348  11.013  69.516  1.00  0.00    -0.356 A  
HETATM   12  C   UNL     1     -11.874   9.762  71.554  1.00  0.00    -0.476 A  
HETATM   13  C   UNL     1     -12.211  10.718  70.587  1.00  0.00    -0.474 A  
BRANCH  11  14
HETATM   14  C   UNL     1     -11.636  12.101  68.550  1.00  0.00    -0.366 A  
HETATM   15  C   UNL     1     -11.655  11.873  67.162  1.00  0.00    -0.363 A  
HETATM   16  C   UNL     1     -11.830  12.920  66.249  1.00  0.00    -0.477 A  
HETATM   17  C   UNL     1     -12.013  14.220  66.706  1.00  0.00    -0.462 A  
HETATM   18  C   UNL     1     -12.029  14.473  68.073  1.00  0.00    -0.305 A  
HETATM   19  C   UNL     1     -11.839  13.426  68.982  1.00  0.00    -0.378 A  
ENDBRANCH  11  14
ENDBRANCH   6   8
ENDBRANCH   5   6
ENDBRANCH   3   5
TORSDOF 4
ENDMDL
MODEL       53
REMARK 921   NORMALIZED FREE ENERGY PREDICTED BY IDOCK:   -5.32 KCAL/MOL
REMARK 922        TOTAL FREE ENERGY PREDICTED BY IDOCK:   -7.22 KCAL/MOL
REMARK 923 INTER-LIGAND FREE ENERGY PREDICTED BY IDOCK:   -6.56 KCAL/MOL
REMARK 924 INTRA-LIGAND FREE ENERGY PREDICTED BY IDOCK:   -0.66 KCAL/MOL
REMARK 927      BINDING AFFINITY PREDICTED BY RF-SCORE:    0.00 PKD
ROOT
HETATM    1  O   UNL     1     -11.554  12.285  63.082  1.00  0.00    -0.364 OA 
HETATM    2  C   UNL     1     -12.182  12.746  64.185  1.00  0.00    -0.429 C  
HETATM    3  C   UNL     1     -11.559  13.993  64.748  1.00  0.00    -0.387 C  
HETATM    4  O   UNL     1     -13.186  12.219  64.632  1.00  0.00    -0.763 OA 
ENDROOT
BRANCH   3   5
HETATM    5  C   UNL     1     -11.789  14.083  66.252  1.00  0.00    -0.428 C  
BRANCH   5   6
HETATM    6  C   UNL     1     -10.537  13.670  66.993  1.00  0.00    -0.274 C  
HETATM    7  O   UNL     1      -9.499  14.314  66.856  1.00  0.00    -0.242 OA 
BRANCH   6   8
HETATM    8  C   UNL     1     -10.579  12.527  67.954  1.00  0.00    -0.233 A  
HETATM    9  C   UNL     1      -9.548  11.595  68.059  1.00  0.00    -0.184 A  
HETATM   10  C   UNL     1      -9.682  10.489  68.908  1.00  0.00    -0.206 A  
HETATM   11  C   UNL     1     -10.839  10.277  69.679  1.00  0.00    -0.311 A  
HETATM   12  C   UNL     1     -11.721  12.361  68.744  1.00  0.00    -0.379 A  
HETATM   13  C   UNL     1     -11.842  11.259  69.600  1.00  0.00    -0.430 A  
BRANCH  11  14
HETATM   14  C   UNL     1     -11.002   9.048  70.492  1.00  0.00    -0.295 A  
HETATM   15  C   UNL     1     -11.262   7.798  69.900  1.00  0.00    -0.070 A  
HETATM   16  C   UNL     1     -11.513   6.659  70.674  1.00  0.00    -0.420 A  
HETATM   17  C   UNL     1     -11.488   6.738  72.062  1.00  0.00    -0.317 A  
HETATM   18  C   UNL     1     -11.203   7.954  72.675  1.00  0.00    -0.459 A  
HETATM   19  C   UNL     1     -10.968   9.093  71.898  1.00  0.00    -0.372 A  
ENDBRANCH  11  14
ENDBRANCH   6   8
ENDBRANCH   5   6
ENDBRANCH   3   5
TORSDOF 4
ENDMDL
MODEL       54
REMARK 921   NORMALIZED FREE ENERGY PREDICTED BY IDOCK:   -5.31 KCAL/MOL
REMARK 922        TOTAL FREE ENERGY PREDICTED BY IDOCK:   -7.22 KCAL/MOL
REMARK 923 INTER-LIGAND FREE ENERGY PREDICTED BY IDOCK:   -6.47 KCAL/MOL
REMARK 924 INTRA-LIGAND FREE ENERGY PREDICTED BY IDOCK:   -0.75 KCAL/MOL
REMARK 927      BINDING AFFINITY PREDICTED BY RF-SCORE:    0.00 PKD
ROOT
HETATM    1  O   UNL     1     -12.970  12.431  63.853  1.00  0.00    -0.754 OA 
HETATM    2  C   UNL     1     -12.249  13.560  64.022  1.00  0.00    -0.402 C  
HETATM    3  C   UNL     1     -10.787  13.305  64.257  1.00  0.00    -0.414 C  
HETATM    4  O   UNL     1     -12.746  14.670  63.934  1.00  0.00    -0.788 OA 
ENDROOT
BRANCH   3   5
HETATM    5  C   UNL     1     -10.168  14.419  65.093  1.00  0.00    -0.420 C  
BRANCH   5   6
HETATM    6  C   UNL     1     -10.428  14.169  66.563  1.00  0.00    -0.280 C  
HETATM    7  O   UNL     1     -10.716  15.105  67.305  1.00  0.00    -0.291 OA 
BRANCH   6   8
HETATM    8  C   UNL     1     -10.413  12.775  67.098  1.00  0.00    -0.240 A  
HETATM    9  C   UNL     1      -9.244  12.021  67.201  1.00  0.00    -0.190 A  
HETATM   10  C   UNL     1      -9.301  10.686  67.619  1.00  0.00    -0.156 A  
HETATM   11  C   UNL     1     -10.516  10.061  67.950  1.00  0.00    -0.276 A  
HETATM   12  C   UNL     1     -11.628  12.187  67.464  1.00  0.00    -0.413 A  
HETATM   13  C   UNL     1     -11.675  10.855  67.894  1.00  0.00    -0.152 A  
BRANCH  11  14
HETATM   14  C   UNL     1     -10.565   8.618  68.292  1.00  0.00    -0.181 A  
HETATM   15  C   UNL     1     -10.389   8.163  69.612  1.00  0.00    -0.221 A  
HETATM   16  C   UNL     1     -10.339   6.798  69.916  1.00  0.00    -0.229 A  
HETATM   17  C   UNL     1     -10.486   5.853  68.907  1.00  0.00    -0.325 A  
HETATM   18  C   UNL     1     -10.692   6.271  67.597  1.00  0.00    -0.391 A  
HETATM   19  C   UNL     1     -10.727   7.637  67.295  1.00  0.00    -0.344 A  
ENDBRANCH  11  14
ENDBRANCH   6   8
ENDBRANCH   5   6
ENDBRANCH   3   5
TORSDOF 4
ENDMDL
MODEL       55
REMARK 921   NORMALIZED FREE ENERGY PREDICTED BY IDOCK:   -5.29 KCAL/MOL
REMARK 922        TOTAL FREE ENERGY PREDICTED BY IDOCK:   -7.19 KCAL/MOL
REMARK 923 INTER-LIGAND FREE ENERGY PREDICTED BY IDOCK:   -6.43 KCAL/MOL
REMARK 924 INTRA-LIGAND FREE ENERGY PREDICTED BY IDOCK:   -0.76 KCAL/MOL
REMARK 927      BINDING AFFINITY PREDICTED BY RF-SCORE:    0.00 PKD
ROOT
HETATM    1  O   UNL     1     -10.744  17.036  69.171  1.00  0.00    -0.324 OA 
HETATM    2  C   UNL     1     -11.426  15.891  68.952  1.00  0.00    -0.386 C  
HETATM    3  C   UNL     1     -10.931  15.121  67.760  1.00  0.00    -0.306 C  
HETATM    4  O   UNL     1     -12.317  15.511  69.692  1.00  0.00    -0.313 OA 
ENDROOT
BRANCH   3   5
HETATM    5  C   UNL     1     -12.054  14.297  67.141  1.00  0.00    -0.412 C  
BRANCH   5   6
HETATM    6  C   UNL     1     -11.567  12.895  66.849  1.00  0.00    -0.368 C  
HETATM    7  O   UNL     1     -11.242  12.582  65.705  1.00  0.00    -0.296 OA 
BRANCH   6   8
HETATM    8  C   UNL     1     -11.403  11.913  67.962  1.00  0.00    -0.352 A  
HETATM    9  C   UNL     1     -12.126  11.997  69.151  1.00  0.00    -0.241 A  
HETATM   10  C   UNL     1     -11.863  11.107  70.200  1.00  0.00    -0.449 A  
HETATM   11  C   UNL     1     -10.881  10.106  70.099  1.00  0.00    -0.368 A  
HETATM   12  C   UNL     1     -10.452  10.897  67.822  1.00  0.00    -0.238 A  
HETATM   13  C   UNL     1     -10.203  10.002  68.870  1.00  0.00    -0.206 A  
BRANCH  11  14
HETATM   14  C   UNL     1     -10.548   9.240  71.256  1.00  0.00    -0.417 A  
HETATM   15  C   UNL     1      -9.216   8.951  71.607  1.00  0.00    -0.302 A  
HETATM   16  C   UNL     1      -8.907   8.057  72.637  1.00  0.00    -0.264 A  
HETATM   17  C   UNL     1      -9.926   7.445  73.359  1.00  0.00    -0.365 A  
HETATM   18  C   UNL     1     -11.252   7.734  73.056  1.00  0.00    -0.380 A  
HETATM   19  C   UNL     1     -11.557   8.617  72.015  1.00  0.00    -0.440 A  
ENDBRANCH  11  14
ENDBRANCH   6   8
ENDBRANCH   5   6
ENDBRANCH   3   5
TORSDOF 4
ENDMDL
MODEL       56
REMARK 921   NORMALIZED FREE ENERGY PREDICTED BY IDOCK:   -5.25 KCAL/MOL
REMARK 922        TOTAL FREE ENERGY PREDICTED BY IDOCK:   -7.14 KCAL/MOL
REMARK 923 INTER-LIGAND FREE ENERGY PREDICTED BY IDOCK:   -6.46 KCAL/MOL
REMARK 924 INTRA-LIGAND FREE ENERGY PREDICTED BY IDOCK:   -0.68 KCAL/MOL
REMARK 927      BINDING AFFINITY PREDICTED BY RF-SCORE:    0.00 PKD
ROOT
HETATM    1  O   UNL     1     -12.152   6.247  71.877  1.00  0.00    -0.334 OA 
HETATM    2  C   UNL     1     -11.740   7.065  70.884  1.00  0.00    -0.343 C  
HETATM    3  C   UNL     1     -11.111   6.334  69.731  1.00  0.00    -0.473 C  
HETATM    4  O   UNL     1     -11.919   8.270  70.916  1.00  0.00    -0.273 OA 
ENDROOT
BRANCH   3   5
HETATM    5  C   UNL     1     -10.089   7.214  69.022  1.00  0.00    -0.183 C  
BRANCH   5   6
HETATM    6  C   UNL     1     -10.600   7.600  67.651  1.00  0.00    -0.224 C  
HETATM    7  O   UNL     1     -11.092   6.747  66.915  1.00  0.00    -0.397 OA 
BRANCH   6   8
HETATM    8  C   UNL     1     -10.582   9.030  67.221  1.00  0.00    -0.301 A  
HETATM    9  C   UNL     1     -11.160  10.050  67.976  1.00  0.00    -0.263 A  
HETATM   10  C   UNL     1     -11.199  11.359  67.479  1.00  0.00    -0.356 A  
HETATM   11  C   UNL     1     -10.664  11.695  66.223  1.00  0.00    -0.317 A  
HETATM   12  C   UNL     1     -10.004   9.349  65.988  1.00  0.00    -0.352 A  
HETATM   13  C   UNL     1     -10.036  10.663  65.503  1.00  0.00    -0.333 A  
BRANCH  11  14
HETATM   14  C   UNL     1     -10.806  13.065  65.673  1.00  0.00    -0.293 A  
HETATM   15  C   UNL     1      -9.920  14.100  66.023  1.00  0.00    -0.340 A  
HETATM   16  C   UNL     1     -10.114  15.413  65.580  1.00  0.00    -0.406 A  
HETATM   17  C   UNL     1     -11.191  15.719  64.756  1.00  0.00    -0.375 A  
HETATM   18  C   UNL     1     -12.067  14.711  64.367  1.00  0.00    -0.481 A  
HETATM   19  C   UNL     1     -11.878  13.403  64.825  1.00  0.00    -0.415 A  
ENDBRANCH  11  14
ENDBRANCH   6   8
ENDBRANCH   5   6
ENDBRANCH   3   5
TORSDOF 4
ENDMDL
MODEL       57
REMARK 921   NORMALIZED FREE ENERGY PREDICTED BY IDOCK:   -5.24 KCAL/MOL
REMARK 922        TOTAL FREE ENERGY PREDICTED BY IDOCK:   -7.13 KCAL/MOL
REMARK 923 INTER-LIGAND FREE ENERGY PREDICTED BY IDOCK:   -6.55 KCAL/MOL
REMARK 924 INTRA-LIGAND FREE ENERGY PREDICTED BY IDOCK:   -0.58 KCAL/MOL
REMARK 927      BINDING AFFINITY PREDICTED BY RF-SCORE:    0.00 PKD
ROOT
HETATM    1  O   UNL     1      -7.842   7.983  64.590  1.00  0.00    -0.124 OA 
HETATM    2  C   UNL     1      -8.275   8.267  65.838  1.00  0.00    -0.119 C  
HETATM    3  C   UNL     1      -9.642   8.892  65.867  1.00  0.00    -0.293 C  
HETATM    4  O   UNL     1      -7.628   7.987  66.832  1.00  0.00    -0.092 OA 
ENDROOT
BRANCH   3   5
HETATM    5  C   UNL     1      -9.801   9.793  67.086  1.00  0.00    -0.238 C  
BRANCH   5   6
HETATM    6  C   UNL     1     -10.392  11.123  66.672  1.00  0.00    -0.241 C  
HETATM    7  O   UNL     1     -10.442  11.432  65.484  1.00  0.00    -0.253 OA 
BRANCH   6   8
HETATM    8  C   UNL     1     -10.988  12.029  67.700  1.00  0.00    -0.287 A  
HETATM    9  C   UNL     1     -10.968  13.418  67.580  1.00  0.00    -0.284 A  
HETATM   10  C   UNL     1     -11.455  14.221  68.618  1.00  0.00    -0.328 A  
HETATM   11  C   UNL     1     -11.978  13.673  69.802  1.00  0.00    -0.404 A  
HETATM   12  C   UNL     1     -11.544  11.459  68.850  1.00  0.00    -0.388 A  
HETATM   13  C   UNL     1     -12.040  12.270  69.879  1.00  0.00    -0.319 A  
BRANCH  11  14
HETATM   14  C   UNL     1     -12.394  14.542  70.930  1.00  0.00    -0.415 A  
HETATM   15  C   UNL     1     -11.454  15.234  71.717  1.00  0.00    -0.494 A  
HETATM   16  C   UNL     1     -11.841  15.973  72.840  1.00  0.00    -0.555 A  
HETATM   17  C   UNL     1     -13.184  16.058  73.191  1.00  0.00    -0.633 A  
HETATM   18  C   UNL     1     -14.139  15.409  72.415  1.00  0.00    -0.645 A  
HETATM   19  C   UNL     1     -13.746  14.658  71.302  1.00  0.00    -0.439 A  
ENDBRANCH  11  14
ENDBRANCH   6   8
ENDBRANCH   5   6
ENDBRANCH   3   5
TORSDOF 4
ENDMDL
MODEL       58
REMARK 921   NORMALIZED FREE ENERGY PREDICTED BY IDOCK:   -5.24 KCAL/MOL
REMARK 922        TOTAL FREE ENERGY PREDICTED BY IDOCK:   -7.12 KCAL/MOL
REMARK 923 INTER-LIGAND FREE ENERGY PREDICTED BY IDOCK:   -6.45 KCAL/MOL
REMARK 924 INTRA-LIGAND FREE ENERGY PREDICTED BY IDOCK:   -0.67 KCAL/MOL
REMARK 927      BINDING AFFINITY PREDICTED BY RF-SCORE:    0.00 PKD
ROOT
HETATM    1  O   UNL     1      -8.782  17.275  65.985  1.00  0.00    -0.497 OA 
HETATM    2  C   UNL     1      -9.994  16.842  65.576  1.00  0.00    -0.023 C  
HETATM    3  C   UNL     1     -10.174  15.356  65.715  1.00  0.00    -0.378 C  
HETATM    4  O   UNL     1     -10.862  17.604  65.186  1.00  0.00    -0.664 OA 
ENDROOT
BRANCH   3   5
HETATM    5  C   UNL     1     -11.157  14.828  64.677  1.00  0.00    -0.337 C  
BRANCH   5   6
HETATM    6  C   UNL     1     -11.969  13.694  65.263  1.00  0.00    -0.376 C  
HETATM    7  O   UNL     1     -13.184  13.816  65.408  1.00  0.00    -0.722 OA 
BRANCH   6   8
HETATM    8  C   UNL     1     -11.310  12.395  65.593  1.00  0.00    -0.387 A  
HETATM    9  C   UNL     1     -10.584  11.661  64.655  1.00  0.00    -0.366 A  
HETATM   10  C   UNL     1     -10.069  10.403  64.992  1.00  0.00    -0.379 A  
HETATM   11  C   UNL     1     -10.256   9.838  66.265  1.00  0.00    -0.282 A  
HETATM   12  C   UNL     1     -11.471  11.872  66.880  1.00  0.00    -0.390 A  
HETATM   13  C   UNL     1     -10.942  10.618  67.212  1.00  0.00    -0.348 A  
BRANCH  11  14
HETATM   14  C   UNL     1      -9.790   8.462  66.568  1.00  0.00    -0.338 A  
HETATM   15  C   UNL     1      -8.469   8.053  66.308  1.00  0.00    -0.138 A  
HETATM   16  C   UNL     1      -8.060   6.729  66.502  1.00  0.00    -0.108 A  
HETATM   17  C   UNL     1      -8.959   5.784  66.984  1.00  0.00    -0.114 A  
HETATM   18  C   UNL     1     -10.264   6.165  67.279  1.00  0.00    -0.236 A  
HETATM   19  C   UNL     1     -10.673   7.487  67.069  1.00  0.00    -0.367 A  
ENDBRANCH  11  14
ENDBRANCH   6   8
ENDBRANCH   5   6
ENDBRANCH   3   5
TORSDOF 4
ENDMDL
MODEL       59
REMARK 921   NORMALIZED FREE ENERGY PREDICTED BY IDOCK:   -5.24 KCAL/MOL
REMARK 922        TOTAL FREE ENERGY PREDICTED BY IDOCK:   -7.12 KCAL/MOL
REMARK 923 INTER-LIGAND FREE ENERGY PREDICTED BY IDOCK:   -6.35 KCAL/MOL
REMARK 924 INTRA-LIGAND FREE ENERGY PREDICTED BY IDOCK:   -0.77 KCAL/MOL
REMARK 927      BINDING AFFINITY PREDICTED BY RF-SCORE:    0.00 PKD
ROOT
HETATM    1  O   UNL     1     -11.341   6.895  72.941  1.00  0.00    -0.245 OA 
HETATM    2  C   UNL     1     -11.796   6.836  71.671  1.00  0.00    -0.326 C  
HETATM    3  C   UNL     1     -11.084   5.814  70.829  1.00  0.00    -0.272 C  
HETATM    4  O   UNL     1     -12.731   7.514  71.281  1.00  0.00    -0.335 OA 
ENDROOT
BRANCH   3   5
HETATM    5  C   UNL     1     -11.092   6.220  69.360  1.00  0.00    -0.477 C  
BRANCH   5   6
HETATM    6  C   UNL     1      -9.971   7.198  69.087  1.00  0.00    -0.168 C  
HETATM    7  O   UNL     1      -8.823   6.933  69.438  1.00  0.00    -0.135 OA 
BRANCH   6   8
HETATM    8  C   UNL     1     -10.242   8.451  68.321  1.00  0.00    -0.244 A  
HETATM    9  C   UNL     1     -10.908   9.543  68.876  1.00  0.00    -0.177 A  
HETATM   10  C   UNL     1     -11.220  10.655  68.083  1.00  0.00    -0.366 A  
HETATM   11  C   UNL     1     -10.879  10.718  66.721  1.00  0.00    -0.256 A  
HETATM   12  C   UNL     1      -9.853   8.510  66.978  1.00  0.00    -0.289 A  
HETATM   13  C   UNL     1     -10.159   9.631  66.195  1.00  0.00    -0.328 A  
BRANCH  11  14
HETATM   14  C   UNL     1     -11.310  11.859  65.876  1.00  0.00    -0.365 A  
HETATM   15  C   UNL     1     -12.023  12.948  66.411  1.00  0.00    -0.462 A  
HETATM   16  C   UNL     1     -12.512  13.975  65.595  1.00  0.00    -0.531 A  
HETATM   17  C   UNL     1     -12.281  13.948  64.225  1.00  0.00    -0.447 A  
HETATM   18  C   UNL     1     -11.553  12.900  63.671  1.00  0.00    -0.547 A  
HETATM   19  C   UNL     1     -11.078  11.867  64.488  1.00  0.00    -0.381 A  
ENDBRANCH  11  14
ENDBRANCH   6   8
ENDBRANCH   5   6
ENDBRANCH   3   5
TORSDOF 4
ENDMDL
MODEL       60
REMARK 921   NORMALIZED FREE ENERGY PREDICTED BY IDOCK:   -5.23 KCAL/MOL
REMARK 922        TOTAL FREE ENERGY PREDICTED BY IDOCK:   -7.11 KCAL/MOL
REMARK 923 INTER-LIGAND FREE ENERGY PREDICTED BY IDOCK:   -6.74 KCAL/MOL
REMARK 924 INTRA-LIGAND FREE ENERGY PREDICTED BY IDOCK:   -0.37 KCAL/MOL
REMARK 927      BINDING AFFINITY PREDICTED BY RF-SCORE:    0.00 PKD
ROOT
HETATM    1  O   UNL     1     -11.218  17.106  64.409  1.00  0.00    -1.143 OA 
HETATM    2  C   UNL     1     -11.553  15.798  64.423  1.00  0.00    -0.240 C  
HETATM    3  C   UNL     1     -10.598  14.946  65.210  1.00  0.00    -0.421 C  
HETATM    4  O   UNL     1     -12.566  15.379  63.888  1.00  0.00    -0.725 OA 
ENDROOT
BRANCH   3   5
HETATM    5  C   UNL     1     -10.567  13.522  64.668  1.00  0.00    -0.441 C  
BRANCH   5   6
HETATM    6  C   UNL     1     -11.486  12.637  65.482  1.00  0.00    -0.340 C  
HETATM    7  O   UNL     1     -12.682  12.906  65.568  1.00  0.00    -0.568 OA 
BRANCH   6   8
HETATM    8  C   UNL     1     -10.957  11.393  66.117  1.00  0.00    -0.294 A  
HETATM    9  C   UNL     1     -10.275  10.413  65.397  1.00  0.00    -0.329 A  
HETATM   10  C   UNL     1      -9.886   9.222  66.022  1.00  0.00    -0.363 A  
HETATM   11  C   UNL     1     -10.159   8.969  67.378  1.00  0.00    -0.291 A  
HETATM   12  C   UNL     1     -11.201  11.182  67.478  1.00  0.00    -0.369 A  
HETATM   13  C   UNL     1     -10.798   9.993  68.099  1.00  0.00    -0.303 A  
BRANCH  11  14
HETATM   14  C   UNL     1      -9.830   7.660  67.994  1.00  0.00    -0.188 A  
HETATM   15  C   UNL     1     -10.052   7.408  69.360  1.00  0.00    -0.185 A  
HETATM   16  C   UNL     1      -9.650   6.208  69.959  1.00  0.00    -0.185 A  
HETATM   17  C   UNL     1      -9.035   5.221  69.198  1.00  0.00    -0.124 A  
HETATM   18  C   UNL     1      -8.829   5.429  67.838  1.00  0.00    -0.105 A  
HETATM   19  C   UNL     1      -9.218   6.636  67.247  1.00  0.00    -0.129 A  
ENDBRANCH  11  14
ENDBRANCH   6   8
ENDBRANCH   5   6
ENDBRANCH   3   5
TORSDOF 4
ENDMDL
MODEL       61
REMARK 921   NORMALIZED FREE ENERGY PREDICTED BY IDOCK:   -5.22 KCAL/MOL
REMARK 922        TOTAL FREE ENERGY PREDICTED BY IDOCK:   -7.10 KCAL/MOL
REMARK 923 INTER-LIGAND FREE ENERGY PREDICTED BY IDOCK:   -6.46 KCAL/MOL
REMARK 924 INTRA-LIGAND FREE ENERGY PREDICTED BY IDOCK:   -0.64 KCAL/MOL
REMARK 927      BINDING AFFINITY PREDICTED BY RF-SCORE:    0.00 PKD
ROOT
HETATM    1  O   UNL     1      -6.078  20.785  68.610  1.00  0.00    -0.333 OA 
HETATM    2  C   UNL     1      -6.712  20.701  67.420  1.00  0.00    -0.311 C  
HETATM    3  C   UNL     1      -8.085  20.096  67.518  1.00  0.00    -0.356 C  
HETATM    4  O   UNL     1      -6.223  21.130  66.389  1.00  0.00    -0.264 OA 
ENDROOT
BRANCH   3   5
HETATM    5  C   UNL     1      -8.464  19.397  66.218  1.00  0.00    -0.346 C  
BRANCH   5   6
HETATM    6  C   UNL     1      -9.926  19.008  66.246  1.00  0.00    -0.398 C  
HETATM    7  O   UNL     1     -10.781  19.799  65.853  1.00  0.00    -0.486 OA 
BRANCH   6   8
HETATM    8  C   UNL     1     -10.327  17.635  66.675  1.00  0.00    -0.333 A  
HETATM    9  C   UNL     1     -10.818  17.360  67.950  1.00  0.00    -0.270 A  
HETATM   10  C   UNL     1     -11.088  16.039  68.331  1.00  0.00    -0.351 A  
HETATM   11  C   UNL     1     -10.881  14.956  67.460  1.00  0.00    -0.292 A  
HETATM   12  C   UNL     1     -10.155  16.578  65.776  1.00  0.00    -0.328 A  
HETATM   13  C   UNL     1     -10.438  15.261  66.161  1.00  0.00    -0.318 A  
BRANCH  11  14
HETATM   14  C   UNL     1     -11.076  13.558  67.917  1.00  0.00    -0.288 A  
HETATM   15  C   UNL     1     -10.840  12.461  67.068  1.00  0.00    -0.282 A  
HETATM   16  C   UNL     1     -11.117  11.150  67.470  1.00  0.00    -0.353 A  
HETATM   17  C   UNL     1     -11.618  10.901  68.742  1.00  0.00    -0.378 A  
HETATM   18  C   UNL     1     -11.834  11.962  69.616  1.00  0.00    -0.406 A  
HETATM   19  C   UNL     1     -11.569  13.274  69.205  1.00  0.00    -0.370 A  
ENDBRANCH  11  14
ENDBRANCH   6   8
ENDBRANCH   5   6
ENDBRANCH   3   5
TORSDOF 4
ENDMDL
MODEL       62
REMARK 921   NORMALIZED FREE ENERGY PREDICTED BY IDOCK:   -5.19 KCAL/MOL
REMARK 922        TOTAL FREE ENERGY PREDICTED BY IDOCK:   -7.07 KCAL/MOL
REMARK 923 INTER-LIGAND FREE ENERGY PREDICTED BY IDOCK:   -6.42 KCAL/MOL
REMARK 924 INTRA-LIGAND FREE ENERGY PREDICTED BY IDOCK:   -0.65 KCAL/MOL
REMARK 927      BINDING AFFINITY PREDICTED BY RF-SCORE:    0.00 PKD
ROOT
HETATM    1  O   UNL     1      -7.111   7.121  65.717  1.00  0.00    -0.066 OA 
HETATM    2  C   UNL     1      -8.416   6.846  65.932  1.00  0.00    -0.144 C  
HETATM    3  C   UNL     1      -9.232   8.059  66.280  1.00  0.00    -0.237 C  
HETATM    4  O   UNL     1      -8.877   5.725  65.799  1.00  0.00    -0.149 OA 
ENDROOT
BRANCH   3   5
HETATM    5  C   UNL     1     -10.423   7.681  67.153  1.00  0.00    -0.412 C  
BRANCH   5   6
HETATM    6  C   UNL     1     -10.188   8.138  68.576  1.00  0.00    -0.208 C  
HETATM    7  O   UNL     1      -9.392   7.535  69.293  1.00  0.00    -0.151 OA 
BRANCH   6   8
HETATM    8  C   UNL     1     -10.861   9.369  69.087  1.00  0.00    -0.176 A  
HETATM    9  C   UNL     1     -10.876  10.569  68.376  1.00  0.00    -0.284 A  
HETATM   10  C   UNL     1     -11.437  11.718  68.945  1.00  0.00    -0.357 A  
HETATM   11  C   UNL     1     -12.003  11.712  70.232  1.00  0.00    -0.445 A  
HETATM   12  C   UNL     1     -11.457   9.328  70.351  1.00  0.00    -0.255 A  
HETATM   13  C   UNL     1     -12.028  10.480  70.909  1.00  0.00    -0.481 A  
BRANCH  11  14
HETATM   14  C   UNL     1     -12.500  12.963  70.856  1.00  0.00    -0.383 A  
HETATM   15  C   UNL     1     -13.270  12.948  72.033  1.00  0.00    -0.549 A  
HETATM   16  C   UNL     1     -13.819  14.121  72.565  1.00  0.00    -0.590 A  
HETATM   17  C   UNL     1     -13.593  15.342  71.941  1.00  0.00    -0.590 A  
HETATM   18  C   UNL     1     -12.810  15.393  70.792  1.00  0.00    -0.524 A  
HETATM   19  C   UNL     1     -12.275  14.217  70.256  1.00  0.00    -0.416 A  
ENDBRANCH  11  14
ENDBRANCH   6   8
ENDBRANCH   5   6
ENDBRANCH   3   5
TORSDOF 4
ENDMDL
MODEL       63
REMARK 921   NORMALIZED FREE ENERGY PREDICTED BY IDOCK:   -5.19 KCAL/MOL
REMARK 922        TOTAL FREE ENERGY PREDICTED BY IDOCK:   -7.06 KCAL/MOL
REMARK 923 INTER-LIGAND FREE ENERGY PREDICTED BY IDOCK:   -6.42 KCAL/MOL
REMARK 924 INTRA-LIGAND FREE ENERGY PREDICTED BY IDOCK:   -0.64 KCAL/MOL
REMARK 927      BINDING AFFINITY PREDICTED BY RF-SCORE:    0.00 PKD
ROOT
HETATM    1  O   UNL     1      -9.311  15.229  65.906  1.00  0.00    -0.326 OA 
HETATM    2  C   UNL     1     -10.224  14.238  66.002  1.00  0.00    -0.315 C  
HETATM    3  C   UNL     1     -11.494  14.661  66.684  1.00  0.00    -0.363 C  
HETATM    4  O   UNL     1     -10.037  13.131  65.526  1.00  0.00    -0.289 OA 
ENDROOT
BRANCH   3   5
HETATM    5  C   UNL     1     -12.158  13.478  67.378  1.00  0.00    -0.360 C  
BRANCH   5   6
HETATM    6  C   UNL     1     -11.691  13.390  68.814  1.00  0.00    -0.340 C  
HETATM    7  O   UNL     1     -11.412  14.414  69.435  1.00  0.00    -0.258 OA 
BRANCH   6   8
HETATM    8  C   UNL     1     -11.643  12.067  69.506  1.00  0.00    -0.389 A  
HETATM    9  C   UNL     1     -12.404  11.783  70.639  1.00  0.00    -0.421 A  
HETATM   10  C   UNL     1     -12.248  10.561  71.304  1.00  0.00    -0.472 A  
HETATM   11  C   UNL     1     -11.338   9.584  70.864  1.00  0.00    -0.410 A  
HETATM   12  C   UNL     1     -10.762  11.093  69.024  1.00  0.00    -0.265 A  
HETATM   13  C   UNL     1     -10.621   9.867  69.687  1.00  0.00    -0.273 A  
BRANCH  11  14
HETATM   14  C   UNL     1     -11.115   8.340  71.641  1.00  0.00    -0.326 A  
HETATM   15  C   UNL     1     -11.960   7.223  71.508  1.00  0.00    -0.349 A  
HETATM   16  C   UNL     1     -11.807   6.088  72.313  1.00  0.00    -0.305 A  
HETATM   17  C   UNL     1     -10.787   6.035  73.256  1.00  0.00    -0.277 A  
HETATM   18  C   UNL     1      -9.917   7.111  73.390  1.00  0.00    -0.320 A  
HETATM   19  C   UNL     1     -10.083   8.250  72.594  1.00  0.00    -0.365 A  
ENDBRANCH  11  14
ENDBRANCH   6   8
ENDBRANCH   5   6
ENDBRANCH   3   5
TORSDOF 4
ENDMDL
MODEL       64
REMARK 921   NORMALIZED FREE ENERGY PREDICTED BY IDOCK:   -5.19 KCAL/MOL
REMARK 922        TOTAL FREE ENERGY PREDICTED BY IDOCK:   -7.06 KCAL/MOL
REMARK 923 INTER-LIGAND FREE ENERGY PREDICTED BY IDOCK:   -6.45 KCAL/MOL
REMARK 924 INTRA-LIGAND FREE ENERGY PREDICTED BY IDOCK:   -0.61 KCAL/MOL
REMARK 927      BINDING AFFINITY PREDICTED BY RF-SCORE:    0.00 PKD
ROOT
HETATM    1  O   UNL     1     -10.603   5.771  74.214  1.00  0.00    -0.253 OA 
HETATM    2  C   UNL     1     -10.245   7.012  73.819  1.00  0.00    -0.363 C  
HETATM    3  C   UNL     1     -11.234   7.649  72.885  1.00  0.00    -0.426 C  
HETATM    4  O   UNL     1      -9.241   7.564  74.235  1.00  0.00    -0.216 OA 
ENDROOT
BRANCH   3   5
HETATM    5  C   UNL     1     -10.544   8.641  71.957  1.00  0.00    -0.421 C  
BRANCH   5   6
HETATM    6  C   UNL     1     -10.720   8.212  70.516  1.00  0.00    -0.225 C  
HETATM    7  O   UNL     1     -10.841   7.021  70.239  1.00  0.00    -0.236 OA 
BRANCH   6   8
HETATM    8  C   UNL     1     -10.827   9.240  69.438  1.00  0.00    -0.184 A  
HETATM    9  C   UNL     1     -11.469  10.463  69.625  1.00  0.00    -0.326 A  
HETATM   10  C   UNL     1     -11.625  11.349  68.552  1.00  0.00    -0.384 A  
HETATM   11  C   UNL     1     -11.147  11.050  67.264  1.00  0.00    -0.359 A  
HETATM   12  C   UNL     1     -10.304   8.939  68.175  1.00  0.00    -0.261 A  
HETATM   13  C   UNL     1     -10.453   9.836  67.110  1.00  0.00    -0.316 A  
BRANCH  11  14
HETATM   14  C   UNL     1     -11.412  11.956  66.120  1.00  0.00    -0.352 A  
HETATM   15  C   UNL     1     -10.788  11.775  64.872  1.00  0.00    -0.353 A  
HETATM   16  C   UNL     1     -10.964  12.687  63.825  1.00  0.00    -0.481 A  
HETATM   17  C   UNL     1     -11.789  13.793  63.995  1.00  0.00    -0.410 A  
HETATM   18  C   UNL     1     -12.444  13.982  65.207  1.00  0.00    -0.495 A  
HETATM   19  C   UNL     1     -12.253  13.076  66.256  1.00  0.00    -0.390 A  
ENDBRANCH  11  14
ENDBRANCH   6   8
ENDBRANCH   5   6
ENDBRANCH   3   5
TORSDOF 4
ENDMDL
MODEL       65
REMARK 921   NORMALIZED FREE ENERGY PREDICTED BY IDOCK:   -5.19 KCAL/MOL
REMARK 922        TOTAL FREE ENERGY PREDICTED BY IDOCK:   -7.06 KCAL/MOL
REMARK 923 INTER-LIGAND FREE ENERGY PREDICTED BY IDOCK:   -6.49 KCAL/MOL
REMARK 924 INTRA-LIGAND FREE ENERGY PREDICTED BY IDOCK:   -0.57 KCAL/MOL
REMARK 927      BINDING AFFINITY PREDICTED BY RF-SCORE:    0.00 PKD
ROOT
HETATM    1  O   UNL     1     -12.992  16.451  74.300  1.00  0.00    -0.670 OA 
HETATM    2  C   UNL     1     -12.680  16.101  73.033  1.00  0.00    -0.441 C  
HETATM    3  C   UNL     1     -13.578  15.035  72.471  1.00  0.00    -0.569 C  
HETATM    4  O   UNL     1     -11.789  16.649  72.406  1.00  0.00    -0.491 OA 
ENDROOT
BRANCH   3   5
HETATM    5  C   UNL     1     -12.846  14.205  71.423  1.00  0.00    -0.428 C  
BRANCH   5   6
HETATM    6  C   UNL     1     -13.083  12.732  71.671  1.00  0.00    -0.331 C  
HETATM    7  O   UNL     1     -13.987  12.371  72.422  1.00  0.00    -0.245 OA 
BRANCH   6   8
HETATM    8  C   UNL     1     -12.271  11.711  70.943  1.00  0.00    -0.401 A  
HETATM    9  C   UNL     1     -11.595  11.994  69.757  1.00  0.00    -0.348 A  
HETATM   10  C   UNL     1     -10.929  10.974  69.066  1.00  0.00    -0.284 A  
HETATM   11  C   UNL     1     -10.911   9.647  69.530  1.00  0.00    -0.253 A  
HETATM   12  C   UNL     1     -12.230  10.407  71.448  1.00  0.00    -0.461 A  
HETATM   13  C   UNL     1     -11.551   9.395  70.757  1.00  0.00    -0.364 A  
BRANCH  11  14
HETATM   14  C   UNL     1     -10.287   8.565  68.731  1.00  0.00    -0.233 A  
HETATM   15  C   UNL     1      -9.795   7.391  69.330  1.00  0.00    -0.168 A  
HETATM   16  C   UNL     1      -9.120   6.416  68.587  1.00  0.00    -0.127 A  
HETATM   17  C   UNL     1      -8.939   6.582  67.219  1.00  0.00    -0.114 A  
HETATM   18  C   UNL     1      -9.441   7.718  66.592  1.00  0.00    -0.263 A  
HETATM   19  C   UNL     1     -10.102   8.698  67.341  1.00  0.00    -0.292 A  
ENDBRANCH  11  14
ENDBRANCH   6   8
ENDBRANCH   5   6
ENDBRANCH   3   5
TORSDOF 4
ENDMDL
MODEL       66
REMARK 921   NORMALIZED FREE ENERGY PREDICTED BY IDOCK:   -5.18 KCAL/MOL
REMARK 922        TOTAL FREE ENERGY PREDICTED BY IDOCK:   -7.05 KCAL/MOL
REMARK 923 INTER-LIGAND FREE ENERGY PREDICTED BY IDOCK:   -6.33 KCAL/MOL
REMARK 924 INTRA-LIGAND FREE ENERGY PREDICTED BY IDOCK:   -0.72 KCAL/MOL
REMARK 927      BINDING AFFINITY PREDICTED BY RF-SCORE:    0.00 PKD
ROOT
HETATM    1  O   UNL     1      -8.640  17.294  65.860  1.00  0.00    -0.528 OA 
HETATM    2  C   UNL     1      -9.741  16.553  65.612  1.00  0.00    -0.089 C  
HETATM    3  C   UNL     1      -9.572  15.100  65.959  1.00  0.00    -0.365 C  
HETATM    4  O   UNL     1     -10.778  17.043  65.199  1.00  0.00    -0.672 OA 
ENDROOT
BRANCH   3   5
HETATM    5  C   UNL     1     -10.462  14.226  65.083  1.00  0.00    -0.432 C  
BRANCH   5   6
HETATM    6  C   UNL     1     -11.553  13.595  65.920  1.00  0.00    -0.328 C  
HETATM    7  O   UNL     1     -12.702  14.026  65.861  1.00  0.00    -0.495 OA 
BRANCH   6   8
HETATM    8  C   UNL     1     -11.253  12.397  66.760  1.00  0.00    -0.363 A  
HETATM    9  C   UNL     1     -10.406  11.374  66.336  1.00  0.00    -0.284 A  
HETATM   10  C   UNL     1     -10.236  10.228  67.123  1.00  0.00    -0.277 A  
HETATM   11  C   UNL     1     -10.896  10.064  68.353  1.00  0.00    -0.277 A  
HETATM   12  C   UNL     1     -11.886  12.276  68.001  1.00  0.00    -0.368 A  
HETATM   13  C   UNL     1     -11.701  11.132  68.789  1.00  0.00    -0.394 A  
BRANCH  11  14
HETATM   14  C   UNL     1     -10.782   8.800  69.121  1.00  0.00    -0.150 A  
HETATM   15  C   UNL     1     -10.633   7.556  68.480  1.00  0.00    -0.172 A  
HETATM   16  C   UNL     1     -10.624   6.357  69.202  1.00  0.00    -0.305 A  
HETATM   17  C   UNL     1     -10.742   6.375  70.587  1.00  0.00    -0.310 A  
HETATM   18  C   UNL     1     -10.860   7.592  71.251  1.00  0.00    -0.253 A  
HETATM   19  C   UNL     1     -10.884   8.787  70.524  1.00  0.00    -0.268 A  
ENDBRANCH  11  14
ENDBRANCH   6   8
ENDBRANCH   5   6
ENDBRANCH   3   5
TORSDOF 4
ENDMDL
MODEL       67
REMARK 921   NORMALIZED FREE ENERGY PREDICTED BY IDOCK:   -5.17 KCAL/MOL
REMARK 922        TOTAL FREE ENERGY PREDICTED BY IDOCK:   -7.04 KCAL/MOL
REMARK 923 INTER-LIGAND FREE ENERGY PREDICTED BY IDOCK:   -6.40 KCAL/MOL
REMARK 924 INTRA-LIGAND FREE ENERGY PREDICTED BY IDOCK:   -0.64 KCAL/MOL
REMARK 927      BINDING AFFINITY PREDICTED BY RF-SCORE:    0.00 PKD
ROOT
HETATM    1  O   UNL     1      -9.120   4.507  73.076  1.00  0.00    -0.119 OA 
HETATM    2  C   UNL     1     -10.280   5.194  73.141  1.00  0.00    -0.183 C  
HETATM    3  C   UNL     1     -10.231   6.517  72.429  1.00  0.00    -0.204 C  
HETATM    4  O   UNL     1     -11.275   4.744  73.683  1.00  0.00    -0.319 OA 
ENDROOT
BRANCH   3   5
HETATM    5  C   UNL     1     -11.196   7.512  73.064  1.00  0.00    -0.373 C  
BRANCH   5   6
HETATM    6  C   UNL     1     -12.215   7.968  72.043  1.00  0.00    -0.331 C  
HETATM    7  O   UNL     1     -13.234   7.308  71.853  1.00  0.00    -0.311 OA 
BRANCH   6   8
HETATM    8  C   UNL     1     -12.023   9.261  71.321  1.00  0.00    -0.414 A  
HETATM    9  C   UNL     1     -12.801  10.389  71.580  1.00  0.00    -0.579 A  
HETATM   10  C   UNL     1     -12.643  11.547  70.807  1.00  0.00    -0.390 A  
HETATM   11  C   UNL     1     -11.710  11.620  69.759  1.00  0.00    -0.425 A  
HETATM   12  C   UNL     1     -11.057   9.326  70.311  1.00  0.00    -0.289 A  
HETATM   13  C   UNL     1     -10.897  10.492  69.551  1.00  0.00    -0.298 A  
BRANCH  11  14
HETATM   14  C   UNL     1     -11.631  12.818  68.887  1.00  0.00    -0.362 A  
HETATM   15  C   UNL     1     -11.583  14.120  69.421  1.00  0.00    -0.353 A  
HETATM   16  C   UNL     1     -11.607  15.251  68.597  1.00  0.00    -0.370 A  
HETATM   17  C   UNL     1     -11.658  15.107  67.215  1.00  0.00    -0.231 A  
HETATM   18  C   UNL     1     -11.676  13.833  66.657  1.00  0.00    -0.421 A  
HETATM   19  C   UNL     1     -11.667  12.704  67.485  1.00  0.00    -0.429 A  
ENDBRANCH  11  14
ENDBRANCH   6   8
ENDBRANCH   5   6
ENDBRANCH   3   5
TORSDOF 4
ENDMDL
MODEL       68
REMARK 921   NORMALIZED FREE ENERGY PREDICTED BY IDOCK:   -5.15 KCAL/MOL
REMARK 922        TOTAL FREE ENERGY PREDICTED BY IDOCK:   -7.01 KCAL/MOL
REMARK 923 INTER-LIGAND FREE ENERGY PREDICTED BY IDOCK:   -6.48 KCAL/MOL
REMARK 924 INTRA-LIGAND FREE ENERGY PREDICTED BY IDOCK:   -0.53 KCAL/MOL
REMARK 927      BINDING AFFINITY PREDICTED BY RF-SCORE:    0.00 PKD
ROOT
HETATM    1  O   UNL     1     -10.025   7.548  68.754  1.00  0.00    -0.163 OA 
HETATM    2  C   UNL     1     -10.455   8.742  69.215  1.00  0.00    -0.219 C  
HETATM    3  C   UNL     1     -10.750   9.731  68.122  1.00  0.00    -0.280 C  
HETATM    4  O   UNL     1     -10.631   8.958  70.401  1.00  0.00    -0.201 OA 
ENDROOT
BRANCH   3   5
HETATM    5  C   UNL     1     -10.547  11.160  68.613  1.00  0.00    -0.222 C  
BRANCH   5   6
HETATM    6  C   UNL     1     -11.267  12.129  67.701  1.00  0.00    -0.286 C  
HETATM    7  O   UNL     1     -12.147  11.724  66.944  1.00  0.00    -0.566 OA 
BRANCH   6   8
HETATM    8  C   UNL     1     -10.965  13.589  67.773  1.00  0.00    -0.284 A  
HETATM    9  C   UNL     1     -11.723  14.477  68.535  1.00  0.00    -0.353 A  
HETATM   10  C   UNL     1     -11.455  15.851  68.491  1.00  0.00    -0.377 A  
HETATM   11  C   UNL     1     -10.427  16.384  67.694  1.00  0.00    -0.302 A  
HETATM   12  C   UNL     1      -9.908  14.092  67.007  1.00  0.00    -0.260 A  
HETATM   13  C   UNL     1      -9.639  15.466  66.977  1.00  0.00    -0.227 A  
BRANCH  11  14
HETATM   14  C   UNL     1     -10.227  17.850  67.582  1.00  0.00    -0.369 A  
HETATM   15  C   UNL     1     -10.493  18.545  66.388  1.00  0.00    -0.443 A  
HETATM   16  C   UNL     1     -10.211  19.909  66.256  1.00  0.00    -0.614 A  
HETATM   17  C   UNL     1      -9.674  20.617  67.325  1.00  0.00    -0.562 A  
HETATM   18  C   UNL     1      -9.428  19.964  68.528  1.00  0.00    -0.335 A  
HETATM   19  C   UNL     1      -9.698  18.597  68.652  1.00  0.00    -0.418 A  
ENDBRANCH  11  14
ENDBRANCH   6   8
ENDBRANCH   5   6
ENDBRANCH   3   5
TORSDOF 4
ENDMDL
MODEL       69
REMARK 921   NORMALIZED FREE ENERGY PREDICTED BY IDOCK:   -5.15 KCAL/MOL
REMARK 922        TOTAL FREE ENERGY PREDICTED BY IDOCK:   -7.01 KCAL/MOL
REMARK 923 INTER-LIGAND FREE ENERGY PREDICTED BY IDOCK:   -6.28 KCAL/MOL
REMARK 924 INTRA-LIGAND FREE ENERGY PREDICTED BY IDOCK:   -0.73 KCAL/MOL
REMARK 927      BINDING AFFINITY PREDICTED BY RF-SCORE:    0.00 PKD
ROOT
HETATM    1  O   UNL     1      -5.256  17.663  67.594  1.00  0.00    -0.126 OA 
HETATM    2  C   UNL     1      -6.491  17.600  68.139  1.00  0.00    -0.177 C  
HETATM    3  C   UNL     1      -7.341  18.800  67.830  1.00  0.00    -0.259 C  
HETATM    4  O   UNL     1      -6.876  16.631  68.770  1.00  0.00    -0.159 OA 
ENDROOT
BRANCH   3   5
HETATM    5  C   UNL     1      -8.360  19.043  68.937  1.00  0.00    -0.298 C  
BRANCH   5   6
HETATM    6  C   UNL     1      -9.759  19.045  68.361  1.00  0.00    -0.383 C  
HETATM    7  O   UNL     1     -10.462  20.050  68.454  1.00  0.00    -0.411 OA 
BRANCH   6   8
HETATM    8  C   UNL     1     -10.261  17.856  67.610  1.00  0.00    -0.369 A  
HETATM    9  C   UNL     1     -10.699  16.695  68.246  1.00  0.00    -0.351 A  
HETATM   10  C   UNL     1     -11.068  15.575  67.491  1.00  0.00    -0.305 A  
HETATM   11  C   UNL     1     -11.016  15.574  66.086  1.00  0.00    -0.247 A  
HETATM   12  C   UNL     1     -10.243  17.893  66.212  1.00  0.00    -0.363 A  
HETATM   13  C   UNL     1     -10.626  16.773  65.463  1.00  0.00    -0.243 A  
BRANCH  11  14
HETATM   14  C   UNL     1     -11.313  14.345  65.310  1.00  0.00    -0.346 A  
HETATM   15  C   UNL     1     -10.354  13.751  64.468  1.00  0.00    -0.311 A  
HETATM   16  C   UNL     1     -10.667  12.650  63.663  1.00  0.00    -0.410 A  
HETATM   17  C   UNL     1     -11.944  12.101  63.698  1.00  0.00    -0.628 A  
HETATM   18  C   UNL     1     -12.905  12.647  64.542  1.00  0.00    -0.356 A  
HETATM   19  C   UNL     1     -12.592  13.758  65.334  1.00  0.00    -0.534 A  
ENDBRANCH  11  14
ENDBRANCH   6   8
ENDBRANCH   5   6
ENDBRANCH   3   5
TORSDOF 4
ENDMDL
MODEL       70
REMARK 921   NORMALIZED FREE ENERGY PREDICTED BY IDOCK:   -5.14 KCAL/MOL
REMARK 922        TOTAL FREE ENERGY PREDICTED BY IDOCK:   -7.00 KCAL/MOL
REMARK 923 INTER-LIGAND FREE ENERGY PREDICTED BY IDOCK:   -6.29 KCAL/MOL
REMARK 924 INTRA-LIGAND FREE ENERGY PREDICTED BY IDOCK:   -0.71 KCAL/MOL
REMARK 927      BINDING AFFINITY PREDICTED BY RF-SCORE:    0.00 PKD
ROOT
HETATM    1  O   UNL     1     -10.300  19.372  67.305  1.00  0.00    -0.381 OA 
HETATM    2  C   UNL     1     -10.517  18.476  66.317  1.00  0.00    -0.406 C  
HETATM    3  C   UNL     1     -10.292  17.053  66.744  1.00  0.00    -0.302 C  
HETATM    4  O   UNL     1     -10.909  18.807  65.211  1.00  0.00    -0.576 OA 
ENDROOT
BRANCH   3   5
HETATM    5  C   UNL     1      -9.863  16.192  65.562  1.00  0.00    -0.190 C  
BRANCH   5   6
HETATM    6  C   UNL     1     -10.969  15.228  65.195  1.00  0.00    -0.416 C  
HETATM    7  O   UNL     1     -11.820  15.552  64.369  1.00  0.00    -0.385 OA 
BRANCH   6   8
HETATM    8  C   UNL     1     -10.985  13.852  65.775  1.00  0.00    -0.285 A  
HETATM    9  C   UNL     1     -11.570  13.562  67.007  1.00  0.00    -0.394 A  
HETATM   10  C   UNL     1     -11.471  12.274  67.548  1.00  0.00    -0.414 A  
HETATM   11  C   UNL     1     -10.794  11.236  66.883  1.00  0.00    -0.333 A  
HETATM   12  C   UNL     1     -10.344  12.824  65.074  1.00  0.00    -0.323 A  
HETATM   13  C   UNL     1     -10.261  11.535  65.616  1.00  0.00    -0.292 A  
BRANCH  11  14
HETATM   14  C   UNL     1     -10.614   9.909  67.519  1.00  0.00    -0.333 A  
HETATM   15  C   UNL     1     -10.319   8.759  66.764  1.00  0.00    -0.328 A  
HETATM   16  C   UNL     1     -10.246   7.492  67.354  1.00  0.00    -0.318 A  
HETATM   17  C   UNL     1     -10.445   7.348  68.722  1.00  0.00    -0.215 A  
HETATM   18  C   UNL     1     -10.708   8.470  69.501  1.00  0.00    -0.181 A  
HETATM   19  C   UNL     1     -10.795   9.733  68.904  1.00  0.00    -0.220 A  
ENDBRANCH  11  14
ENDBRANCH   6   8
ENDBRANCH   5   6
ENDBRANCH   3   5
TORSDOF 4
ENDMDL
MODEL       71
REMARK 921   NORMALIZED FREE ENERGY PREDICTED BY IDOCK:   -5.06 KCAL/MOL
REMARK 922        TOTAL FREE ENERGY PREDICTED BY IDOCK:   -6.91 KCAL/MOL
REMARK 923 INTER-LIGAND FREE ENERGY PREDICTED BY IDOCK:   -6.32 KCAL/MOL
REMARK 924 INTRA-LIGAND FREE ENERGY PREDICTED BY IDOCK:   -0.59 KCAL/MOL
REMARK 927      BINDING AFFINITY PREDICTED BY RF-SCORE:    0.00 PKD
ROOT
HETATM    1  O   UNL     1     -10.403  19.869  69.049  1.00  0.00    -0.390 OA 
HETATM    2  C   UNL     1      -9.475  19.318  68.237  1.00  0.00    -0.359 C  
HETATM    3  C   UNL     1      -9.926  19.204  66.808  1.00  0.00    -0.432 C  
HETATM    4  O   UNL     1      -8.367  19.000  68.634  1.00  0.00    -0.350 OA 
ENDROOT
BRANCH   3   5
HETATM    5  C   UNL     1      -9.241  18.033  66.113  1.00  0.00    -0.132 C  
BRANCH   5   6
HETATM    6  C   UNL     1     -10.276  17.124  65.487  1.00  0.00    -0.051 C  
HETATM    7  O   UNL     1     -11.045  17.563  64.635  1.00  0.00    -0.978 OA 
BRANCH   6   8
HETATM    8  C   UNL     1     -10.314  15.675  65.845  1.00  0.00    -0.368 A  
HETATM    9  C   UNL     1      -9.289  15.049  66.554  1.00  0.00    -0.309 A  
HETATM   10  C   UNL     1      -9.330  13.667  66.779  1.00  0.00    -0.269 A  
HETATM   11  C   UNL     1     -10.388  12.867  66.311  1.00  0.00    -0.278 A  
HETATM   12  C   UNL     1     -11.398  14.907  65.409  1.00  0.00    -0.346 A  
HETATM   13  C   UNL     1     -11.438  13.527  65.648  1.00  0.00    -0.330 A  
BRANCH  11  14
HETATM   14  C   UNL     1     -10.361  11.393  66.471  1.00  0.00    -0.277 A  
HETATM   15  C   UNL     1     -11.076  10.746  67.496  1.00  0.00    -0.374 A  
HETATM   16  C   UNL     1     -10.971   9.366  67.704  1.00  0.00    -0.106 A  
HETATM   17  C   UNL     1     -10.163   8.595  66.876  1.00  0.00    -0.367 A  
HETATM   18  C   UNL     1      -9.468   9.201  65.836  1.00  0.00    -0.326 A  
HETATM   19  C   UNL     1      -9.564  10.583  65.640  1.00  0.00    -0.278 A  
ENDBRANCH  11  14
ENDBRANCH   6   8
ENDBRANCH   5   6
ENDBRANCH   3   5
TORSDOF 4
ENDMDL
MODEL       72
REMARK 921   NORMALIZED FREE ENERGY PREDICTED BY IDOCK:   -4.98 KCAL/MOL
REMARK 922        TOTAL FREE ENERGY PREDICTED BY IDOCK:   -6.81 KCAL/MOL
REMARK 923 INTER-LIGAND FREE ENERGY PREDICTED BY IDOCK:   -6.19 KCAL/MOL
REMARK 924 INTRA-LIGAND FREE ENERGY PREDICTED BY IDOCK:   -0.62 KCAL/MOL
REMARK 927      BINDING AFFINITY PREDICTED BY RF-SCORE:    0.00 PKD
ROOT
HETATM    1  O   UNL     1      -8.209  15.809  69.558  1.00  0.00    -0.239 OA 
HETATM    2  C   UNL     1      -9.399  15.666  68.936  1.00  0.00    -0.223 C  
HETATM    3  C   UNL     1      -9.473  14.443  68.065  1.00  0.00    -0.209 C  
HETATM    4  O   UNL     1     -10.327  16.435  69.119  1.00  0.00    -0.251 OA 
ENDROOT
BRANCH   3   5
HETATM    5  C   UNL     1     -10.447  14.655  66.912  1.00  0.00    -0.270 C  
BRANCH   5   6
HETATM    6  C   UNL     1     -11.730  13.898  67.171  1.00  0.00    -0.388 C  
HETATM    7  O   UNL     1     -12.743  14.162  66.526  1.00  0.00    -0.299 OA 
BRANCH   6   8
HETATM    8  C   UNL     1     -11.750  12.773  68.153  1.00  0.00    -0.392 A  
HETATM    9  C   UNL     1     -12.182  12.931  69.469  1.00  0.00    -0.177 A  
HETATM   10  C   UNL     1     -12.088  11.867  70.375  1.00  0.00    -0.421 A  
HETATM   11  C   UNL     1     -11.567  10.615  70.002  1.00  0.00    -0.406 A  
HETATM   12  C   UNL     1     -11.268  11.524  67.748  1.00  0.00    -0.343 A  
HETATM   13  C   UNL     1     -11.189  10.460  68.656  1.00  0.00    -0.305 A  
BRANCH  11  14
HETATM   14  C   UNL     1     -11.382   9.535  71.001  1.00  0.00    -0.423 A  
HETATM   15  C   UNL     1     -12.471   8.968  71.689  1.00  0.00    -0.418 A  
HETATM   16  C   UNL     1     -12.285   8.019  72.701  1.00  0.00    -0.228 A  
HETATM   17  C   UNL     1     -11.003   7.597  73.034  1.00  0.00    -0.457 A  
HETATM   18  C   UNL     1      -9.909   8.116  72.351  1.00  0.00    -0.346 A  
HETATM   19  C   UNL     1     -10.098   9.076  71.350  1.00  0.00    -0.399 A  
ENDBRANCH  11  14
ENDBRANCH   6   8
ENDBRANCH   5   6
ENDBRANCH   3   5
TORSDOF 4
ENDMDL
MODEL       73
REMARK 921   NORMALIZED FREE ENERGY PREDICTED BY IDOCK:   -4.96 KCAL/MOL
REMARK 922        TOTAL FREE ENERGY PREDICTED BY IDOCK:   -6.78 KCAL/MOL
REMARK 923 INTER-LIGAND FREE ENERGY PREDICTED BY IDOCK:   -6.21 KCAL/MOL
REMARK 924 INTRA-LIGAND FREE ENERGY PREDICTED BY IDOCK:   -0.56 KCAL/MOL
REMARK 927      BINDING AFFINITY PREDICTED BY RF-SCORE:    0.00 PKD
ROOT
HETATM    1  O   UNL     1      -7.082   6.191  65.603  1.00  0.00    -0.069 OA 
HETATM    2  C   UNL     1      -8.205   6.401  66.324  1.00  0.00    -0.118 C  
HETATM    3  C   UNL     1      -9.014   7.572  65.842  1.00  0.00    -0.128 C  
HETATM    4  O   UNL     1      -8.539   5.667  67.239  1.00  0.00    -0.111 OA 
ENDROOT
BRANCH   3   5
HETATM    5  C   UNL     1      -9.807   8.193  66.986  1.00  0.00    -0.299 C  
BRANCH   5   6
HETATM    6  C   UNL     1     -10.260   9.585  66.605  1.00  0.00    -0.240 C  
HETATM    7  O   UNL     1     -10.321   9.911  65.422  1.00  0.00    -0.207 OA 
BRANCH   6   8
HETATM    8  C   UNL     1     -10.710  10.540  67.662  1.00  0.00    -0.324 A  
HETATM    9  C   UNL     1     -11.016  10.135  68.961  1.00  0.00    -0.265 A  
HETATM   10  C   UNL     1     -11.526  11.056  69.884  1.00  0.00    -0.400 A  
HETATM   11  C   UNL     1     -11.744  12.404  69.550  1.00  0.00    -0.388 A  
HETATM   12  C   UNL     1     -10.877  11.886  67.319  1.00  0.00    -0.294 A  
HETATM   13  C   UNL     1     -11.376  12.804  68.252  1.00  0.00    -0.335 A  
BRANCH  11  14
HETATM   14  C   UNL     1     -12.379  13.338  70.511  1.00  0.00    -0.389 A  
HETATM   15  C   UNL     1     -13.137  12.875  71.602  1.00  0.00    -0.430 A  
HETATM   16  C   UNL     1     -13.816  13.757  72.450  1.00  0.00    -0.681 A  
HETATM   17  C   UNL     1     -13.736  15.129  72.238  1.00  0.00    -0.596 A  
HETATM   18  C   UNL     1     -12.970  15.618  71.185  1.00  0.00    -0.539 A  
HETATM   19  C   UNL     1     -12.305  14.732  70.331  1.00  0.00    -0.402 A  
ENDBRANCH  11  14
ENDBRANCH   6   8
ENDBRANCH   5   6
ENDBRANCH   3   5
TORSDOF 4
ENDMDL
MODEL       74
REMARK 921   NORMALIZED FREE ENERGY PREDICTED BY IDOCK:   -4.93 KCAL/MOL
REMARK 922        TOTAL FREE ENERGY PREDICTED BY IDOCK:   -6.75 KCAL/MOL
REMARK 923 INTER-LIGAND FREE ENERGY PREDICTED BY IDOCK:   -6.01 KCAL/MOL
REMARK 924 INTRA-LIGAND FREE ENERGY PREDICTED BY IDOCK:   -0.73 KCAL/MOL
REMARK 927      BINDING AFFINITY PREDICTED BY RF-SCORE:    0.00 PKD
ROOT
HETATM    1  O   UNL     1      -8.641  17.313  65.896  1.00  0.00    -0.528 OA 
HETATM    2  C   UNL     1      -9.760  16.653  65.527  1.00  0.00     0.104 C  
HETATM    3  C   UNL     1      -9.698  15.176  65.797  1.00  0.00    -0.379 C  
HETATM    4  O   UNL     1     -10.735  17.227  65.072  1.00  0.00    -0.708 OA 
ENDROOT
BRANCH   3   5
HETATM    5  C   UNL     1     -10.568  14.406  64.810  1.00  0.00    -0.417 C  
BRANCH   5   6
HETATM    6  C   UNL     1     -11.675  13.686  65.547  1.00  0.00    -0.337 C  
HETATM    7  O   UNL     1     -12.811  14.155  65.564  1.00  0.00    -0.592 OA 
BRANCH   6   8
HETATM    8  C   UNL     1     -11.409  12.363  66.188  1.00  0.00    -0.398 A  
HETATM    9  C   UNL     1     -11.748  12.088  67.513  1.00  0.00    -0.351 A  
HETATM   10  C   UNL     1     -11.388  10.865  68.092  1.00  0.00    -0.383 A  
HETATM   11  C   UNL     1     -10.687   9.879  67.376  1.00  0.00    -0.323 A  
HETATM   12  C   UNL     1     -10.750  11.380  65.443  1.00  0.00    -0.313 A  
HETATM   13  C   UNL     1     -10.405  10.154  66.026  1.00  0.00    -0.234 A  
BRANCH  11  14
HETATM   14  C   UNL     1     -10.227   8.633  68.038  1.00  0.00    -0.261 A  
HETATM   15  C   UNL     1      -9.717   8.637  69.350  1.00  0.00    -0.176 A  
HETATM   16  C   UNL     1      -9.194   7.479  69.935  1.00  0.00    -0.147 A  
HETATM   17  C   UNL     1      -9.188   6.281  69.230  1.00  0.00    -0.133 A  
HETATM   18  C   UNL     1      -9.713   6.240  67.942  1.00  0.00    -0.123 A  
HETATM   19  C   UNL     1     -10.222   7.403  67.354  1.00  0.00    -0.315 A  
ENDBRANCH  11  14
ENDBRANCH   6   8
ENDBRANCH   5   6
ENDBRANCH   3   5
TORSDOF 4
ENDMDL
MODEL       75
REMARK 921   NORMALIZED FREE ENERGY PREDICTED BY IDOCK:   -4.91 KCAL/MOL
REMARK 922        TOTAL FREE ENERGY PREDICTED BY IDOCK:   -6.72 KCAL/MOL
REMARK 923 INTER-LIGAND FREE ENERGY PREDICTED BY IDOCK:   -6.10 KCAL/MOL
REMARK 924 INTRA-LIGAND FREE ENERGY PREDICTED BY IDOCK:   -0.62 KCAL/MOL
REMARK 927      BINDING AFFINITY PREDICTED BY RF-SCORE:    0.00 PKD
ROOT
HETATM    1  O   UNL     1     -10.797   7.400  73.561  1.00  0.00    -0.379 OA 
HETATM    2  C   UNL     1     -11.416   7.925  72.482  1.00  0.00    -0.398 C  
HETATM    3  C   UNL     1     -10.602   8.976  71.780  1.00  0.00    -0.426 C  
HETATM    4  O   UNL     1     -12.504   7.532  72.099  1.00  0.00    -0.274 OA 
ENDROOT
BRANCH   3   5
HETATM    5  C   UNL     1     -11.505   9.984  71.079  1.00  0.00    -0.463 C  
BRANCH   5   6
HETATM    6  C   UNL     1     -11.037  10.196  69.656  1.00  0.00    -0.263 C  
HETATM    7  O   UNL     1     -10.754   9.231  68.950  1.00  0.00    -0.215 OA 
BRANCH   6   8
HETATM    8  C   UNL     1     -10.994  11.574  69.080  1.00  0.00    -0.276 A  
HETATM    9  C   UNL     1     -10.019  11.977  68.169  1.00  0.00    -0.203 A  
HETATM   10  C   UNL     1      -9.968  13.308  67.735  1.00  0.00    -0.223 A  
HETATM   11  C   UNL     1     -10.882  14.275  68.189  1.00  0.00    -0.253 A  
HETATM   12  C   UNL     1     -11.941  12.508  69.512  1.00  0.00    -0.329 A  
HETATM   13  C   UNL     1     -11.891  13.834  69.064  1.00  0.00    -0.397 A  
BRANCH  11  14
HETATM   14  C   UNL     1     -10.747  15.699  67.797  1.00  0.00    -0.297 A  
HETATM   15  C   UNL     1     -10.636  16.089  66.449  1.00  0.00    -0.284 A  
HETATM   16  C   UNL     1     -10.411  17.422  66.088  1.00  0.00    -0.329 A  
HETATM   17  C   UNL     1     -10.313  18.403  67.067  1.00  0.00    -0.419 A  
HETATM   18  C   UNL     1     -10.449  18.054  68.407  1.00  0.00    -0.326 A  
HETATM   19  C   UNL     1     -10.660  16.717  68.765  1.00  0.00    -0.348 A  
ENDBRANCH  11  14
ENDBRANCH   6   8
ENDBRANCH   5   6
ENDBRANCH   3   5
TORSDOF 4
ENDMDL
MODEL       76
REMARK 921   NORMALIZED FREE ENERGY PREDICTED BY IDOCK:   -4.82 KCAL/MOL
REMARK 922        TOTAL FREE ENERGY PREDICTED BY IDOCK:   -6.60 KCAL/MOL
REMARK 923 INTER-LIGAND FREE ENERGY PREDICTED BY IDOCK:   -6.03 KCAL/MOL
REMARK 924 INTRA-LIGAND FREE ENERGY PREDICTED BY IDOCK:   -0.57 KCAL/MOL
REMARK 927      BINDING AFFINITY PREDICTED BY RF-SCORE:    0.00 PKD
ROOT
HETATM    1  O   UNL     1      -9.847   4.184  67.035  1.00  0.00    -0.212 OA 
HETATM    2  C   UNL     1     -10.415   5.337  67.451  1.00  0.00    -0.148 C  
HETATM    3  C   UNL     1      -9.986   5.749  68.831  1.00  0.00    -0.211 C  
HETATM    4  O   UNL     1     -11.157   5.993  66.739  1.00  0.00    -0.291 OA 
ENDROOT
BRANCH   3   5
HETATM    5  C   UNL     1     -11.074   6.567  69.517  1.00  0.00    -0.425 C  
BRANCH   5   6
HETATM    6  C   UNL     1     -10.531   7.921  69.915  1.00  0.00    -0.229 C  
HETATM    7  O   UNL     1      -9.902   8.049  70.963  1.00  0.00    -0.172 OA 
BRANCH   6   8
HETATM    8  C   UNL     1     -10.688   9.090  68.998  1.00  0.00    -0.163 A  
HETATM    9  C   UNL     1     -11.351  10.257  69.374  1.00  0.00    -0.279 A  
HETATM   10  C   UNL     1     -11.554  11.283  68.443  1.00  0.00    -0.378 A  
HETATM   11  C   UNL     1     -11.103  11.184  67.115  1.00  0.00    -0.352 A  
HETATM   12  C   UNL     1     -10.193   8.986  67.694  1.00  0.00    -0.300 A  
HETATM   13  C   UNL     1     -10.388  10.023  66.772  1.00  0.00    -0.283 A  
BRANCH  11  14
HETATM   14  C   UNL     1     -11.418  12.238  66.119  1.00  0.00    -0.429 A  
HETATM   15  C   UNL     1     -11.914  13.497  66.505  1.00  0.00    -0.460 A  
HETATM   16  C   UNL     1     -12.302  14.453  65.559  1.00  0.00    -0.352 A  
HETATM   17  C   UNL     1     -12.183  14.180  64.202  1.00  0.00    -0.423 A  
HETATM   18  C   UNL     1     -11.668  12.955  63.789  1.00  0.00    -0.557 A  
HETATM   19  C   UNL     1     -11.295  11.996  64.738  1.00  0.00    -0.369 A  
ENDBRANCH  11  14
ENDBRANCH   6   8
ENDBRANCH   5   6
ENDBRANCH   3   5
TORSDOF 4
ENDMDL
MODEL       77
REMARK 921   NORMALIZED FREE ENERGY PREDICTED BY IDOCK:   -4.80 KCAL/MOL
REMARK 922        TOTAL FREE ENERGY PREDICTED BY IDOCK:   -6.59 KCAL/MOL
REMARK 923 INTER-LIGAND FREE ENERGY PREDICTED BY IDOCK:   -5.95 KCAL/MOL
REMARK 924 INTRA-LIGAND FREE ENERGY PREDICTED BY IDOCK:   -0.64 KCAL/MOL
REMARK 927      BINDING AFFINITY PREDICTED BY RF-SCORE:    0.00 PKD
ROOT
HETATM    1  O   UNL     1      -7.701   8.209  62.827  1.00  0.00    -0.118 OA 
HETATM    2  C   UNL     1      -7.975   9.320  63.544  1.00  0.00    -0.144 C  
HETATM    3  C   UNL     1      -8.701   9.037  64.829  1.00  0.00    -0.187 C  
HETATM    4  O   UNL     1      -7.611  10.429  63.191  1.00  0.00    -0.147 OA 
ENDROOT
BRANCH   3   5
HETATM    5  C   UNL     1      -9.569  10.222  65.234  1.00  0.00    -0.324 C  
BRANCH   5   6
HETATM    6  C   UNL     1      -9.018  10.863  66.489  1.00  0.00    -0.168 C  
HETATM    7  O   UNL     1      -7.811  10.826  66.720  1.00  0.00    -0.123 OA 
BRANCH   6   8
HETATM    8  C   UNL     1      -9.926  11.611  67.408  1.00  0.00    -0.200 A  
HETATM    9  C   UNL     1      -9.726  12.951  67.737  1.00  0.00    -0.214 A  
HETATM   10  C   UNL     1     -10.553  13.576  68.679  1.00  0.00    -0.259 A  
HETATM   11  C   UNL     1     -11.601  12.893  69.320  1.00  0.00    -0.368 A  
HETATM   12  C   UNL     1     -10.991  10.924  68.000  1.00  0.00    -0.317 A  
HETATM   13  C   UNL     1     -11.821  11.559  68.933  1.00  0.00    -0.406 A  
BRANCH  11  14
HETATM   14  C   UNL     1     -12.398  13.544  70.388  1.00  0.00    -0.397 A  
HETATM   15  C   UNL     1     -12.562  14.941  70.443  1.00  0.00    -0.394 A  
HETATM   16  C   UNL     1     -13.231  15.559  71.506  1.00  0.00    -0.589 A  
HETATM   17  C   UNL     1     -13.773  14.791  72.530  1.00  0.00    -0.572 A  
HETATM   18  C   UNL     1     -13.654  13.406  72.488  1.00  0.00    -0.659 A  
HETATM   19  C   UNL     1     -12.971  12.793  71.432  1.00  0.00    -0.359 A  
ENDBRANCH  11  14
ENDBRANCH   6   8
ENDBRANCH   5   6
ENDBRANCH   3   5
TORSDOF 4
ENDMDL
MODEL       78
REMARK 921   NORMALIZED FREE ENERGY PREDICTED BY IDOCK:   -4.76 KCAL/MOL
REMARK 922        TOTAL FREE ENERGY PREDICTED BY IDOCK:   -6.53 KCAL/MOL
REMARK 923 INTER-LIGAND FREE ENERGY PREDICTED BY IDOCK:   -5.83 KCAL/MOL
REMARK 924 INTRA-LIGAND FREE ENERGY PREDICTED BY IDOCK:   -0.70 KCAL/MOL
REMARK 927      BINDING AFFINITY PREDICTED BY RF-SCORE:    0.00 PKD
ROOT
HETATM    1  O   UNL     1     -11.307  16.314  70.190  1.00  0.00    -0.349 OA 
HETATM    2  C   UNL     1     -11.606  15.280  69.373  1.00  0.00    -0.330 C  
HETATM    3  C   UNL     1     -10.840  15.303  68.080  1.00  0.00    -0.288 C  
HETATM    4  O   UNL     1     -12.382  14.397  69.695  1.00  0.00    -0.317 OA 
ENDROOT
BRANCH   3   5
HETATM    5  C   UNL     1     -11.632  14.624  66.968  1.00  0.00    -0.385 C  
BRANCH   5   6
HETATM    6  C   UNL     1     -10.754  13.629  66.241  1.00  0.00    -0.285 C  
HETATM    7  O   UNL     1      -9.960  14.017  65.387  1.00  0.00    -0.316 OA 
BRANCH   6   8
HETATM    8  C   UNL     1     -10.794  12.183  66.615  1.00  0.00    -0.307 A  
HETATM    9  C   UNL     1     -11.469  11.717  67.742  1.00  0.00    -0.373 A  
HETATM   10  C   UNL     1     -11.394  10.364  68.099  1.00  0.00    -0.284 A  
HETATM   11  C   UNL     1     -10.651   9.436  67.348  1.00  0.00    -0.326 A  
HETATM   12  C   UNL     1     -10.085  11.270  65.828  1.00  0.00    -0.294 A  
HETATM   13  C   UNL     1     -10.024   9.917  66.184  1.00  0.00    -0.331 A  
BRANCH  11  14
HETATM   14  C   UNL     1     -10.500   8.032  67.800  1.00  0.00    -0.280 A  
HETATM   15  C   UNL     1     -10.635   6.949  66.911  1.00  0.00    -0.372 A  
HETATM   16  C   UNL     1     -10.590   5.624  67.358  1.00  0.00    -0.312 A  
HETATM   17  C   UNL     1     -10.387   5.348  68.706  1.00  0.00    -0.240 A  
HETATM   18  C   UNL     1     -10.220   6.397  69.604  1.00  0.00    -0.229 A  
HETATM   19  C   UNL     1     -10.280   7.721  69.155  1.00  0.00    -0.210 A  
ENDBRANCH  11  14
ENDBRANCH   6   8
ENDBRANCH   5   6
ENDBRANCH   3   5
TORSDOF 4
ENDMDL
MODEL       79
REMARK 921   NORMALIZED FREE ENERGY PREDICTED BY IDOCK:   -4.74 KCAL/MOL
REMARK 922        TOTAL FREE ENERGY PREDICTED BY IDOCK:   -6.51 KCAL/MOL
REMARK 923 INTER-LIGAND FREE ENERGY PREDICTED BY IDOCK:   -6.25 KCAL/MOL
REMARK 924 INTRA-LIGAND FREE ENERGY PREDICTED BY IDOCK:   -0.25 KCAL/MOL
REMARK 927      BINDING AFFINITY PREDICTED BY RF-SCORE:    0.00 PKD
ROOT
HETATM    1  O   UNL     1     -10.370  12.019  63.182  1.00  0.00    -0.404 OA 
HETATM    2  C   UNL     1     -11.359  12.668  63.834  1.00  0.00    -0.441 C  
HETATM    3  C   UNL     1     -11.007  13.024  65.251  1.00  0.00    -0.307 C  
HETATM    4  O   UNL     1     -12.407  12.973  63.290  1.00  0.00    -0.682 OA 
ENDROOT
BRANCH   3   5
HETATM    5  C   UNL     1     -12.256  13.089  66.121  1.00  0.00    -0.428 C  
BRANCH   5   6
HETATM    6  C   UNL     1     -11.885  12.897  67.575  1.00  0.00    -0.351 C  
HETATM    7  O   UNL     1     -12.113  13.786  68.392  1.00  0.00    -0.368 OA 
BRANCH   6   8
HETATM    8  C   UNL     1     -11.315  11.595  68.035  1.00  0.00    -0.366 A  
HETATM    9  C   UNL     1     -10.953  10.578  67.153  1.00  0.00    -0.294 A  
HETATM   10  C   UNL     1     -10.514   9.343  67.643  1.00  0.00    -0.328 A  
HETATM   11  C   UNL     1     -10.417   9.080  69.021  1.00  0.00    -0.235 A  
HETATM   12  C   UNL     1     -11.185  11.372  69.410  1.00  0.00    -0.333 A  
HETATM   13  C   UNL     1     -10.733  10.137  69.893  1.00  0.00    -0.340 A  
BRANCH  11  14
HETATM   14  C   UNL     1     -10.048   7.732  69.519  1.00  0.00    -0.194 A  
HETATM   15  C   UNL     1      -8.763   7.455  70.021  1.00  0.00    -0.140 A  
HETATM   16  C   UNL     1      -8.388   6.160  70.399  1.00  0.00    -0.125 A  
HETATM   17  C   UNL     1      -9.298   5.114  70.303  1.00  0.00    -0.209 A  
HETATM   18  C   UNL     1     -10.585   5.363  69.839  1.00  0.00    -0.351 A  
HETATM   19  C   UNL     1     -10.952   6.656  69.449  1.00  0.00    -0.361 A  
ENDBRANCH  11  14
ENDBRANCH   6   8
ENDBRANCH   5   6
ENDBRANCH   3   5
TORSDOF 4
ENDMDL
MODEL       80
REMARK 921   NORMALIZED FREE ENERGY PREDICTED BY IDOCK:   -4.68 KCAL/MOL
REMARK 922        TOTAL FREE ENERGY PREDICTED BY IDOCK:   -6.44 KCAL/MOL
REMARK 923 INTER-LIGAND FREE ENERGY PREDICTED BY IDOCK:   -5.70 KCAL/MOL
REMARK 924 INTRA-LIGAND FREE ENERGY PREDICTED BY IDOCK:   -0.74 KCAL/MOL
REMARK 927      BINDING AFFINITY PREDICTED BY RF-SCORE:    0.00 PKD
ROOT
HETATM    1  O   UNL     1     -13.540   9.327  71.304  1.00  0.00    -0.341 OA 
HETATM    2  C   UNL     1     -12.853   8.183  71.513  1.00  0.00    -0.301 C  
HETATM    3  C   UNL     1     -11.473   8.409  72.065  1.00  0.00    -0.418 C  
HETATM    4  O   UNL     1     -13.342   7.084  71.318  1.00  0.00    -0.346 OA 
ENDROOT
BRANCH   3   5
HETATM    5  C   UNL     1     -10.531   7.285  71.649  1.00  0.00    -0.218 C  
BRANCH   5   6
HETATM    6  C   UNL     1      -9.436   7.830  70.759  1.00  0.00    -0.161 C  
HETATM    7  O   UNL     1      -8.260   7.571  71.000  1.00  0.00    -0.106 OA 
BRANCH   6   8
HETATM    8  C   UNL     1      -9.787   8.619  69.539  1.00  0.00    -0.187 A  
HETATM    9  C   UNL     1     -10.336   8.034  68.398  1.00  0.00    -0.236 A  
HETATM   10  C   UNL     1     -10.556   8.804  67.249  1.00  0.00    -0.303 A  
HETATM   11  C   UNL     1     -10.241  10.173  67.198  1.00  0.00    -0.278 A  
HETATM   12  C   UNL     1      -9.507   9.989  69.527  1.00  0.00    -0.245 A  
HETATM   13  C   UNL     1      -9.742  10.755  68.377  1.00  0.00    -0.179 A  
BRANCH  11  14
HETATM   14  C   UNL     1     -10.386  10.946  65.940  1.00  0.00    -0.310 A  
HETATM   15  C   UNL     1     -11.109  12.152  65.891  1.00  0.00    -0.360 A  
HETATM   16  C   UNL     1     -11.327  12.827  64.685  1.00  0.00    -0.362 A  
HETATM   17  C   UNL     1     -10.807  12.322  63.498  1.00  0.00    -0.508 A  
HETATM   18  C   UNL     1     -10.063  11.147  63.520  1.00  0.00    -0.437 A  
HETATM   19  C   UNL     1      -9.860  10.467  64.726  1.00  0.00    -0.406 A  
ENDBRANCH  11  14
ENDBRANCH   6   8
ENDBRANCH   5   6
ENDBRANCH   3   5
TORSDOF 4
ENDMDL
MODEL       81
REMARK 921   NORMALIZED FREE ENERGY PREDICTED BY IDOCK:   -4.68 KCAL/MOL
REMARK 922        TOTAL FREE ENERGY PREDICTED BY IDOCK:   -6.44 KCAL/MOL
REMARK 923 INTER-LIGAND FREE ENERGY PREDICTED BY IDOCK:   -5.81 KCAL/MOL
REMARK 924 INTRA-LIGAND FREE ENERGY PREDICTED BY IDOCK:   -0.63 KCAL/MOL
REMARK 927      BINDING AFFINITY PREDICTED BY RF-SCORE:    0.00 PKD
ROOT
HETATM    1  O   UNL     1      -9.550  16.375  68.918  1.00  0.00    -0.233 OA 
HETATM    2  C   UNL     1     -10.517  15.826  68.152  1.00  0.00    -0.263 C  
HETATM    3  C   UNL     1      -9.982  15.018  67.004  1.00  0.00    -0.242 C  
HETATM    4  O   UNL     1     -11.702  15.942  68.415  1.00  0.00    -0.358 OA 
ENDROOT
BRANCH   3   5
HETATM    5  C   UNL     1     -10.963  15.013  65.838  1.00  0.00    -0.343 C  
BRANCH   5   6
HETATM    6  C   UNL     1     -11.894  13.826  65.949  1.00  0.00    -0.383 C  
HETATM    7  O   UNL     1     -13.059  13.919  65.569  1.00  0.00    -0.699 OA 
BRANCH   6   8
HETATM    8  C   UNL     1     -11.379  12.515  66.446  1.00  0.00    -0.379 A  
HETATM    9  C   UNL     1     -10.444  11.758  65.741  1.00  0.00    -0.302 A  
HETATM   10  C   UNL     1     -10.068  10.492  66.206  1.00  0.00    -0.290 A  
HETATM   11  C   UNL     1     -10.604   9.941  67.383  1.00  0.00    -0.338 A  
HETATM   12  C   UNL     1     -11.893  12.006  67.643  1.00  0.00    -0.294 A  
HETATM   13  C   UNL     1     -11.502  10.744  68.108  1.00  0.00    -0.346 A  
BRANCH  11  14
HETATM   14  C   UNL     1     -10.269   8.558  67.802  1.00  0.00    -0.283 A  
HETATM   15  C   UNL     1      -9.296   8.297  68.784  1.00  0.00    -0.143 A  
HETATM   16  C   UNL     1      -8.912   6.990  69.106  1.00  0.00    -0.134 A  
HETATM   17  C   UNL     1      -9.511   5.910  68.468  1.00  0.00    -0.134 A  
HETATM   18  C   UNL     1     -10.498   6.135  67.515  1.00  0.00    -0.301 A  
HETATM   19  C   UNL     1     -10.868   7.444  67.184  1.00  0.00    -0.340 A  
ENDBRANCH  11  14
ENDBRANCH   6   8
ENDBRANCH   5   6
ENDBRANCH   3   5
TORSDOF 4
ENDMDL
MODEL       82
REMARK 921   NORMALIZED FREE ENERGY PREDICTED BY IDOCK:   -4.67 KCAL/MOL
REMARK 922        TOTAL FREE ENERGY PREDICTED BY IDOCK:   -6.42 KCAL/MOL
REMARK 923 INTER-LIGAND FREE ENERGY PREDICTED BY IDOCK:   -5.84 KCAL/MOL
REMARK 924 INTRA-LIGAND FREE ENERGY PREDICTED BY IDOCK:   -0.58 KCAL/MOL
REMARK 927      BINDING AFFINITY PREDICTED BY RF-SCORE:    0.00 PKD
ROOT
HETATM    1  O   UNL     1      -6.972   6.980  66.273  1.00  0.00    -0.065 OA 
HETATM    2  C   UNL     1      -8.313   6.972  66.114  1.00  0.00    -0.130 C  
HETATM    3  C   UNL     1      -8.926   8.344  66.150  1.00  0.00    -0.218 C  
HETATM    4  O   UNL     1      -8.940   5.947  65.909  1.00  0.00    -0.153 OA 
ENDROOT
BRANCH   3   5
HETATM    5  C   UNL     1     -10.361   8.285  66.659  1.00  0.00    -0.293 C  
BRANCH   5   6
HETATM    6  C   UNL     1     -10.379   8.352  68.170  1.00  0.00    -0.204 C  
HETATM    7  O   UNL     1      -9.969   7.401  68.833  1.00  0.00    -0.161 OA 
BRANCH   6   8
HETATM    8  C   UNL     1     -10.819   9.601  68.859  1.00  0.00    -0.201 A  
HETATM    9  C   UNL     1     -11.385   9.598  70.134  1.00  0.00    -0.275 A  
HETATM   10  C   UNL     1     -11.868  10.788  70.693  1.00  0.00    -0.460 A  
HETATM   11  C   UNL     1     -11.803  12.014  70.007  1.00  0.00    -0.392 A  
HETATM   12  C   UNL     1     -10.703  10.816  68.176  1.00  0.00    -0.257 A  
HETATM   13  C   UNL     1     -11.178  12.004  68.747  1.00  0.00    -0.316 A  
BRANCH  11  14
HETATM   14  C   UNL     1     -12.412  13.241  70.574  1.00  0.00    -0.332 A  
HETATM   15  C   UNL     1     -12.221  14.504  69.984  1.00  0.00    -0.396 A  
HETATM   16  C   UNL     1     -12.715  15.672  70.575  1.00  0.00    -0.391 A  
HETATM   17  C   UNL     1     -13.434  15.603  71.763  1.00  0.00    -0.525 A  
HETATM   18  C   UNL     1     -13.665  14.365  72.355  1.00  0.00    -0.590 A  
HETATM   19  C   UNL     1     -13.157  13.201  71.769  1.00  0.00    -0.478 A  
ENDBRANCH  11  14
ENDBRANCH   6   8
ENDBRANCH   5   6
ENDBRANCH   3   5
TORSDOF 4
ENDMDL
MODEL       83
REMARK 921   NORMALIZED FREE ENERGY PREDICTED BY IDOCK:   -4.66 KCAL/MOL
REMARK 922        TOTAL FREE ENERGY PREDICTED BY IDOCK:   -6.41 KCAL/MOL
REMARK 923 INTER-LIGAND FREE ENERGY PREDICTED BY IDOCK:   -5.58 KCAL/MOL
REMARK 924 INTRA-LIGAND FREE ENERGY PREDICTED BY IDOCK:   -0.83 KCAL/MOL
REMARK 927      BINDING AFFINITY PREDICTED BY RF-SCORE:    0.00 PKD
ROOT
HETATM    1  O   UNL     1      -9.552  16.508  65.561  1.00  0.00    -0.502 OA 
HETATM    2  C   UNL     1     -10.200  15.380  65.927  1.00  0.00    -0.344 C  
HETATM    3  C   UNL     1     -11.132  14.859  64.869  1.00  0.00    -0.424 C  
HETATM    4  O   UNL     1      -9.994  14.826  66.993  1.00  0.00    -0.233 OA 
ENDROOT
BRANCH   3   5
HETATM    5  C   UNL     1     -12.289  14.090  65.496  1.00  0.00    -0.503 C  
BRANCH   5   6
HETATM    6  C   UNL     1     -12.343  12.686  64.934  1.00  0.00    -0.498 C  
HETATM    7  O   UNL     1     -13.142  12.411  64.041  1.00  0.00    -0.763 OA 
BRANCH   6   8
HETATM    8  C   UNL     1     -11.373  11.654  65.405  1.00  0.00    -0.218 A  
HETATM    9  C   UNL     1     -11.173  11.371  66.756  1.00  0.00    -0.319 A  
HETATM   10  C   UNL     1     -10.182  10.462  67.147  1.00  0.00    -0.271 A  
HETATM   11  C   UNL     1      -9.363   9.806  66.211  1.00  0.00    -0.230 A  
HETATM   12  C   UNL     1     -10.600  10.980  64.454  1.00  0.00    -0.395 A  
HETATM   13  C   UNL     1      -9.618  10.063  64.852  1.00  0.00    -0.375 A  
BRANCH  11  14
HETATM   14  C   UNL     1      -8.252   8.926  66.650  1.00  0.00    -0.111 A  
HETATM   15  C   UNL     1      -8.358   8.115  67.795  1.00  0.00    -0.128 A  
HETATM   16  C   UNL     1      -7.276   7.361  68.263  1.00  0.00    -0.090 A  
HETATM   17  C   UNL     1      -6.064   7.384  67.582  1.00  0.00    -0.046 A  
HETATM   18  C   UNL     1      -5.938   8.152  66.429  1.00  0.00    -0.041 A  
HETATM   19  C   UNL     1      -7.018   8.916  65.974  1.00  0.00    -0.084 A  
ENDBRANCH  11  14
ENDBRANCH   6   8
ENDBRANCH   5   6
ENDBRANCH   3   5
TORSDOF 4
ENDMDL
MODEL       84
REMARK 921   NORMALIZED FREE ENERGY PREDICTED BY IDOCK:   -4.64 KCAL/MOL
REMARK 922        TOTAL FREE ENERGY PREDICTED BY IDOCK:   -6.38 KCAL/MOL
REMARK 923 INTER-LIGAND FREE ENERGY PREDICTED BY IDOCK:   -6.32 KCAL/MOL
REMARK 924 INTRA-LIGAND FREE ENERGY PREDICTED BY IDOCK:   -0.06 KCAL/MOL
REMARK 927      BINDING AFFINITY PREDICTED BY RF-SCORE:    0.00 PKD
ROOT
HETATM    1  O   UNL     1     -13.339  10.900  72.156  1.00  0.00    -0.443 OA 
HETATM    2  C   UNL     1     -13.150   9.625  71.753  1.00  0.00    -0.421 C  
HETATM    3  C   UNL     1     -11.701   9.243  71.640  1.00  0.00    -0.462 C  
HETATM    4  O   UNL     1     -14.078   8.859  71.558  1.00  0.00    -0.380 OA 
ENDROOT
BRANCH   3   5
HETATM    5  C   UNL     1     -11.505   8.158  70.588  1.00  0.00    -0.237 C  
BRANCH   5   6
HETATM    6  C   UNL     1     -10.439   8.579  69.601  1.00  0.00    -0.221 C  
HETATM    7  O   UNL     1      -9.368   7.978  69.557  1.00  0.00    -0.156 OA 
BRANCH   6   8
HETATM    8  C   UNL     1     -10.715   9.674  68.624  1.00  0.00    -0.233 A  
HETATM    9  C   UNL     1     -10.131   9.717  67.358  1.00  0.00    -0.257 A  
HETATM   10  C   UNL     1     -10.350  10.816  66.518  1.00  0.00    -0.300 A  
HETATM   11  C   UNL     1     -11.155  11.902  66.907  1.00  0.00    -0.356 A  
HETATM   12  C   UNL     1     -11.555  10.722  69.014  1.00  0.00    -0.370 A  
HETATM   13  C   UNL     1     -11.779  11.812  68.164  1.00  0.00    -0.377 A  
BRANCH  11  14
HETATM   14  C   UNL     1     -11.290  13.101  66.045  1.00  0.00    -0.337 A  
HETATM   15  C   UNL     1     -12.412  13.296  65.218  1.00  0.00    -0.543 A  
HETATM   16  C   UNL     1     -12.492  14.378  64.334  1.00  0.00    -0.339 A  
HETATM   17  C   UNL     1     -11.458  15.305  64.270  1.00  0.00    -0.162 A  
HETATM   18  C   UNL     1     -10.349  15.156  65.097  1.00  0.00    -0.416 A  
HETATM   19  C   UNL     1     -10.267  14.065  65.969  1.00  0.00    -0.313 A  
ENDBRANCH  11  14
ENDBRANCH   6   8
ENDBRANCH   5   6
ENDBRANCH   3   5
TORSDOF 4
ENDMDL
MODEL       85
REMARK 921   NORMALIZED FREE ENERGY PREDICTED BY IDOCK:   -4.64 KCAL/MOL
REMARK 922        TOTAL FREE ENERGY PREDICTED BY IDOCK:   -6.38 KCAL/MOL
REMARK 923 INTER-LIGAND FREE ENERGY PREDICTED BY IDOCK:   -5.78 KCAL/MOL
REMARK 924 INTRA-LIGAND FREE ENERGY PREDICTED BY IDOCK:   -0.61 KCAL/MOL
REMARK 927      BINDING AFFINITY PREDICTED BY RF-SCORE:    0.00 PKD
ROOT
HETATM    1  O   UNL     1     -12.915  14.803  73.857  1.00  0.00    -0.445 OA 
HETATM    2  C   UNL     1     -13.235  14.169  72.708  1.00  0.00    -0.509 C  
HETATM    3  C   UNL     1     -12.307  14.491  71.571  1.00  0.00    -0.430 C  
HETATM    4  O   UNL     1     -14.157  13.376  72.636  1.00  0.00    -0.767 OA 
ENDROOT
BRANCH   3   5
HETATM    5  C   UNL     1     -13.025  14.369  70.232  1.00  0.00    -0.120 C  
BRANCH   5   6
HETATM    6  C   UNL     1     -12.034  14.510  69.098  1.00  0.00    -0.309 C  
HETATM    7  O   UNL     1     -11.721  15.625  68.688  1.00  0.00    -0.366 OA 
BRANCH   6   8
HETATM    8  C   UNL     1     -11.373  13.298  68.527  1.00  0.00    -0.319 A  
HETATM    9  C   UNL     1     -10.421  13.369  67.511  1.00  0.00    -0.236 A  
HETATM   10  C   UNL     1      -9.904  12.196  66.946  1.00  0.00    -0.213 A  
HETATM   11  C   UNL     1     -10.314  10.920  67.374  1.00  0.00    -0.248 A  
HETATM   12  C   UNL     1     -11.763  12.040  68.999  1.00  0.00    -0.382 A  
HETATM   13  C   UNL     1     -11.232  10.871  68.437  1.00  0.00    -0.347 A  
BRANCH  11  14
HETATM   14  C   UNL     1      -9.831   9.694  66.693  1.00  0.00    -0.285 A  
HETATM   15  C   UNL     1     -10.402   8.433  66.948  1.00  0.00    -0.378 A  
HETATM   16  C   UNL     1      -9.881   7.265  66.380  1.00  0.00    -0.124 A  
HETATM   17  C   UNL     1      -8.788   7.332  65.523  1.00  0.00     0.011 A  
HETATM   18  C   UNL     1      -8.221   8.568  65.229  1.00  0.00    -0.149 A  
HETATM   19  C   UNL     1      -8.735   9.732  65.811  1.00  0.00    -0.160 A  
ENDBRANCH  11  14
ENDBRANCH   6   8
ENDBRANCH   5   6
ENDBRANCH   3   5
TORSDOF 4
ENDMDL
MODEL       86
REMARK 921   NORMALIZED FREE ENERGY PREDICTED BY IDOCK:   -4.64 KCAL/MOL
REMARK 922        TOTAL FREE ENERGY PREDICTED BY IDOCK:   -6.38 KCAL/MOL
REMARK 923 INTER-LIGAND FREE ENERGY PREDICTED BY IDOCK:   -5.70 KCAL/MOL
REMARK 924 INTRA-LIGAND FREE ENERGY PREDICTED BY IDOCK:   -0.67 KCAL/MOL
REMARK 927      BINDING AFFINITY PREDICTED BY RF-SCORE:    0.00 PKD
ROOT
HETATM    1  O   UNL     1      -8.941  17.644  65.816  1.00  0.00    -0.509 OA 
HETATM    2  C   UNL     1     -10.009  17.370  66.595  1.00  0.00    -0.308 C  
HETATM    3  C   UNL     1     -10.057  15.941  67.060  1.00  0.00    -0.268 C  
HETATM    4  O   UNL     1     -10.814  18.225  66.922  1.00  0.00    -0.306 OA 
ENDROOT
BRANCH   3   5
HETATM    5  C   UNL     1     -11.495  15.496  67.300  1.00  0.00    -0.102 C  
BRANCH   5   6
HETATM    6  C   UNL     1     -11.824  14.310  66.421  1.00  0.00    -0.411 C  
HETATM    7  O   UNL     1     -12.443  14.473  65.372  1.00  0.00    -0.353 OA 
BRANCH   6   8
HETATM    8  C   UNL     1     -11.328  12.949  66.785  1.00  0.00    -0.367 A  
HETATM    9  C   UNL     1     -10.693  12.110  65.870  1.00  0.00    -0.302 A  
HETATM   10  C   UNL     1     -10.335  10.807  66.239  1.00  0.00    -0.303 A  
HETATM   11  C   UNL     1     -10.593  10.300  67.525  1.00  0.00    -0.320 A  
HETATM   12  C   UNL     1     -11.555  12.481  68.084  1.00  0.00    -0.390 A  
HETATM   13  C   UNL     1     -11.183  11.180  68.449  1.00  0.00    -0.325 A  
BRANCH  11  14
HETATM   14  C   UNL     1     -10.298   8.885  67.862  1.00  0.00    -0.286 A  
HETATM   15  C   UNL     1     -10.785   7.821  67.081  1.00  0.00    -0.337 A  
HETATM   16  C   UNL     1     -10.589   6.487  67.456  1.00  0.00    -0.345 A  
HETATM   17  C   UNL     1      -9.880   6.185  68.613  1.00  0.00    -0.160 A  
HETATM   18  C   UNL     1      -9.361   7.215  69.391  1.00  0.00    -0.147 A  
HETATM   19  C   UNL     1      -9.572   8.548  69.020  1.00  0.00    -0.167 A  
ENDBRANCH  11  14
ENDBRANCH   6   8
ENDBRANCH   5   6
ENDBRANCH   3   5
TORSDOF 4
ENDMDL
MODEL       87
REMARK 921   NORMALIZED FREE ENERGY PREDICTED BY IDOCK:   -4.61 KCAL/MOL
REMARK 922        TOTAL FREE ENERGY PREDICTED BY IDOCK:   -6.34 KCAL/MOL
REMARK 923 INTER-LIGAND FREE ENERGY PREDICTED BY IDOCK:   -5.60 KCAL/MOL
REMARK 924 INTRA-LIGAND FREE ENERGY PREDICTED BY IDOCK:   -0.75 KCAL/MOL
REMARK 927      BINDING AFFINITY PREDICTED BY RF-SCORE:    0.00 PKD
ROOT
HETATM    1  O   UNL     1      -7.421   9.457  71.239  1.00  0.00    -0.322 OA 
HETATM    2  C   UNL     1      -8.583   8.771  71.314  1.00  0.00    -0.203 C  
HETATM    3  C   UNL     1      -8.617   7.557  70.428  1.00  0.00    -0.143 C  
HETATM    4  O   UNL     1      -9.481   9.091  72.073  1.00  0.00    -0.339 OA 
ENDROOT
BRANCH   3   5
HETATM    5  C   UNL     1     -10.044   7.236  70.001  1.00  0.00    -0.192 C  
BRANCH   5   6
HETATM    6  C   UNL     1     -10.166   7.320  68.496  1.00  0.00    -0.181 C  
HETATM    7  O   UNL     1     -10.180   6.293  67.821  1.00  0.00    -0.139 OA 
BRANCH   6   8
HETATM    8  C   UNL     1     -10.350   8.646  67.833  1.00  0.00    -0.286 A  
HETATM    9  C   UNL     1     -10.899   9.745  68.491  1.00  0.00    -0.227 A  
HETATM   10  C   UNL     1     -11.138  10.936  67.794  1.00  0.00    -0.371 A  
HETATM   11  C   UNL     1     -10.837  11.073  66.427  1.00  0.00    -0.253 A  
HETATM   12  C   UNL     1     -10.001   8.772  66.484  1.00  0.00    -0.360 A  
HETATM   13  C   UNL     1     -10.232   9.971  65.797  1.00  0.00    -0.270 A  
BRANCH  11  14
HETATM   14  C   UNL     1     -11.192  12.307  65.685  1.00  0.00    -0.375 A  
HETATM   15  C   UNL     1     -10.893  13.586  66.188  1.00  0.00    -0.284 A  
HETATM   16  C   UNL     1     -11.316  14.749  65.534  1.00  0.00    -0.343 A  
HETATM   17  C   UNL     1     -12.031  14.660  64.346  1.00  0.00    -0.454 A  
HETATM   18  C   UNL     1     -12.316  13.409  63.807  1.00  0.00    -0.418 A  
HETATM   19  C   UNL     1     -11.905  12.249  64.472  1.00  0.00    -0.441 A  
ENDBRANCH  11  14
ENDBRANCH   6   8
ENDBRANCH   5   6
ENDBRANCH   3   5
TORSDOF 4
ENDMDL
MODEL       88
REMARK 921   NORMALIZED FREE ENERGY PREDICTED BY IDOCK:   -4.58 KCAL/MOL
REMARK 922        TOTAL FREE ENERGY PREDICTED BY IDOCK:   -6.32 KCAL/MOL
REMARK 923 INTER-LIGAND FREE ENERGY PREDICTED BY IDOCK:   -5.72 KCAL/MOL
REMARK 924 INTRA-LIGAND FREE ENERGY PREDICTED BY IDOCK:   -0.60 KCAL/MOL
REMARK 927      BINDING AFFINITY PREDICTED BY RF-SCORE:    0.00 PKD
ROOT
HETATM    1  O   UNL     1      -6.155  20.820  67.919  1.00  0.00    -0.255 OA 
HETATM    2  C   UNL     1      -6.938  20.533  66.856  1.00  0.00    -0.287 C  
HETATM    3  C   UNL     1      -8.369  20.263  67.225  1.00  0.00    -0.404 C  
HETATM    4  O   UNL     1      -6.516  20.552  65.712  1.00  0.00    -0.216 OA 
ENDROOT
BRANCH   3   5
HETATM    5  C   UNL     1      -9.020  19.317  66.223  1.00  0.00    -0.347 C  
BRANCH   5   6
HETATM    6  C   UNL     1     -10.124  18.530  66.894  1.00  0.00    -0.370 C  
HETATM    7  O   UNL     1     -11.098  19.115  67.365  1.00  0.00    -0.426 OA 
BRANCH   6   8
HETATM    8  C   UNL     1     -10.073  17.038  66.915  1.00  0.00    -0.298 A  
HETATM    9  C   UNL     1      -9.139  16.307  66.183  1.00  0.00    -0.377 A  
HETATM   10  C   UNL     1      -9.197  14.908  66.163  1.00  0.00    -0.268 A  
HETATM   11  C   UNL     1     -10.180  14.194  66.871  1.00  0.00    -0.267 A  
HETATM   12  C   UNL     1     -11.033  16.348  67.662  1.00  0.00    -0.225 A  
HETATM   13  C   UNL     1     -11.078  14.947  67.648  1.00  0.00    -0.315 A  
BRANCH  11  14
HETATM   14  C   UNL     1     -10.287  12.719  66.754  1.00  0.00    -0.248 A  
HETATM   15  C   UNL     1     -10.876  11.937  67.765  1.00  0.00    -0.254 A  
HETATM   16  C   UNL     1     -10.887  10.539  67.697  1.00  0.00    -0.355 A  
HETATM   17  C   UNL     1     -10.327   9.889  66.604  1.00  0.00    -0.275 A  
HETATM   18  C   UNL     1      -9.763  10.635  65.574  1.00  0.00    -0.291 A  
HETATM   19  C   UNL     1      -9.741  12.032  65.653  1.00  0.00    -0.241 A  
ENDBRANCH  11  14
ENDBRANCH   6   8
ENDBRANCH   5   6
ENDBRANCH   3   5
TORSDOF 4
ENDMDL
MODEL       89
REMARK 921   NORMALIZED FREE ENERGY PREDICTED BY IDOCK:   -4.57 KCAL/MOL
REMARK 922        TOTAL FREE ENERGY PREDICTED BY IDOCK:   -6.29 KCAL/MOL
REMARK 923 INTER-LIGAND FREE ENERGY PREDICTED BY IDOCK:   -5.49 KCAL/MOL
REMARK 924 INTRA-LIGAND FREE ENERGY PREDICTED BY IDOCK:   -0.81 KCAL/MOL
REMARK 927      BINDING AFFINITY PREDICTED BY RF-SCORE:    0.00 PKD
ROOT
HETATM    1  O   UNL     1     -12.146  11.502  67.526  1.00  0.00    -0.614 OA 
HETATM    2  C   UNL     1     -11.049  10.780  67.838  1.00  0.00    -0.308 C  
HETATM    3  C   UNL     1     -10.199  11.415  68.903  1.00  0.00    -0.184 C  
HETATM    4  O   UNL     1     -10.817   9.694  67.334  1.00  0.00    -0.274 OA 
ENDROOT
BRANCH   3   5
HETATM    5  C   UNL     1      -8.738  11.012  68.745  1.00  0.00    -0.146 C  
BRANCH   5   6
HETATM    6  C   UNL     1      -8.093  11.826  67.645  1.00  0.00    -0.144 C  
HETATM    7  O   UNL     1      -7.393  11.272  66.799  1.00  0.00    -0.137 OA 
BRANCH   6   8
HETATM    8  C   UNL     1      -8.368  13.290  67.537  1.00  0.00    -0.186 A  
HETATM    9  C   UNL     1      -8.013  14.197  68.534  1.00  0.00    -0.145 A  
HETATM   10  C   UNL     1      -8.381  15.544  68.424  1.00  0.00    -0.154 A  
HETATM   11  C   UNL     1      -9.109  16.030  67.324  1.00  0.00    -0.217 A  
HETATM   12  C   UNL     1      -9.054  13.759  66.411  1.00  0.00    -0.083 A  
HETATM   13  C   UNL     1      -9.408  15.110  66.303  1.00  0.00    -0.348 A  
BRANCH  11  14
HETATM   14  C   UNL     1      -9.577  17.437  67.277  1.00  0.00    -0.258 A  
HETATM   15  C   UNL     1     -10.116  18.000  66.105  1.00  0.00    -0.334 A  
HETATM   16  C   UNL     1     -10.465  19.353  66.036  1.00  0.00    -0.596 A  
HETATM   17  C   UNL     1     -10.305  20.173  67.147  1.00  0.00    -0.501 A  
HETATM   18  C   UNL     1      -9.803  19.639  68.329  1.00  0.00    -0.521 A  
HETATM   19  C   UNL     1      -9.440  18.289  68.390  1.00  0.00    -0.336 A  
ENDBRANCH  11  14
ENDBRANCH   6   8
ENDBRANCH   5   6
ENDBRANCH   3   5
TORSDOF 4
ENDMDL
MODEL       90
REMARK 921   NORMALIZED FREE ENERGY PREDICTED BY IDOCK:   -4.56 KCAL/MOL
REMARK 922        TOTAL FREE ENERGY PREDICTED BY IDOCK:   -6.29 KCAL/MOL
REMARK 923 INTER-LIGAND FREE ENERGY PREDICTED BY IDOCK:   -5.57 KCAL/MOL
REMARK 924 INTRA-LIGAND FREE ENERGY PREDICTED BY IDOCK:   -0.71 KCAL/MOL
REMARK 927      BINDING AFFINITY PREDICTED BY RF-SCORE:    0.00 PKD
ROOT
HETATM    1  O   UNL     1      -7.459   8.292  71.383  1.00  0.00    -0.070 OA 
HETATM    2  C   UNL     1      -8.493   7.897  72.157  1.00  0.00    -0.132 C  
HETATM    3  C   UNL     1      -9.171   6.653  71.656  1.00  0.00    -0.145 C  
HETATM    4  O   UNL     1      -8.795   8.475  73.187  1.00  0.00    -0.320 OA 
ENDROOT
BRANCH   3   5
HETATM    5  C   UNL     1     -10.638   6.630  72.070  1.00  0.00    -0.236 C  
BRANCH   5   6
HETATM    6  C   UNL     1     -11.494   7.226  70.974  1.00  0.00    -0.287 C  
HETATM    7  O   UNL     1     -12.224   6.502  70.300  1.00  0.00    -0.278 OA 
BRANCH   6   8
HETATM    8  C   UNL     1     -11.516   8.704  70.762  1.00  0.00    -0.293 A  
HETATM    9  C   UNL     1     -12.252   9.569  71.571  1.00  0.00    -0.468 A  
HETATM   10  C   UNL     1     -12.313  10.935  71.269  1.00  0.00    -0.448 A  
HETATM   11  C   UNL     1     -11.646  11.483  70.159  1.00  0.00    -0.336 A  
HETATM   12  C   UNL     1     -10.808   9.234  69.678  1.00  0.00    -0.228 A  
HETATM   13  C   UNL     1     -10.865  10.603  69.390  1.00  0.00    -0.289 A  
BRANCH  11  14
HETATM   14  C   UNL     1     -11.808  12.913  69.799  1.00  0.00    -0.380 A  
HETATM   15  C   UNL     1     -12.331  13.852  70.708  1.00  0.00    -0.449 A  
HETATM   16  C   UNL     1     -12.574  15.178  70.334  1.00  0.00    -0.405 A  
HETATM   17  C   UNL     1     -12.278  15.604  69.044  1.00  0.00    -0.104 A  
HETATM   18  C   UNL     1     -11.732  14.707  68.132  1.00  0.00    -0.360 A  
HETATM   19  C   UNL     1     -11.505  13.378  68.505  1.00  0.00    -0.345 A  
ENDBRANCH  11  14
ENDBRANCH   6   8
ENDBRANCH   5   6
ENDBRANCH   3   5
TORSDOF 4
ENDMDL
MODEL       91
REMARK 921   NORMALIZED FREE ENERGY PREDICTED BY IDOCK:   -4.54 KCAL/MOL
REMARK 922        TOTAL FREE ENERGY PREDICTED BY IDOCK:   -6.26 KCAL/MOL
REMARK 923 INTER-LIGAND FREE ENERGY PREDICTED BY IDOCK:   -5.51 KCAL/MOL
REMARK 924 INTRA-LIGAND FREE ENERGY PREDICTED BY IDOCK:   -0.75 KCAL/MOL
REMARK 927      BINDING AFFINITY PREDICTED BY RF-SCORE:    0.00 PKD
ROOT
HETATM    1  O   UNL     1      -9.009   4.388  64.423  1.00  0.00    -0.142 OA 
HETATM    2  C   UNL     1      -9.214   4.342  65.757  1.00  0.00    -0.142 C  
HETATM    3  C   UNL     1     -10.382   5.172  66.210  1.00  0.00    -0.313 C  
HETATM    4  O   UNL     1      -8.540   3.646  66.497  1.00  0.00    -0.108 OA 
ENDROOT
BRANCH   3   5
HETATM    5  C   UNL     1     -10.182   5.658  67.641  1.00  0.00    -0.243 C  
BRANCH   5   6
HETATM    6  C   UNL     1      -9.233   6.837  67.659  1.00  0.00    -0.118 C  
HETATM    7  O   UNL     1      -8.069   6.685  68.023  1.00  0.00    -0.109 OA 
BRANCH   6   8
HETATM    8  C   UNL     1      -9.686   8.170  67.160  1.00  0.00    -0.259 A  
HETATM    9  C   UNL     1     -10.542   8.995  67.890  1.00  0.00    -0.256 A  
HETATM   10  C   UNL     1     -11.012  10.190  67.333  1.00  0.00    -0.295 A  
HETATM   11  C   UNL     1     -10.646  10.604  66.040  1.00  0.00    -0.195 A  
HETATM   12  C   UNL     1      -9.274   8.582  65.889  1.00  0.00    -0.245 A  
HETATM   13  C   UNL     1      -9.739   9.786  65.343  1.00  0.00    -0.383 A  
BRANCH  11  14
HETATM   14  C   UNL     1     -11.236  11.822  65.430  1.00  0.00    -0.310 A  
HETATM   15  C   UNL     1     -11.804  12.842  66.216  1.00  0.00    -0.485 A  
HETATM   16  C   UNL     1     -12.446  13.941  65.636  1.00  0.00    -0.538 A  
HETATM   17  C   UNL     1     -12.517  14.058  64.252  1.00  0.00    -0.303 A  
HETATM   18  C   UNL     1     -11.938  13.081  63.449  1.00  0.00    -0.592 A  
HETATM   19  C   UNL     1     -11.310  11.975  64.033  1.00  0.00    -0.478 A  
ENDBRANCH  11  14
ENDBRANCH   6   8
ENDBRANCH   5   6
ENDBRANCH   3   5
TORSDOF 4
ENDMDL
MODEL       92
REMARK 921   NORMALIZED FREE ENERGY PREDICTED BY IDOCK:   -4.53 KCAL/MOL
REMARK 922        TOTAL FREE ENERGY PREDICTED BY IDOCK:   -6.25 KCAL/MOL
REMARK 923 INTER-LIGAND FREE ENERGY PREDICTED BY IDOCK:   -5.65 KCAL/MOL
REMARK 924 INTRA-LIGAND FREE ENERGY PREDICTED BY IDOCK:   -0.59 KCAL/MOL
REMARK 927      BINDING AFFINITY PREDICTED BY RF-SCORE:    0.00 PKD
ROOT
HETATM    1  O   UNL     1     -11.100  15.375  66.776  1.00  0.00    -0.312 OA 
HETATM    2  C   UNL     1     -11.811  14.230  66.865  1.00  0.00    -0.433 C  
HETATM    3  C   UNL     1     -11.511  13.437  68.107  1.00  0.00    -0.339 C  
HETATM    4  O   UNL     1     -12.647  13.916  66.036  1.00  0.00    -0.467 OA 
ENDROOT
BRANCH   3   5
HETATM    5  C   UNL     1     -11.740  11.949  67.869  1.00  0.00    -0.368 C  
BRANCH   5   6
HETATM    6  C   UNL     1     -10.500  11.168  68.245  1.00  0.00    -0.191 C  
HETATM    7  O   UNL     1      -9.388  11.595  67.942  1.00  0.00    -0.163 OA 
BRANCH   6   8
HETATM    8  C   UNL     1     -10.619   9.919  69.054  1.00  0.00    -0.240 A  
HETATM    9  C   UNL     1     -10.833   9.932  70.432  1.00  0.00    -0.380 A  
HETATM   10  C   UNL     1     -10.841   8.733  71.156  1.00  0.00    -0.335 A  
HETATM   11  C   UNL     1     -10.640   7.488  70.536  1.00  0.00    -0.232 A  
HETATM   12  C   UNL     1     -10.461   8.688  68.409  1.00  0.00    -0.220 A  
HETATM   13  C   UNL     1     -10.482   7.492  69.138  1.00  0.00    -0.220 A  
BRANCH  11  14
HETATM   14  C   UNL     1     -10.549   6.241  71.335  1.00  0.00    -0.284 A  
HETATM   15  C   UNL     1      -9.746   5.159  70.930  1.00  0.00    -0.252 A  
HETATM   16  C   UNL     1      -9.739   3.948  71.632  1.00  0.00    -0.240 A  
HETATM   17  C   UNL     1     -10.520   3.799  72.772  1.00  0.00    -0.222 A  
HETATM   18  C   UNL     1     -11.301   4.861  73.215  1.00  0.00    -0.408 A  
HETATM   19  C   UNL     1     -11.317   6.065  72.501  1.00  0.00    -0.344 A  
ENDBRANCH  11  14
ENDBRANCH   6   8
ENDBRANCH   5   6
ENDBRANCH   3   5
TORSDOF 4
ENDMDL
MODEL       93
REMARK 921   NORMALIZED FREE ENERGY PREDICTED BY IDOCK:   -4.51 KCAL/MOL
REMARK 922        TOTAL FREE ENERGY PREDICTED BY IDOCK:   -6.22 KCAL/MOL
REMARK 923 INTER-LIGAND FREE ENERGY PREDICTED BY IDOCK:   -5.56 KCAL/MOL
REMARK 924 INTRA-LIGAND FREE ENERGY PREDICTED BY IDOCK:   -0.66 KCAL/MOL
REMARK 927      BINDING AFFINITY PREDICTED BY RF-SCORE:    0.00 PKD
ROOT
HETATM    1  O   UNL     1      -5.998  12.300  67.781  1.00  0.00    -0.072 OA 
HETATM    2  C   UNL     1      -6.382  11.005  67.759  1.00  0.00    -0.058 C  
HETATM    3  C   UNL     1      -7.139  10.629  66.516  1.00  0.00    -0.133 C  
HETATM    4  O   UNL     1      -6.085  10.222  68.645  1.00  0.00    -0.047 OA 
ENDROOT
BRANCH   3   5
HETATM    5  C   UNL     1      -8.108   9.486  66.795  1.00  0.00    -0.109 C  
BRANCH   5   6
HETATM    6  C   UNL     1      -9.533   9.962  66.625  1.00  0.00    -0.173 C  
HETATM    7  O   UNL     1     -10.179   9.630  65.633  1.00  0.00    -0.253 OA 
BRANCH   6   8
HETATM    8  C   UNL     1     -10.185  10.771  67.698  1.00  0.00    -0.221 A  
HETATM    9  C   UNL     1     -10.974  10.200  68.696  1.00  0.00    -0.273 A  
HETATM   10  C   UNL     1     -11.640  11.015  69.620  1.00  0.00    -0.390 A  
HETATM   11  C   UNL     1     -11.542  12.417  69.584  1.00  0.00    -0.330 A  
HETATM   12  C   UNL     1     -10.037  12.162  67.669  1.00  0.00    -0.205 A  
HETATM   13  C   UNL     1     -10.697  12.969  68.604  1.00  0.00    -0.273 A  
BRANCH  11  14
HETATM   14  C   UNL     1     -12.336  13.263  70.507  1.00  0.00    -0.389 A  
HETATM   15  C   UNL     1     -12.988  12.724  71.631  1.00  0.00    -0.402 A  
HETATM   16  C   UNL     1     -13.816  13.506  72.444  1.00  0.00    -0.687 A  
HETATM   17  C   UNL     1     -13.995  14.856  72.164  1.00  0.00    -0.598 A  
HETATM   18  C   UNL     1     -13.340  15.425  71.077  1.00  0.00    -0.545 A  
HETATM   19  C   UNL     1     -12.525  14.636  70.258  1.00  0.00    -0.401 A  
ENDBRANCH  11  14
ENDBRANCH   6   8
ENDBRANCH   5   6
ENDBRANCH   3   5
TORSDOF 4
ENDMDL
MODEL       94
REMARK 921   NORMALIZED FREE ENERGY PREDICTED BY IDOCK:   -4.47 KCAL/MOL
REMARK 922        TOTAL FREE ENERGY PREDICTED BY IDOCK:   -6.18 KCAL/MOL
REMARK 923 INTER-LIGAND FREE ENERGY PREDICTED BY IDOCK:   -5.57 KCAL/MOL
REMARK 924 INTRA-LIGAND FREE ENERGY PREDICTED BY IDOCK:   -0.60 KCAL/MOL
REMARK 927      BINDING AFFINITY PREDICTED BY RF-SCORE:    0.00 PKD
ROOT
HETATM    1  O   UNL     1     -10.612   6.925  73.962  1.00  0.00    -0.349 OA 
HETATM    2  C   UNL     1     -10.879   7.303  72.693  1.00  0.00    -0.290 C  
HETATM    3  C   UNL     1      -9.963   8.381  72.187  1.00  0.00    -0.376 C  
HETATM    4  O   UNL     1     -11.748   6.771  72.024  1.00  0.00    -0.281 OA 
ENDROOT
BRANCH   3   5
HETATM    5  C   UNL     1     -10.659   9.236  71.133  1.00  0.00    -0.402 C  
BRANCH   5   6
HETATM    6  C   UNL     1      -9.779   9.366  69.909  1.00  0.00    -0.212 C  
HETATM    7  O   UNL     1      -8.893   8.542  69.697  1.00  0.00    -0.134 OA 
BRANCH   6   8
HETATM    8  C   UNL     1     -10.038  10.450  68.914  1.00  0.00    -0.213 A  
HETATM    9  C   UNL     1      -9.036  11.304  68.455  1.00  0.00    -0.173 A  
HETATM   10  C   UNL     1      -9.353  12.364  67.596  1.00  0.00    -0.188 A  
HETATM   11  C   UNL     1     -10.670  12.606  67.166  1.00  0.00    -0.264 A  
HETATM   12  C   UNL     1     -11.348  10.644  68.465  1.00  0.00    -0.348 A  
HETATM   13  C   UNL     1     -11.655  11.700  67.596  1.00  0.00    -0.349 A  
BRANCH  11  14
HETATM   14  C   UNL     1     -10.998  13.793  66.340  1.00  0.00    -0.298 A  
HETATM   15  C   UNL     1     -12.106  13.808  65.472  1.00  0.00    -0.434 A  
HETATM   16  C   UNL     1     -12.358  14.891  64.622  1.00  0.00    -0.290 A  
HETATM   17  C   UNL     1     -11.517  15.998  64.636  1.00  0.00    -0.252 A  
HETATM   18  C   UNL     1     -10.431  16.026  65.504  1.00  0.00    -0.426 A  
HETATM   19  C   UNL     1     -10.174  14.934  66.342  1.00  0.00    -0.292 A  
ENDBRANCH  11  14
ENDBRANCH   6   8
ENDBRANCH   5   6
ENDBRANCH   3   5
TORSDOF 4
ENDMDL
MODEL       95
REMARK 921   NORMALIZED FREE ENERGY PREDICTED BY IDOCK:   -4.44 KCAL/MOL
REMARK 922        TOTAL FREE ENERGY PREDICTED BY IDOCK:   -6.14 KCAL/MOL
REMARK 923 INTER-LIGAND FREE ENERGY PREDICTED BY IDOCK:   -5.34 KCAL/MOL
REMARK 924 INTRA-LIGAND FREE ENERGY PREDICTED BY IDOCK:   -0.80 KCAL/MOL
REMARK 927      BINDING AFFINITY PREDICTED BY RF-SCORE:    0.00 PKD
ROOT
HETATM    1  O   UNL     1     -13.084  15.340  70.626  1.00  0.00    -0.402 OA 
HETATM    2  C   UNL     1     -11.816  15.619  70.254  1.00  0.00    -0.365 C  
HETATM    3  C   UNL     1     -11.725  16.340  68.938  1.00  0.00    -0.160 C  
HETATM    4  O   UNL     1     -10.856  15.353  70.958  1.00  0.00    -0.317 OA 
ENDROOT
BRANCH   3   5
HETATM    5  C   UNL     1     -10.406  16.031  68.239  1.00  0.00    -0.261 C  
BRANCH   5   6
HETATM    6  C   UNL     1     -10.646  15.105  67.068  1.00  0.00    -0.300 C  
HETATM    7  O   UNL     1     -10.889  15.569  65.955  1.00  0.00    -0.322 OA 
BRANCH   6   8
HETATM    8  C   UNL     1     -10.510  13.628  67.241  1.00  0.00    -0.260 A  
HETATM    9  C   UNL     1     -11.295  12.713  66.541  1.00  0.00    -0.377 A  
HETATM   10  C   UNL     1     -11.192  11.343  66.814  1.00  0.00    -0.319 A  
HETATM   11  C   UNL     1     -10.307  10.841  67.785  1.00  0.00    -0.226 A  
HETATM   12  C   UNL     1      -9.591  13.148  68.180  1.00  0.00    -0.227 A  
HETATM   13  C   UNL     1      -9.485  11.775  68.439  1.00  0.00    -0.188 A  
BRANCH  11  14
HETATM   14  C   UNL     1     -10.288   9.398  68.129  1.00  0.00    -0.255 A  
HETATM   15  C   UNL     1     -10.536   8.403  67.165  1.00  0.00    -0.380 A  
HETATM   16  C   UNL     1     -10.614   7.050  67.513  1.00  0.00    -0.351 A  
HETATM   17  C   UNL     1     -10.424   6.656  68.832  1.00  0.00    -0.239 A  
HETATM   18  C   UNL     1     -10.148   7.613  69.802  1.00  0.00    -0.196 A  
HETATM   19  C   UNL     1     -10.085   8.967  69.454  1.00  0.00    -0.198 A  
ENDBRANCH  11  14
ENDBRANCH   6   8
ENDBRANCH   5   6
ENDBRANCH   3   5
TORSDOF 4
ENDMDL
MODEL       96
REMARK 921   NORMALIZED FREE ENERGY PREDICTED BY IDOCK:   -4.40 KCAL/MOL
REMARK 922        TOTAL FREE ENERGY PREDICTED BY IDOCK:   -6.09 KCAL/MOL
REMARK 923 INTER-LIGAND FREE ENERGY PREDICTED BY IDOCK:   -5.35 KCAL/MOL
REMARK 924 INTRA-LIGAND FREE ENERGY PREDICTED BY IDOCK:   -0.74 KCAL/MOL
REMARK 927      BINDING AFFINITY PREDICTED BY RF-SCORE:    0.00 PKD
ROOT
HETATM    1  O   UNL     1      -8.638  17.340  65.846  1.00  0.00    -0.528 OA 
HETATM    2  C   UNL     1      -9.797  16.915  66.394  1.00  0.00    -0.305 C  
HETATM    3  C   UNL     1      -9.897  15.418  66.490  1.00  0.00    -0.288 C  
HETATM    4  O   UNL     1     -10.642  17.687  66.812  1.00  0.00    -0.313 OA 
ENDROOT
BRANCH   3   5
HETATM    5  C   UNL     1     -11.351  14.966  66.431  1.00  0.00    -0.308 C  
BRANCH   5   6
HETATM    6  C   UNL     1     -11.624  14.269  65.116  1.00  0.00    -0.355 C  
HETATM    7  O   UNL     1     -12.301  14.825  64.254  1.00  0.00    -0.571 OA 
BRANCH   6   8
HETATM    8  C   UNL     1     -11.005  12.941  64.830  1.00  0.00    -0.327 A  
HETATM    9  C   UNL     1     -10.982  11.905  65.764  1.00  0.00    -0.359 A  
HETATM   10  C   UNL     1     -10.304  10.714  65.479  1.00  0.00    -0.297 A  
HETATM   11  C   UNL     1      -9.632  10.513  64.260  1.00  0.00    -0.364 A  
HETATM   12  C   UNL     1     -10.381  12.747  63.594  1.00  0.00    -0.156 A  
HETATM   13  C   UNL     1      -9.715  11.547  63.311  1.00  0.00    -0.405 A  
BRANCH  11  14
HETATM   14  C   UNL     1      -8.834   9.285  64.020  1.00  0.00    -0.168 A  
HETATM   15  C   UNL     1      -8.549   8.373  65.053  1.00  0.00    -0.133 A  
HETATM   16  C   UNL     1      -7.715   7.269  64.845  1.00  0.00    -0.117 A  
HETATM   17  C   UNL     1      -7.164   7.037  63.591  1.00  0.00    -0.071 A  
HETATM   18  C   UNL     1      -7.452   7.904  62.542  1.00  0.00    -0.106 A  
HETATM   19  C   UNL     1      -8.274   9.015  62.757  1.00  0.00    -0.184 A  
ENDBRANCH  11  14
ENDBRANCH   6   8
ENDBRANCH   5   6
ENDBRANCH   3   5
TORSDOF 4
ENDMDL
MODEL       97
REMARK 921   NORMALIZED FREE ENERGY PREDICTED BY IDOCK:   -4.39 KCAL/MOL
REMARK 922        TOTAL FREE ENERGY PREDICTED BY IDOCK:   -6.07 KCAL/MOL
REMARK 923 INTER-LIGAND FREE ENERGY PREDICTED BY IDOCK:   -5.35 KCAL/MOL
REMARK 924 INTRA-LIGAND FREE ENERGY PREDICTED BY IDOCK:   -0.72 KCAL/MOL
REMARK 927      BINDING AFFINITY PREDICTED BY RF-SCORE:    0.00 PKD
ROOT
HETATM    1  O   UNL     1      -7.572   6.002  67.847  1.00  0.00    -0.093 OA 
HETATM    2  C   UNL     1      -7.521   6.961  68.797  1.00  0.00    -0.099 C  
HETATM    3  C   UNL     1      -8.369   6.655  69.999  1.00  0.00    -0.135 C  
HETATM    4  O   UNL     1      -6.808   7.945  68.693  1.00  0.00    -0.059 OA 
ENDROOT
BRANCH   3   5
HETATM    5  C   UNL     1      -8.841   7.939  70.672  1.00  0.00    -0.140 C  
BRANCH   5   6
HETATM    6  C   UNL     1     -10.300   8.185  70.353  1.00  0.00    -0.206 C  
HETATM    7  O   UNL     1     -11.176   7.628  71.011  1.00  0.00    -0.257 OA 
BRANCH   6   8
HETATM    8  C   UNL     1     -10.679   9.164  69.290  1.00  0.00    -0.199 A  
HETATM    9  C   UNL     1     -10.335   8.990  67.950  1.00  0.00    -0.290 A  
HETATM   10  C   UNL     1     -10.631   9.987  67.012  1.00  0.00    -0.279 A  
HETATM   11  C   UNL     1     -11.279  11.181  67.374  1.00  0.00    -0.363 A  
HETATM   12  C   UNL     1     -11.363  10.325  69.666  1.00  0.00    -0.315 A  
HETATM   13  C   UNL     1     -11.667  11.312  68.719  1.00  0.00    -0.405 A  
BRANCH  11  14
HETATM   14  C   UNL     1     -11.492  12.266  66.384  1.00  0.00    -0.434 A  
HETATM   15  C   UNL     1     -11.812  13.578  66.781  1.00  0.00    -0.450 A  
HETATM   16  C   UNL     1     -12.108  14.575  65.845  1.00  0.00    -0.288 A  
HETATM   17  C   UNL     1     -12.069  14.289  64.485  1.00  0.00    -0.499 A  
HETATM   18  C   UNL     1     -11.726  13.010  64.061  1.00  0.00    -0.497 A  
HETATM   19  C   UNL     1     -11.445  12.011  65.001  1.00  0.00    -0.343 A  
ENDBRANCH  11  14
ENDBRANCH   6   8
ENDBRANCH   5   6
ENDBRANCH   3   5
TORSDOF 4
ENDMDL
MODEL       98
REMARK 921   NORMALIZED FREE ENERGY PREDICTED BY IDOCK:   -4.38 KCAL/MOL
REMARK 922        TOTAL FREE ENERGY PREDICTED BY IDOCK:   -6.06 KCAL/MOL
REMARK 923 INTER-LIGAND FREE ENERGY PREDICTED BY IDOCK:   -5.47 KCAL/MOL
REMARK 924 INTRA-LIGAND FREE ENERGY PREDICTED BY IDOCK:   -0.58 KCAL/MOL
REMARK 927      BINDING AFFINITY PREDICTED BY RF-SCORE:    0.00 PKD
ROOT
HETATM    1  O   UNL     1     -12.603   6.339  72.175  1.00  0.00    -0.257 OA 
HETATM    2  C   UNL     1     -12.063   7.234  71.320  1.00  0.00    -0.338 C  
HETATM    3  C   UNL     1     -11.346   6.596  70.164  1.00  0.00    -0.440 C  
HETATM    4  O   UNL     1     -12.203   8.437  71.461  1.00  0.00    -0.286 OA 
ENDROOT
BRANCH   3   5
HETATM    5  C   UNL     1     -10.226   7.496  69.655  1.00  0.00    -0.205 C  
BRANCH   5   6
HETATM    6  C   UNL     1     -10.572   8.028  68.281  1.00  0.00    -0.101 C  
HETATM    7  O   UNL     1     -10.777   7.248  67.353  1.00  0.00    -0.274 OA 
BRANCH   6   8
HETATM    8  C   UNL     1     -10.745   9.496  68.069  1.00  0.00    -0.266 A  
HETATM    9  C   UNL     1     -10.467  10.117  66.852  1.00  0.00    -0.286 A  
HETATM   10  C   UNL     1     -10.554  11.510  66.736  1.00  0.00    -0.289 A  
HETATM   11  C   UNL     1     -10.921  12.326  67.821  1.00  0.00    -0.274 A  
HETATM   12  C   UNL     1     -11.155  10.283  69.150  1.00  0.00    -0.283 A  
HETATM   13  C   UNL     1     -11.252  11.675  69.022  1.00  0.00    -0.323 A  
BRANCH  11  14
HETATM   14  C   UNL     1     -10.908  13.805  67.705  1.00  0.00    -0.264 A  
HETATM   15  C   UNL     1     -10.207  14.461  66.675  1.00  0.00    -0.277 A  
HETATM   16  C   UNL     1     -10.115  15.856  66.625  1.00  0.00    -0.287 A  
HETATM   17  C   UNL     1     -10.741  16.632  67.593  1.00  0.00    -0.306 A  
HETATM   18  C   UNL     1     -11.466  16.014  68.607  1.00  0.00    -0.377 A  
HETATM   19  C   UNL     1     -11.543  14.618  68.662  1.00  0.00    -0.343 A  
ENDBRANCH  11  14
ENDBRANCH   6   8
ENDBRANCH   5   6
ENDBRANCH   3   5
TORSDOF 4
ENDMDL
MODEL       99
REMARK 921   NORMALIZED FREE ENERGY PREDICTED BY IDOCK:   -4.37 KCAL/MOL
REMARK 922        TOTAL FREE ENERGY PREDICTED BY IDOCK:   -6.05 KCAL/MOL
REMARK 923 INTER-LIGAND FREE ENERGY PREDICTED BY IDOCK:   -5.34 KCAL/MOL
REMARK 924 INTRA-LIGAND FREE ENERGY PREDICTED BY IDOCK:   -0.71 KCAL/MOL
REMARK 927      BINDING AFFINITY PREDICTED BY RF-SCORE:    0.00 PKD
ROOT
HETATM    1  O   UNL     1      -7.050   5.600  66.710  1.00  0.00    -0.067 OA 
HETATM    2  C   UNL     1      -7.510   6.567  67.532  1.00  0.00    -0.096 C  
HETATM    3  C   UNL     1      -8.627   6.108  68.427  1.00  0.00    -0.112 C  
HETATM    4  O   UNL     1      -7.017   7.682  67.568  1.00  0.00    -0.076 OA 
ENDROOT
BRANCH   3   5
HETATM    5  C   UNL     1      -9.544   7.270  68.790  1.00  0.00    -0.142 C  
BRANCH   5   6
HETATM    6  C   UNL     1     -10.391   7.654  67.597  1.00  0.00    -0.237 C  
HETATM    7  O   UNL     1     -11.090   6.810  67.040  1.00  0.00    -0.403 OA 
BRANCH   6   8
HETATM    8  C   UNL     1     -10.442   9.076  67.143  1.00  0.00    -0.333 A  
HETATM    9  C   UNL     1     -11.088  10.075  67.870  1.00  0.00    -0.260 A  
HETATM   10  C   UNL     1     -11.188  11.372  67.350  1.00  0.00    -0.370 A  
HETATM   11  C   UNL     1     -10.649  11.716  66.098  1.00  0.00    -0.306 A  
HETATM   12  C   UNL     1      -9.860   9.406  65.914  1.00  0.00    -0.362 A  
HETATM   13  C   UNL     1      -9.954  10.708  65.407  1.00  0.00    -0.343 A  
BRANCH  11  14
HETATM   14  C   UNL     1     -10.855  13.067  65.522  1.00  0.00    -0.298 A  
HETATM   15  C   UNL     1      -9.997  14.141  65.824  1.00  0.00    -0.331 A  
HETATM   16  C   UNL     1     -10.250  15.436  65.358  1.00  0.00    -0.408 A  
HETATM   17  C   UNL     1     -11.359  15.685  64.557  1.00  0.00    -0.327 A  
HETATM   18  C   UNL     1     -12.209  14.638  64.216  1.00  0.00    -0.432 A  
HETATM   19  C   UNL     1     -11.961  13.348  64.697  1.00  0.00    -0.441 A  
ENDBRANCH  11  14
ENDBRANCH   6   8
ENDBRANCH   5   6
ENDBRANCH   3   5
TORSDOF 4
ENDMDL
MODEL      100
REMARK 921   NORMALIZED FREE ENERGY PREDICTED BY IDOCK:   -4.36 KCAL/MOL
REMARK 922        TOTAL FREE ENERGY PREDICTED BY IDOCK:   -6.04 KCAL/MOL
REMARK 923 INTER-LIGAND FREE ENERGY PREDICTED BY IDOCK:   -5.26 KCAL/MOL
REMARK 924 INTRA-LIGAND FREE ENERGY PREDICTED BY IDOCK:   -0.78 KCAL/MOL
REMARK 927      BINDING AFFINITY PREDICTED BY RF-SCORE:    0.00 PKD
ROOT
HETATM    1  O   UNL     1     -12.501   8.539  72.524  1.00  0.00    -0.383 OA 
HETATM    2  C   UNL     1     -11.266   8.022  72.700  1.00  0.00    -0.397 C  
HETATM    3  C   UNL     1     -10.198   8.753  71.935  1.00  0.00    -0.415 C  
HETATM    4  O   UNL     1     -11.051   7.088  73.454  1.00  0.00    -0.262 OA 
ENDROOT
BRANCH   3   5
HETATM    5  C   UNL     1      -9.045   7.820  71.586  1.00  0.00    -0.163 C  
BRANCH   5   6
HETATM    6  C   UNL     1      -9.372   7.039  70.332  1.00  0.00    -0.159 C  
HETATM    7  O   UNL     1      -9.705   5.859  70.411  1.00  0.00    -0.167 OA 
BRANCH   6   8
HETATM    8  C   UNL     1      -9.369   7.721  69.004  1.00  0.00    -0.150 A  
HETATM    9  C   UNL     1      -8.377   8.625  68.624  1.00  0.00    -0.122 A  
HETATM   10  C   UNL     1      -8.475   9.308  67.406  1.00  0.00    -0.122 A  
HETATM   11  C   UNL     1      -9.556   9.114  66.528  1.00  0.00    -0.289 A  
HETATM   12  C   UNL     1     -10.431   7.479  68.126  1.00  0.00    -0.233 A  
HETATM   13  C   UNL     1     -10.516   8.158  66.904  1.00  0.00    -0.379 A  
BRANCH  11  14
HETATM   14  C   UNL     1      -9.692   9.923  65.292  1.00  0.00    -0.383 A  
HETATM   15  C   UNL     1      -8.997   9.597  64.113  1.00  0.00    -0.269 A  
HETATM   16  C   UNL     1      -9.051  10.416  62.980  1.00  0.00    -0.279 A  
HETATM   17  C   UNL     1      -9.821  11.573  62.991  1.00  0.00    -0.367 A  
HETATM   18  C   UNL     1     -10.544  11.907  64.132  1.00  0.00    -0.397 A  
HETATM   19  C   UNL     1     -10.475  11.093  65.268  1.00  0.00    -0.326 A  
ENDBRANCH  11  14
ENDBRANCH   6   8
ENDBRANCH   5   6
ENDBRANCH   3   5
TORSDOF 4
ENDMDL
MODEL      101
REMARK 921   NORMALIZED FREE ENERGY PREDICTED BY IDOCK:   -4.36 KCAL/MOL
REMARK 922        TOTAL FREE ENERGY PREDICTED BY IDOCK:   -6.04 KCAL/MOL
REMARK 923 INTER-LIGAND FREE ENERGY PREDICTED BY IDOCK:   -5.44 KCAL/MOL
REMARK 924 INTRA-LIGAND FREE ENERGY PREDICTED BY IDOCK:   -0.60 KCAL/MOL
REMARK 927      BINDING AFFINITY PREDICTED BY RF-SCORE:    0.00 PKD
ROOT
HETATM    1  O   UNL     1     -10.405   8.206  70.715  1.00  0.00    -0.194 OA 
HETATM    2  C   UNL     1     -11.163   9.299  70.482  1.00  0.00    -0.265 C  
HETATM    3  C   UNL     1     -10.781  10.032  69.227  1.00  0.00    -0.249 C  
HETATM    4  O   UNL     1     -12.096   9.612  71.202  1.00  0.00    -0.316 OA 
ENDROOT
BRANCH   3   5
HETATM    5  C   UNL     1     -11.111  11.516  69.342  1.00  0.00    -0.287 C  
BRANCH   5   6
HETATM    6  C   UNL     1     -11.298  12.113  67.965  1.00  0.00    -0.295 C  
HETATM    7  O   UNL     1     -12.140  11.646  67.200  1.00  0.00    -0.575 OA 
BRANCH   6   8
HETATM    8  C   UNL     1     -10.518  13.321  67.561  1.00  0.00    -0.237 A  
HETATM    9  C   UNL     1      -9.124  13.360  67.588  1.00  0.00    -0.203 A  
HETATM   10  C   UNL     1      -8.447  14.549  67.292  1.00  0.00    -0.234 A  
HETATM   11  C   UNL     1      -9.129  15.732  66.958  1.00  0.00    -0.240 A  
HETATM   12  C   UNL     1     -11.217  14.474  67.188  1.00  0.00    -0.341 A  
HETATM   13  C   UNL     1     -10.532  15.656  66.881  1.00  0.00    -0.307 A  
BRANCH  11  14
HETATM   14  C   UNL     1      -8.397  17.004  66.748  1.00  0.00    -0.267 A  
HETATM   15  C   UNL     1      -9.071  18.231  66.602  1.00  0.00    -0.294 A  
HETATM   16  C   UNL     1      -8.384  19.414  66.306  1.00  0.00    -0.346 A  
HETATM   17  C   UNL     1      -7.001  19.402  66.171  1.00  0.00    -0.264 A  
HETATM   18  C   UNL     1      -6.303  18.211  66.339  1.00  0.00    -0.240 A  
HETATM   19  C   UNL     1      -6.995  17.027  66.620  1.00  0.00    -0.284 A  
ENDBRANCH  11  14
ENDBRANCH   6   8
ENDBRANCH   5   6
ENDBRANCH   3   5
TORSDOF 4
ENDMDL
MODEL      102
REMARK 921   NORMALIZED FREE ENERGY PREDICTED BY IDOCK:   -4.35 KCAL/MOL
REMARK 922        TOTAL FREE ENERGY PREDICTED BY IDOCK:   -6.03 KCAL/MOL
REMARK 923 INTER-LIGAND FREE ENERGY PREDICTED BY IDOCK:   -5.42 KCAL/MOL
REMARK 924 INTRA-LIGAND FREE ENERGY PREDICTED BY IDOCK:   -0.61 KCAL/MOL
REMARK 927      BINDING AFFINITY PREDICTED BY RF-SCORE:    0.00 PKD
ROOT
HETATM    1  O   UNL     1     -11.438  12.697  64.460  1.00  0.00    -0.311 OA 
HETATM    2  C   UNL     1     -11.402  12.491  65.794  1.00  0.00    -0.336 C  
HETATM    3  C   UNL     1     -10.048  12.074  66.296  1.00  0.00    -0.247 C  
HETATM    4  O   UNL     1     -12.370  12.682  66.510  1.00  0.00    -0.500 OA 
ENDROOT
BRANCH   3   5
HETATM    5  C   UNL     1     -10.174  11.217  67.550  1.00  0.00    -0.216 C  
BRANCH   5   6
HETATM    6  C   UNL     1     -10.163   9.750  67.178  1.00  0.00    -0.228 C  
HETATM    7  O   UNL     1      -9.907   9.409  66.025  1.00  0.00    -0.269 OA 
BRANCH   6   8
HETATM    8  C   UNL     1     -10.385   8.711  68.227  1.00  0.00    -0.252 A  
HETATM    9  C   UNL     1     -10.448   9.016  69.586  1.00  0.00    -0.227 A  
HETATM   10  C   UNL     1     -10.561   7.991  70.534  1.00  0.00    -0.222 A  
HETATM   11  C   UNL     1     -10.617   6.636  70.163  1.00  0.00    -0.264 A  
HETATM   12  C   UNL     1     -10.483   7.373  67.832  1.00  0.00    -0.265 A  
HETATM   13  C   UNL     1     -10.608   6.354  68.785  1.00  0.00    -0.295 A  
BRANCH  11  14
HETATM   14  C   UNL     1     -10.633   5.562  71.186  1.00  0.00    -0.303 A  
HETATM   15  C   UNL     1     -11.363   5.690  72.382  1.00  0.00    -0.327 A  
HETATM   16  C   UNL     1     -11.298   4.719  73.388  1.00  0.00    -0.397 A  
HETATM   17  C   UNL     1     -10.516   3.583  73.211  1.00  0.00    -0.262 A  
HETATM   18  C   UNL     1      -9.806   3.414  72.027  1.00  0.00    -0.239 A  
HETATM   19  C   UNL     1      -9.862   4.395  71.030  1.00  0.00    -0.260 A  
ENDBRANCH  11  14
ENDBRANCH   6   8
ENDBRANCH   5   6
ENDBRANCH   3   5
TORSDOF 4
ENDMDL
MODEL      103
REMARK 921   NORMALIZED FREE ENERGY PREDICTED BY IDOCK:   -4.33 KCAL/MOL
REMARK 922        TOTAL FREE ENERGY PREDICTED BY IDOCK:   -6.01 KCAL/MOL
REMARK 923 INTER-LIGAND FREE ENERGY PREDICTED BY IDOCK:   -5.40 KCAL/MOL
REMARK 924 INTRA-LIGAND FREE ENERGY PREDICTED BY IDOCK:   -0.60 KCAL/MOL
REMARK 927      BINDING AFFINITY PREDICTED BY RF-SCORE:    0.00 PKD
ROOT
HETATM    1  O   UNL     1      -8.735   7.390  67.275  1.00  0.00    -0.120 OA 
HETATM    2  C   UNL     1      -9.806   8.075  66.818  1.00  0.00    -0.257 C  
HETATM    3  C   UNL     1      -9.453   9.418  66.242  1.00  0.00    -0.273 C  
HETATM    4  O   UNL     1     -10.932   7.609  66.832  1.00  0.00    -0.253 OA 
ENDROOT
BRANCH   3   5
HETATM    5  C   UNL     1     -10.614  10.394  66.388  1.00  0.00    -0.198 C  
BRANCH   5   6
HETATM    6  C   UNL     1     -10.546  11.446  65.303  1.00  0.00    -0.277 C  
HETATM    7  O   UNL     1     -10.767  11.141  64.134  1.00  0.00    -0.368 OA 
BRANCH   6   8
HETATM    8  C   UNL     1     -10.287  12.873  65.661  1.00  0.00    -0.295 A  
HETATM    9  C   UNL     1     -11.155  13.906  65.307  1.00  0.00    -0.318 A  
HETATM   10  C   UNL     1     -10.816  15.236  65.584  1.00  0.00    -0.371 A  
HETATM   11  C   UNL     1      -9.611  15.581  66.221  1.00  0.00    -0.338 A  
HETATM   12  C   UNL     1      -9.103  13.189  66.335  1.00  0.00    -0.069 A  
HETATM   13  C   UNL     1      -8.777  14.521  66.619  1.00  0.00    -0.162 A  
BRANCH  11  14
HETATM   14  C   UNL     1      -9.225  17.001  66.412  1.00  0.00    -0.298 A  
HETATM   15  C   UNL     1     -10.187  18.012  66.587  1.00  0.00    -0.375 A  
HETATM   16  C   UNL     1      -9.826  19.362  66.668  1.00  0.00    -0.462 A  
HETATM   17  C   UNL     1      -8.487  19.731  66.599  1.00  0.00    -0.371 A  
HETATM   18  C   UNL     1      -7.510  18.751  66.456  1.00  0.00    -0.260 A  
HETATM   19  C   UNL     1      -7.877  17.404  66.360  1.00  0.00    -0.337 A  
ENDBRANCH  11  14
ENDBRANCH   6   8
ENDBRANCH   5   6
ENDBRANCH   3   5
TORSDOF 4
ENDMDL
MODEL      104
REMARK 921   NORMALIZED FREE ENERGY PREDICTED BY IDOCK:   -4.33 KCAL/MOL
REMARK 922        TOTAL FREE ENERGY PREDICTED BY IDOCK:   -6.00 KCAL/MOL
REMARK 923 INTER-LIGAND FREE ENERGY PREDICTED BY IDOCK:   -5.70 KCAL/MOL
REMARK 924 INTRA-LIGAND FREE ENERGY PREDICTED BY IDOCK:   -0.30 KCAL/MOL
REMARK 927      BINDING AFFINITY PREDICTED BY RF-SCORE:    0.00 PKD
ROOT
HETATM    1  O   UNL     1      -6.662   7.861  64.771  1.00  0.00    -0.051 OA 
HETATM    2  C   UNL     1      -7.488   8.164  63.747  1.00  0.00    -0.120 C  
HETATM    3  C   UNL     1      -7.749   9.638  63.607  1.00  0.00    -0.129 C  
HETATM    4  O   UNL     1      -7.924   7.315  62.988  1.00  0.00    -0.134 OA 
ENDROOT
BRANCH   3   5
HETATM    5  C   UNL     1      -9.117   9.890  62.983  1.00  0.00    -0.291 C  
BRANCH   5   6
HETATM    6  C   UNL     1      -9.860  10.944  63.774  1.00  0.00    -0.337 C  
HETATM    7  O   UNL     1     -10.293  11.947  63.210  1.00  0.00    -0.424 OA 
BRANCH   6   8
HETATM    8  C   UNL     1     -10.139  10.732  65.226  1.00  0.00    -0.353 A  
HETATM    9  C   UNL     1      -9.905   9.516  65.866  1.00  0.00    -0.360 A  
HETATM   10  C   UNL     1     -10.276   9.342  67.206  1.00  0.00    -0.308 A  
HETATM   11  C   UNL     1     -10.885  10.368  67.949  1.00  0.00    -0.331 A  
HETATM   12  C   UNL     1     -10.704  11.781  65.958  1.00  0.00    -0.324 A  
HETATM   13  C   UNL     1     -11.060  11.604  67.301  1.00  0.00    -0.346 A  
BRANCH  11  14
HETATM   14  C   UNL     1     -11.362  10.131  69.334  1.00  0.00    -0.233 A  
HETATM   15  C   UNL     1     -10.926   9.025  70.087  1.00  0.00    -0.256 A  
HETATM   16  C   UNL     1     -11.452   8.749  71.355  1.00  0.00    -0.366 A  
HETATM   17  C   UNL     1     -12.412   9.588  71.910  1.00  0.00    -0.465 A  
HETATM   18  C   UNL     1     -12.840  10.706  71.201  1.00  0.00    -0.518 A  
HETATM   19  C   UNL     1     -12.323  10.970  69.928  1.00  0.00    -0.356 A  
ENDBRANCH  11  14
ENDBRANCH   6   8
ENDBRANCH   5   6
ENDBRANCH   3   5
TORSDOF 4
ENDMDL
MODEL      105
REMARK 921   NORMALIZED FREE ENERGY PREDICTED BY IDOCK:   -4.29 KCAL/MOL
REMARK 922        TOTAL FREE ENERGY PREDICTED BY IDOCK:   -5.96 KCAL/MOL
REMARK 923 INTER-LIGAND FREE ENERGY PREDICTED BY IDOCK:   -5.39 KCAL/MOL
REMARK 924 INTRA-LIGAND FREE ENERGY PREDICTED BY IDOCK:   -0.56 KCAL/MOL
REMARK 927      BINDING AFFINITY PREDICTED BY RF-SCORE:    0.00 PKD
ROOT
HETATM    1  O   UNL     1     -12.650  13.967  63.411  1.00  0.00    -0.845 OA 
HETATM    2  C   UNL     1     -12.193  12.838  63.994  1.00  0.00    -0.441 C  
HETATM    3  C   UNL     1     -11.938  12.989  65.468  1.00  0.00    -0.470 C  
HETATM    4  O   UNL     1     -12.060  11.794  63.379  1.00  0.00    -0.491 OA 
ENDROOT
BRANCH   3   5
HETATM    5  C   UNL     1     -10.841  12.037  65.929  1.00  0.00    -0.329 C  
BRANCH   5   6
HETATM    6  C   UNL     1     -10.440  12.359  67.352  1.00  0.00    -0.215 C  
HETATM    7  O   UNL     1     -10.355  13.530  67.718  1.00  0.00    -0.234 OA 
BRANCH   6   8
HETATM    8  C   UNL     1     -10.226  11.257  68.337  1.00  0.00    -0.205 A  
HETATM    9  C   UNL     1     -11.211  10.317  68.639  1.00  0.00    -0.263 A  
HETATM   10  C   UNL     1     -10.990   9.363  69.641  1.00  0.00    -0.216 A  
HETATM   11  C   UNL     1      -9.789   9.311  70.369  1.00  0.00    -0.290 A  
HETATM   12  C   UNL     1      -9.006  11.197  69.017  1.00  0.00    -0.027 A  
HETATM   13  C   UNL     1      -8.788  10.232  70.009  1.00  0.00     0.120 A  
BRANCH  11  14
HETATM   14  C   UNL     1      -9.616   8.360  71.494  1.00  0.00    -0.273 A  
HETATM   15  C   UNL     1      -8.526   7.472  71.551  1.00  0.00    -0.120 A  
HETATM   16  C   UNL     1      -8.418   6.509  72.561  1.00  0.00    -0.121 A  
HETATM   17  C   UNL     1      -9.388   6.427  73.553  1.00  0.00    -0.145 A  
HETATM   18  C   UNL     1     -10.461   7.311  73.541  1.00  0.00    -0.421 A  
HETATM   19  C   UNL     1     -10.574   8.262  72.520  1.00  0.00    -0.407 A  
ENDBRANCH  11  14
ENDBRANCH   6   8
ENDBRANCH   5   6
ENDBRANCH   3   5
TORSDOF 4
ENDMDL
MODEL      106
REMARK 921   NORMALIZED FREE ENERGY PREDICTED BY IDOCK:   -4.29 KCAL/MOL
REMARK 922        TOTAL FREE ENERGY PREDICTED BY IDOCK:   -5.96 KCAL/MOL
REMARK 923 INTER-LIGAND FREE ENERGY PREDICTED BY IDOCK:   -5.37 KCAL/MOL
REMARK 924 INTRA-LIGAND FREE ENERGY PREDICTED BY IDOCK:   -0.58 KCAL/MOL
REMARK 927      BINDING AFFINITY PREDICTED BY RF-SCORE:    0.00 PKD
ROOT
HETATM    1  O   UNL     1     -11.550  15.091  64.521  1.00  0.00    -0.391 OA 
HETATM    2  C   UNL     1     -12.261  14.305  65.358  1.00  0.00    -0.405 C  
HETATM    3  C   UNL     1     -11.553  14.019  66.653  1.00  0.00    -0.400 C  
HETATM    4  O   UNL     1     -13.387  13.921  65.093  1.00  0.00    -0.698 OA 
ENDROOT
BRANCH   3   5
HETATM    5  C   UNL     1     -11.989  12.675  67.225  1.00  0.00    -0.321 C  
BRANCH   5   6
HETATM    6  C   UNL     1     -10.897  12.108  68.105  1.00  0.00    -0.222 C  
HETATM    7  O   UNL     1     -10.299  12.838  68.893  1.00  0.00    -0.159 OA 
BRANCH   6   8
HETATM    8  C   UNL     1     -10.597  10.646  68.076  1.00  0.00    -0.248 A  
HETATM    9  C   UNL     1     -10.425   9.937  66.887  1.00  0.00    -0.284 A  
HETATM   10  C   UNL     1     -10.242   8.549  66.915  1.00  0.00    -0.375 A  
HETATM   11  C   UNL     1     -10.219   7.824  68.120  1.00  0.00    -0.244 A  
HETATM   12  C   UNL     1     -10.534   9.952  69.289  1.00  0.00    -0.240 A  
HETATM   13  C   UNL     1     -10.337   8.565  69.309  1.00  0.00    -0.227 A  
BRANCH  11  14
HETATM   14  C   UNL     1     -10.126   6.344  68.121  1.00  0.00    -0.167 A  
HETATM   15  C   UNL     1      -9.910   5.616  69.306  1.00  0.00    -0.230 A  
HETATM   16  C   UNL     1      -9.725   4.229  69.292  1.00  0.00    -0.240 A  
HETATM   17  C   UNL     1      -9.774   3.532  68.090  1.00  0.00    -0.073 A  
HETATM   18  C   UNL     1     -10.016   4.219  66.905  1.00  0.00    -0.178 A  
HETATM   19  C   UNL     1     -10.185   5.608  66.923  1.00  0.00    -0.272 A  
ENDBRANCH  11  14
ENDBRANCH   6   8
ENDBRANCH   5   6
ENDBRANCH   3   5
TORSDOF 4
ENDMDL
MODEL      107
REMARK 921   NORMALIZED FREE ENERGY PREDICTED BY IDOCK:   -4.24 KCAL/MOL
REMARK 922        TOTAL FREE ENERGY PREDICTED BY IDOCK:   -5.90 KCAL/MOL
REMARK 923 INTER-LIGAND FREE ENERGY PREDICTED BY IDOCK:   -5.28 KCAL/MOL
REMARK 924 INTRA-LIGAND FREE ENERGY PREDICTED BY IDOCK:   -0.62 KCAL/MOL
REMARK 927      BINDING AFFINITY PREDICTED BY RF-SCORE:    0.00 PKD
ROOT
HETATM    1  O   UNL     1      -6.723  16.657  66.213  1.00  0.00    -0.162 OA 
HETATM    2  C   UNL     1      -8.018  16.764  66.583  1.00  0.00    -0.271 C  
HETATM    3  C   UNL     1      -8.752  15.453  66.570  1.00  0.00    -0.335 C  
HETATM    4  O   UNL     1      -8.508  17.821  66.942  1.00  0.00    -0.227 OA 
ENDROOT
BRANCH   3   5
HETATM    5  C   UNL     1     -10.237  15.664  66.301  1.00  0.00    -0.312 C  
BRANCH   5   6
HETATM    6  C   UNL     1     -11.054  15.122  67.453  1.00  0.00    -0.325 C  
HETATM    7  O   UNL     1     -11.759  15.879  68.118  1.00  0.00    -0.292 OA 
BRANCH   6   8
HETATM    8  C   UNL     1     -11.069  13.656  67.735  1.00  0.00    -0.293 A  
HETATM    9  C   UNL     1     -11.195  13.139  69.024  1.00  0.00    -0.309 A  
HETATM   10  C   UNL     1     -11.106  11.758  69.241  1.00  0.00    -0.278 A  
HETATM   11  C   UNL     1     -10.893  10.851  68.189  1.00  0.00    -0.283 A  
HETATM   12  C   UNL     1     -10.901  12.769  66.667  1.00  0.00    -0.288 A  
HETATM   13  C   UNL     1     -10.825  11.388  66.891  1.00  0.00    -0.335 A  
BRANCH  11  14
HETATM   14  C   UNL     1     -10.700   9.404  68.453  1.00  0.00    -0.213 A  
HETATM   15  C   UNL     1     -10.632   8.463  67.409  1.00  0.00    -0.313 A  
HETATM   16  C   UNL     1     -10.549   7.089  67.664  1.00  0.00    -0.327 A  
HETATM   17  C   UNL     1     -10.508   6.624  68.973  1.00  0.00    -0.243 A  
HETATM   18  C   UNL     1     -10.542   7.532  70.027  1.00  0.00    -0.242 A  
HETATM   19  C   UNL     1     -10.641   8.904  69.767  1.00  0.00    -0.230 A  
ENDBRANCH  11  14
ENDBRANCH   6   8
ENDBRANCH   5   6
ENDBRANCH   3   5
TORSDOF 4
ENDMDL
MODEL      108
REMARK 921   NORMALIZED FREE ENERGY PREDICTED BY IDOCK:   -4.21 KCAL/MOL
REMARK 922        TOTAL FREE ENERGY PREDICTED BY IDOCK:   -5.86 KCAL/MOL
REMARK 923 INTER-LIGAND FREE ENERGY PREDICTED BY IDOCK:   -5.25 KCAL/MOL
REMARK 924 INTRA-LIGAND FREE ENERGY PREDICTED BY IDOCK:   -0.61 KCAL/MOL
REMARK 927      BINDING AFFINITY PREDICTED BY RF-SCORE:    0.00 PKD
ROOT
HETATM    1  O   UNL     1     -11.838  15.880  70.325  1.00  0.00    -0.344 OA 
HETATM    2  C   UNL     1     -11.644  15.168  69.194  1.00  0.00    -0.323 C  
HETATM    3  C   UNL     1     -11.547  13.687  69.431  1.00  0.00    -0.368 C  
HETATM    4  O   UNL     1     -11.609  15.691  68.093  1.00  0.00    -0.353 OA 
ENDROOT
BRANCH   3   5
HETATM    5  C   UNL     1     -10.682  13.023  68.366  1.00  0.00    -0.273 C  
BRANCH   5   6
HETATM    6  C   UNL     1     -11.371  11.783  67.839  1.00  0.00    -0.292 C  
HETATM    7  O   UNL     1     -12.124  11.862  66.871  1.00  0.00    -0.599 OA 
BRANCH   6   8
HETATM    8  C   UNL     1     -11.076  10.449  68.443  1.00  0.00    -0.322 A  
HETATM    9  C   UNL     1     -11.436  10.118  69.748  1.00  0.00    -0.288 A  
HETATM   10  C   UNL     1     -11.050   8.889  70.296  1.00  0.00    -0.251 A  
HETATM   11  C   UNL     1     -10.298   7.951  69.565  1.00  0.00    -0.217 A  
HETATM   12  C   UNL     1     -10.366   9.514  67.682  1.00  0.00    -0.299 A  
HETATM   13  C   UNL     1      -9.994   8.281  68.233  1.00  0.00    -0.217 A  
BRANCH  11  14
HETATM   14  C   UNL     1      -9.812   6.701  70.198  1.00  0.00    -0.180 A  
HETATM   15  C   UNL     1      -8.711   5.991  69.684  1.00  0.00    -0.133 A  
HETATM   16  C   UNL     1      -8.316   4.761  70.222  1.00  0.00    -0.083 A  
HETATM   17  C   UNL     1      -9.001   4.221  71.305  1.00  0.00    -0.168 A  
HETATM   18  C   UNL     1     -10.075   4.914  71.854  1.00  0.00    -0.262 A  
HETATM   19  C   UNL     1     -10.477   6.136  71.303  1.00  0.00    -0.274 A  
ENDBRANCH  11  14
ENDBRANCH   6   8
ENDBRANCH   5   6
ENDBRANCH   3   5
TORSDOF 4
ENDMDL
MODEL      109
REMARK 921   NORMALIZED FREE ENERGY PREDICTED BY IDOCK:   -4.21 KCAL/MOL
REMARK 922        TOTAL FREE ENERGY PREDICTED BY IDOCK:   -5.85 KCAL/MOL
REMARK 923 INTER-LIGAND FREE ENERGY PREDICTED BY IDOCK:   -5.29 KCAL/MOL
REMARK 924 INTRA-LIGAND FREE ENERGY PREDICTED BY IDOCK:   -0.56 KCAL/MOL
REMARK 927      BINDING AFFINITY PREDICTED BY RF-SCORE:    0.00 PKD
ROOT
HETATM    1  O   UNL     1      -9.476   5.575  66.990  1.00  0.00    -0.123 OA 
HETATM    2  C   UNL     1     -10.245   6.676  66.847  1.00  0.00    -0.220 C  
HETATM    3  C   UNL     1      -9.625   7.726  65.968  1.00  0.00    -0.006 C  
HETATM    4  O   UNL     1     -11.354   6.766  67.344  1.00  0.00    -0.274 OA 
ENDROOT
BRANCH   3   5
HETATM    5  C   UNL     1     -10.106   9.118  66.362  1.00  0.00    -0.345 C  
BRANCH   5   6
HETATM    6  C   UNL     1      -9.707  10.123  65.305  1.00  0.00    -0.300 C  
HETATM    7  O   UNL     1      -9.461   9.747  64.160  1.00  0.00    -0.253 OA 
BRANCH   6   8
HETATM    8  C   UNL     1      -9.689  11.581  65.627  1.00  0.00    -0.261 A  
HETATM    9  C   UNL     1      -9.016  12.098  66.734  1.00  0.00    -0.203 A  
HETATM   10  C   UNL     1      -9.113  13.460  67.043  1.00  0.00    -0.245 A  
HETATM   11  C   UNL     1      -9.874  14.349  66.264  1.00  0.00    -0.321 A  
HETATM   12  C   UNL     1     -10.417  12.454  64.812  1.00  0.00    -0.333 A  
HETATM   13  C   UNL     1     -10.499  13.818  65.121  1.00  0.00    -0.399 A  
BRANCH  11  14
HETATM   14  C   UNL     1     -10.046  15.766  66.668  1.00  0.00    -0.287 A  
HETATM   15  C   UNL     1     -10.137  16.146  68.020  1.00  0.00    -0.242 A  
HETATM   16  C   UNL     1     -10.396  17.469  68.394  1.00  0.00    -0.378 A  
HETATM   17  C   UNL     1     -10.549  18.451  67.422  1.00  0.00    -0.445 A  
HETATM   18  C   UNL     1     -10.435  18.113  66.078  1.00  0.00    -0.346 A  
HETATM   19  C   UNL     1     -10.190  16.786  65.708  1.00  0.00    -0.311 A  
ENDBRANCH  11  14
ENDBRANCH   6   8
ENDBRANCH   5   6
ENDBRANCH   3   5
TORSDOF 4
ENDMDL
MODEL      110
REMARK 921   NORMALIZED FREE ENERGY PREDICTED BY IDOCK:   -4.21 KCAL/MOL
REMARK 922        TOTAL FREE ENERGY PREDICTED BY IDOCK:   -5.85 KCAL/MOL
REMARK 923 INTER-LIGAND FREE ENERGY PREDICTED BY IDOCK:   -5.21 KCAL/MOL
REMARK 924 INTRA-LIGAND FREE ENERGY PREDICTED BY IDOCK:   -0.64 KCAL/MOL
REMARK 927      BINDING AFFINITY PREDICTED BY RF-SCORE:    0.00 PKD
ROOT
HETATM    1  O   UNL     1      -8.064  19.681  68.476  1.00  0.00    -0.336 OA 
HETATM    2  C   UNL     1      -9.321  19.208  68.623  1.00  0.00    -0.388 C  
HETATM    3  C   UNL     1      -9.430  17.726  68.395  1.00  0.00    -0.297 C  
HETATM    4  O   UNL     1     -10.250  19.920  68.961  1.00  0.00    -0.432 OA 
ENDROOT
BRANCH   3   5
HETATM    5  C   UNL     1     -10.819  17.356  67.887  1.00  0.00    -0.270 C  
BRANCH   5   6
HETATM    6  C   UNL     1     -11.252  16.034  68.483  1.00  0.00    -0.374 C  
HETATM    7  O   UNL     1     -12.051  16.012  69.417  1.00  0.00    -0.279 OA 
BRANCH   6   8
HETATM    8  C   UNL     1     -10.774  14.752  67.885  1.00  0.00    -0.259 A  
HETATM    9  C   UNL     1     -11.207  14.294  66.641  1.00  0.00    -0.337 A  
HETATM   10  C   UNL     1     -10.800  13.039  66.172  1.00  0.00    -0.296 A  
HETATM   11  C   UNL     1      -9.952  12.203  66.919  1.00  0.00    -0.217 A  
HETATM   12  C   UNL     1      -9.894  13.957  68.627  1.00  0.00    -0.175 A  
HETATM   13  C   UNL     1      -9.482  12.707  68.145  1.00  0.00    -0.218 A  
BRANCH  11  14
HETATM   14  C   UNL     1      -9.617  10.836  66.449  1.00  0.00    -0.226 A  
HETATM   15  C   UNL     1      -8.904  10.617  65.256  1.00  0.00    -0.204 A  
HETATM   16  C   UNL     1      -8.675   9.327  64.765  1.00  0.00    -0.220 A  
HETATM   17  C   UNL     1      -9.135   8.221  65.471  1.00  0.00    -0.065 A  
HETATM   18  C   UNL     1      -9.816   8.404  66.669  1.00  0.00    -0.343 A  
HETATM   19  C   UNL     1     -10.057   9.697  67.149  1.00  0.00    -0.276 A  
ENDBRANCH  11  14
ENDBRANCH   6   8
ENDBRANCH   5   6
ENDBRANCH   3   5
TORSDOF 4
ENDMDL
MODEL      111
REMARK 921   NORMALIZED FREE ENERGY PREDICTED BY IDOCK:   -4.19 KCAL/MOL
REMARK 922        TOTAL FREE ENERGY PREDICTED BY IDOCK:   -5.83 KCAL/MOL
REMARK 923 INTER-LIGAND FREE ENERGY PREDICTED BY IDOCK:   -5.10 KCAL/MOL
REMARK 924 INTRA-LIGAND FREE ENERGY PREDICTED BY IDOCK:   -0.72 KCAL/MOL
REMARK 927      BINDING AFFINITY PREDICTED BY RF-SCORE:    0.00 PKD
ROOT
HETATM    1  O   UNL     1      -6.187  20.281  70.809  1.00  0.00    -0.479 OA 
HETATM    2  C   UNL     1      -6.228  20.447  69.469  1.00  0.00    -0.284 C  
HETATM    3  C   UNL     1      -7.403  19.770  68.820  1.00  0.00    -0.339 C  
HETATM    4  O   UNL     1      -5.412  21.127  68.872  1.00  0.00    -0.335 OA 
ENDROOT
BRANCH   3   5
HETATM    5  C   UNL     1      -7.078  19.376  67.384  1.00  0.00    -0.232 C  
BRANCH   5   6
HETATM    6  C   UNL     1      -6.437  18.006  67.356  1.00  0.00    -0.169 C  
HETATM    7  O   UNL     1      -5.212  17.899  67.360  1.00  0.00    -0.131 OA 
BRANCH   6   8
HETATM    8  C   UNL     1      -7.288  16.780  67.403  1.00  0.00    -0.187 A  
HETATM    9  C   UNL     1      -8.115  16.398  66.347  1.00  0.00    -0.357 A  
HETATM   10  C   UNL     1      -8.965  15.293  66.482  1.00  0.00    -0.340 A  
HETATM   11  C   UNL     1      -9.018  14.534  67.665  1.00  0.00    -0.193 A  
HETATM   12  C   UNL     1      -7.292  16.015  68.573  1.00  0.00    -0.146 A  
HETATM   13  C   UNL     1      -8.136  14.903  68.696  1.00  0.00    -0.151 A  
BRANCH  11  14
HETATM   14  C   UNL     1      -9.998  13.432  67.823  1.00  0.00    -0.233 A  
HETATM   15  C   UNL     1     -10.982  13.455  68.829  1.00  0.00    -0.290 A  
HETATM   16  C   UNL     1     -11.841  12.371  69.039  1.00  0.00    -0.349 A  
HETATM   17  C   UNL     1     -11.751  11.243  68.231  1.00  0.00    -0.344 A  
HETATM   18  C   UNL     1     -10.809  11.203  67.209  1.00  0.00    -0.326 A  
HETATM   19  C   UNL     1      -9.941  12.283  67.012  1.00  0.00    -0.220 A  
ENDBRANCH  11  14
ENDBRANCH   6   8
ENDBRANCH   5   6
ENDBRANCH   3   5
TORSDOF 4
ENDMDL
MODEL      112
REMARK 921   NORMALIZED FREE ENERGY PREDICTED BY IDOCK:   -4.17 KCAL/MOL
REMARK 922        TOTAL FREE ENERGY PREDICTED BY IDOCK:   -5.80 KCAL/MOL
REMARK 923 INTER-LIGAND FREE ENERGY PREDICTED BY IDOCK:   -5.03 KCAL/MOL
REMARK 924 INTRA-LIGAND FREE ENERGY PREDICTED BY IDOCK:   -0.77 KCAL/MOL
REMARK 927      BINDING AFFINITY PREDICTED BY RF-SCORE:    0.00 PKD
ROOT
HETATM    1  O   UNL     1      -6.514   8.791  71.105  1.00  0.00    -0.048 OA 
HETATM    2  C   UNL     1      -7.555   8.346  71.842  1.00  0.00    -0.115 C  
HETATM    3  C   UNL     1      -8.256   7.165  71.232  1.00  0.00    -0.108 C  
HETATM    4  O   UNL     1      -7.847   8.835  72.920  1.00  0.00    -0.381 OA 
ENDROOT
BRANCH   3   5
HETATM    5  C   UNL     1      -9.723   7.131  71.643  1.00  0.00    -0.166 C  
BRANCH   5   6
HETATM    6  C   UNL     1     -10.606   7.207  70.418  1.00  0.00    -0.224 C  
HETATM    7  O   UNL     1     -11.201   6.206  70.024  1.00  0.00    -0.365 OA 
BRANCH   6   8
HETATM    8  C   UNL     1     -10.822   8.516  69.731  1.00  0.00    -0.177 A  
HETATM    9  C   UNL     1     -10.478   8.731  68.397  1.00  0.00    -0.220 A  
HETATM   10  C   UNL     1     -10.612  10.005  67.831  1.00  0.00    -0.298 A  
HETATM   11  C   UNL     1     -11.094  11.100  68.569  1.00  0.00    -0.298 A  
HETATM   12  C   UNL     1     -11.345   9.581  70.472  1.00  0.00    -0.343 A  
HETATM   13  C   UNL     1     -11.488  10.849  69.895  1.00  0.00    -0.402 A  
BRANCH  11  14
HETATM   14  C   UNL     1     -11.132  12.462  67.981  1.00  0.00    -0.288 A  
HETATM   15  C   UNL     1     -10.415  12.784  66.813  1.00  0.00    -0.253 A  
HETATM   16  C   UNL     1     -10.374  14.092  66.316  1.00  0.00    -0.294 A  
HETATM   17  C   UNL     1     -11.068  15.107  66.965  1.00  0.00    -0.328 A  
HETATM   18  C   UNL     1     -11.810  14.813  68.104  1.00  0.00    -0.318 A  
HETATM   19  C   UNL     1     -11.836  13.507  68.606  1.00  0.00    -0.404 A  
ENDBRANCH  11  14
ENDBRANCH   6   8
ENDBRANCH   5   6
ENDBRANCH   3   5
TORSDOF 4
ENDMDL
MODEL      113
REMARK 921   NORMALIZED FREE ENERGY PREDICTED BY IDOCK:   -4.15 KCAL/MOL
REMARK 922        TOTAL FREE ENERGY PREDICTED BY IDOCK:   -5.78 KCAL/MOL
REMARK 923 INTER-LIGAND FREE ENERGY PREDICTED BY IDOCK:   -5.02 KCAL/MOL
REMARK 924 INTRA-LIGAND FREE ENERGY PREDICTED BY IDOCK:   -0.76 KCAL/MOL
REMARK 927      BINDING AFFINITY PREDICTED BY RF-SCORE:    0.00 PKD
ROOT
HETATM    1  O   UNL     1     -11.417  13.042  63.335  1.00  0.00    -0.425 OA 
HETATM    2  C   UNL     1     -10.862  11.984  63.965  1.00  0.00    -0.378 C  
HETATM    3  C   UNL     1      -9.562  11.542  63.356  1.00  0.00    -0.330 C  
HETATM    4  O   UNL     1     -11.357  11.486  64.962  1.00  0.00    -0.215 OA 
ENDROOT
BRANCH   3   5
HETATM    5  C   UNL     1      -9.334  10.052  63.582  1.00  0.00    -0.301 C  
BRANCH   5   6
HETATM    6  C   UNL     1      -8.334   9.845  64.699  1.00  0.00    -0.163 C  
HETATM    7  O   UNL     1      -7.160  10.171  64.542  1.00  0.00    -0.138 OA 
BRANCH   6   8
HETATM    8  C   UNL     1      -8.788   9.318  66.021  1.00  0.00    -0.191 A  
HETATM    9  C   UNL     1      -9.256   8.016  66.191  1.00  0.00    -0.219 A  
HETATM   10  C   UNL     1      -9.760   7.605  67.431  1.00  0.00    -0.208 A  
HETATM   11  C   UNL     1      -9.810   8.470  68.538  1.00  0.00    -0.186 A  
HETATM   12  C   UNL     1      -8.788  10.183  67.120  1.00  0.00    -0.138 A  
HETATM   13  C   UNL     1      -9.282   9.760  68.361  1.00  0.00    -0.130 A  
BRANCH  11  14
HETATM   14  C   UNL     1     -10.441   8.046  69.812  1.00  0.00    -0.227 A  
HETATM   15  C   UNL     1     -11.312   6.942  69.876  1.00  0.00    -0.321 A  
HETATM   16  C   UNL     1     -11.981   6.604  71.058  1.00  0.00    -0.415 A  
HETATM   17  C   UNL     1     -11.778   7.351  72.213  1.00  0.00    -0.326 A  
HETATM   18  C   UNL     1     -10.900   8.429  72.189  1.00  0.00    -0.407 A  
HETATM   19  C   UNL     1     -10.244   8.773  71.001  1.00  0.00    -0.301 A  
ENDBRANCH  11  14
ENDBRANCH   6   8
ENDBRANCH   5   6
ENDBRANCH   3   5
TORSDOF 4
ENDMDL
MODEL      114
REMARK 921   NORMALIZED FREE ENERGY PREDICTED BY IDOCK:   -4.15 KCAL/MOL
REMARK 922        TOTAL FREE ENERGY PREDICTED BY IDOCK:   -5.78 KCAL/MOL
REMARK 923 INTER-LIGAND FREE ENERGY PREDICTED BY IDOCK:   -5.07 KCAL/MOL
REMARK 924 INTRA-LIGAND FREE ENERGY PREDICTED BY IDOCK:   -0.72 KCAL/MOL
REMARK 927      BINDING AFFINITY PREDICTED BY RF-SCORE:    0.00 PKD
ROOT
HETATM    1  O   UNL     1      -9.391   3.952  64.592  1.00  0.00    -0.137 OA 
HETATM    2  C   UNL     1      -9.584   3.979  65.928  1.00  0.00    -0.193 C  
HETATM    3  C   UNL     1     -10.518   5.069  66.374  1.00  0.00    -0.349 C  
HETATM    4  O   UNL     1      -9.083   3.157  66.676  1.00  0.00    -0.148 OA 
ENDROOT
BRANCH   3   5
HETATM    5  C   UNL     1     -10.191   5.519  67.793  1.00  0.00    -0.237 C  
BRANCH   5   6
HETATM    6  C   UNL     1      -9.279   6.725  67.756  1.00  0.00    -0.111 C  
HETATM    7  O   UNL     1      -8.059   6.576  67.782  1.00  0.00    -0.113 OA 
BRANCH   6   8
HETATM    8  C   UNL     1      -9.855   8.095  67.607  1.00  0.00    -0.216 A  
HETATM    9  C   UNL     1      -9.796   8.810  66.412  1.00  0.00    -0.352 A  
HETATM   10  C   UNL     1     -10.267  10.128  66.355  1.00  0.00    -0.288 A  
HETATM   11  C   UNL     1     -10.812  10.773  67.479  1.00  0.00    -0.342 A  
HETATM   12  C   UNL     1     -10.434   8.701  68.727  1.00  0.00    -0.209 A  
HETATM   13  C   UNL     1     -10.914  10.015  68.659  1.00  0.00    -0.247 A  
BRANCH  11  14
HETATM   14  C   UNL     1     -11.210  12.201  67.424  1.00  0.00    -0.362 A  
HETATM   15  C   UNL     1     -11.830  12.753  66.287  1.00  0.00    -0.485 A  
HETATM   16  C   UNL     1     -12.115  14.121  66.200  1.00  0.00    -0.454 A  
HETATM   17  C   UNL     1     -11.806  14.967  67.258  1.00  0.00    -0.239 A  
HETATM   18  C   UNL     1     -11.220  14.445  68.407  1.00  0.00    -0.294 A  
HETATM   19  C   UNL     1     -10.923  13.080  68.485  1.00  0.00    -0.290 A  
ENDBRANCH  11  14
ENDBRANCH   6   8
ENDBRANCH   5   6
ENDBRANCH   3   5
TORSDOF 4
ENDMDL
MODEL      115
REMARK 921   NORMALIZED FREE ENERGY PREDICTED BY IDOCK:   -4.08 KCAL/MOL
REMARK 922        TOTAL FREE ENERGY PREDICTED BY IDOCK:   -5.70 KCAL/MOL
REMARK 923 INTER-LIGAND FREE ENERGY PREDICTED BY IDOCK:   -4.94 KCAL/MOL
REMARK 924 INTRA-LIGAND FREE ENERGY PREDICTED BY IDOCK:   -0.76 KCAL/MOL
REMARK 927      BINDING AFFINITY PREDICTED BY RF-SCORE:    0.00 PKD
ROOT
HETATM    1  O   UNL     1      -8.852  14.357  66.555  1.00  0.00    -0.202 OA 
HETATM    2  C   UNL     1      -9.676  13.318  66.299  1.00  0.00    -0.268 C  
HETATM    3  C   UNL     1     -11.124  13.628  66.552  1.00  0.00    -0.310 C  
HETATM    4  O   UNL     1      -9.269  12.258  65.855  1.00  0.00    -0.158 OA 
ENDROOT
BRANCH   3   5
HETATM    5  C   UNL     1     -11.892  12.367  66.932  1.00  0.00    -0.377 C  
BRANCH   5   6
HETATM    6  C   UNL     1     -11.800  12.135  68.424  1.00  0.00    -0.303 C  
HETATM    7  O   UNL     1     -12.206  12.991  69.207  1.00  0.00    -0.231 OA 
BRANCH   6   8
HETATM    8  C   UNL     1     -11.290  10.833  68.949  1.00  0.00    -0.349 A  
HETATM    9  C   UNL     1     -10.815   9.821  68.116  1.00  0.00    -0.264 A  
HETATM   10  C   UNL     1     -10.439   8.584  68.654  1.00  0.00    -0.200 A  
HETATM   11  C   UNL     1     -10.519   8.315  70.031  1.00  0.00    -0.231 A  
HETATM   12  C   UNL     1     -11.337  10.604  70.328  1.00  0.00    -0.401 A  
HETATM   13  C   UNL     1     -10.947   9.368  70.860  1.00  0.00    -0.391 A  
BRANCH  11  14
HETATM   14  C   UNL     1     -10.214   6.966  70.567  1.00  0.00    -0.209 A  
HETATM   15  C   UNL     1     -11.103   6.290  71.423  1.00  0.00    -0.339 A  
HETATM   16  C   UNL     1     -10.769   5.062  72.005  1.00  0.00    -0.205 A  
HETATM   17  C   UNL     1      -9.544   4.468  71.726  1.00  0.00    -0.220 A  
HETATM   18  C   UNL     1      -8.656   5.098  70.861  1.00  0.00    -0.129 A  
HETATM   19  C   UNL     1      -8.987   6.333  70.293  1.00  0.00    -0.154 A  
ENDBRANCH  11  14
ENDBRANCH   6   8
ENDBRANCH   5   6
ENDBRANCH   3   5
TORSDOF 4
ENDMDL
MODEL      116
REMARK 921   NORMALIZED FREE ENERGY PREDICTED BY IDOCK:   -4.07 KCAL/MOL
REMARK 922        TOTAL FREE ENERGY PREDICTED BY IDOCK:   -5.68 KCAL/MOL
REMARK 923 INTER-LIGAND FREE ENERGY PREDICTED BY IDOCK:   -5.12 KCAL/MOL
REMARK 924 INTRA-LIGAND FREE ENERGY PREDICTED BY IDOCK:   -0.57 KCAL/MOL
REMARK 927      BINDING AFFINITY PREDICTED BY RF-SCORE:    0.00 PKD
ROOT
HETATM    1  O   UNL     1     -11.615  16.047  69.686  1.00  0.00    -0.326 OA 
HETATM    2  C   UNL     1     -11.834  14.945  68.935  1.00  0.00    -0.301 C  
HETATM    3  C   UNL     1     -11.271  15.049  67.546  1.00  0.00    -0.333 C  
HETATM    4  O   UNL     1     -12.387  13.953  69.379  1.00  0.00    -0.329 OA 
ENDROOT
BRANCH   3   5
HETATM    5  C   UNL     1     -12.074  14.198  66.569  1.00  0.00    -0.481 C  
BRANCH   5   6
HETATM    6  C   UNL     1     -11.364  14.131  65.235  1.00  0.00    -0.328 C  
HETATM    7  O   UNL     1     -11.352  15.111  64.494  1.00  0.00    -0.357 OA 
BRANCH   6   8
HETATM    8  C   UNL     1     -10.609  12.901  64.851  1.00  0.00    -0.342 A  
HETATM    9  C   UNL     1     -10.880  12.185  63.685  1.00  0.00    -0.523 A  
HETATM   10  C   UNL     1     -10.207  10.986  63.422  1.00  0.00    -0.404 A  
HETATM   11  C   UNL     1      -9.245  10.463  64.304  1.00  0.00    -0.295 A  
HETATM   12  C   UNL     1      -9.624  12.423  65.721  1.00  0.00    -0.164 A  
HETATM   13  C   UNL     1      -8.946  11.228  65.445  1.00  0.00    -0.106 A  
BRANCH  11  14
HETATM   14  C   UNL     1      -8.619   9.141  64.056  1.00  0.00    -0.186 A  
HETATM   15  C   UNL     1      -8.393   8.222  65.098  1.00  0.00    -0.167 A  
HETATM   16  C   UNL     1      -7.715   7.018  64.879  1.00  0.00    -0.114 A  
HETATM   17  C   UNL     1      -7.264   6.693  63.605  1.00  0.00    -0.065 A  
HETATM   18  C   UNL     1      -7.499   7.567  62.549  1.00  0.00    -0.100 A  
HETATM   19  C   UNL     1      -8.165   8.777  62.775  1.00  0.00    -0.195 A  
ENDBRANCH  11  14
ENDBRANCH   6   8
ENDBRANCH   5   6
ENDBRANCH   3   5
TORSDOF 4
ENDMDL
MODEL      117
REMARK 921   NORMALIZED FREE ENERGY PREDICTED BY IDOCK:   -4.07 KCAL/MOL
REMARK 922        TOTAL FREE ENERGY PREDICTED BY IDOCK:   -5.68 KCAL/MOL
REMARK 923 INTER-LIGAND FREE ENERGY PREDICTED BY IDOCK:   -4.92 KCAL/MOL
REMARK 924 INTRA-LIGAND FREE ENERGY PREDICTED BY IDOCK:   -0.76 KCAL/MOL
REMARK 927      BINDING AFFINITY PREDICTED BY RF-SCORE:    0.00 PKD
ROOT
HETATM    1  O   UNL     1     -11.448   6.256  69.996  1.00  0.00    -0.412 OA 
HETATM    2  C   UNL     1     -10.556   7.079  69.402  1.00  0.00    -0.230 C  
HETATM    3  C   UNL     1      -9.385   6.354  68.799  1.00  0.00    -0.125 C  
HETATM    4  O   UNL     1     -10.731   8.283  69.325  1.00  0.00    -0.211 OA 
ENDROOT
BRANCH   3   5
HETATM    5  C   UNL     1      -8.147   7.243  68.781  1.00  0.00    -0.124 C  
BRANCH   5   6
HETATM    6  C   UNL     1      -7.888   7.741  67.376  1.00  0.00    -0.118 C  
HETATM    7  O   UNL     1      -7.235   7.056  66.591  1.00  0.00    -0.078 OA 
BRANCH   6   8
HETATM    8  C   UNL     1      -8.491   9.027  66.915  1.00  0.00    -0.120 A  
HETATM    9  C   UNL     1      -8.398  10.207  67.651  1.00  0.00    -0.114 A  
HETATM   10  C   UNL     1      -9.064  11.361  67.218  1.00  0.00    -0.162 A  
HETATM   11  C   UNL     1      -9.837  11.379  66.044  1.00  0.00    -0.256 A  
HETATM   12  C   UNL     1      -9.218   9.032  65.720  1.00  0.00    -0.293 A  
HETATM   13  C   UNL     1      -9.871  10.194  65.288  1.00  0.00    -0.388 A  
BRANCH  11  14
HETATM   14  C   UNL     1     -10.617  12.581  65.659  1.00  0.00    -0.298 A  
HETATM   15  C   UNL     1     -12.022  12.559  65.583  1.00  0.00    -0.492 A  
HETATM   16  C   UNL     1     -12.748  13.664  65.125  1.00  0.00    -0.443 A  
HETATM   17  C   UNL     1     -12.086  14.829  64.753  1.00  0.00    -0.387 A  
HETATM   18  C   UNL     1     -10.700  14.891  64.846  1.00  0.00    -0.426 A  
HETATM   19  C   UNL     1      -9.976  13.778  65.290  1.00  0.00    -0.245 A  
ENDBRANCH  11  14
ENDBRANCH   6   8
ENDBRANCH   5   6
ENDBRANCH   3   5
TORSDOF 4
ENDMDL
MODEL      118
REMARK 921   NORMALIZED FREE ENERGY PREDICTED BY IDOCK:   -4.04 KCAL/MOL
REMARK 922        TOTAL FREE ENERGY PREDICTED BY IDOCK:   -5.65 KCAL/MOL
REMARK 923 INTER-LIGAND FREE ENERGY PREDICTED BY IDOCK:   -5.46 KCAL/MOL
REMARK 924 INTRA-LIGAND FREE ENERGY PREDICTED BY IDOCK:   -0.19 KCAL/MOL
REMARK 927      BINDING AFFINITY PREDICTED BY RF-SCORE:    0.00 PKD
ROOT
HETATM    1  O   UNL     1      -9.932   4.434  70.492  1.00  0.00    -0.217 OA 
HETATM    2  C   UNL     1      -9.530   5.556  71.128  1.00  0.00    -0.159 C  
HETATM    3  C   UNL     1     -10.328   5.856  72.367  1.00  0.00    -0.230 C  
HETATM    4  O   UNL     1      -8.578   6.215  70.750  1.00  0.00    -0.132 OA 
ENDROOT
BRANCH   3   5
HETATM    5  C   UNL     1     -10.357   7.354  72.644  1.00  0.00    -0.292 C  
BRANCH   5   6
HETATM    6  C   UNL     1     -11.479   8.004  71.864  1.00  0.00    -0.291 C  
HETATM    7  O   UNL     1     -12.626   7.988  72.305  1.00  0.00    -0.296 OA 
BRANCH   6   8
HETATM    8  C   UNL     1     -11.182   8.735  70.596  1.00  0.00    -0.294 A  
HETATM    9  C   UNL     1     -11.393  10.106  70.451  1.00  0.00    -0.401 A  
HETATM   10  C   UNL     1     -11.189  10.723  69.211  1.00  0.00    -0.333 A  
HETATM   11  C   UNL     1     -10.769  10.002  68.080  1.00  0.00    -0.303 A  
HETATM   12  C   UNL     1     -10.722   8.005  69.495  1.00  0.00    -0.185 A  
HETATM   13  C   UNL     1     -10.508   8.632  68.261  1.00  0.00    -0.234 A  
BRANCH  11  14
HETATM   14  C   UNL     1     -10.659  10.655  66.753  1.00  0.00    -0.297 A  
HETATM   15  C   UNL     1     -11.122  11.965  66.532  1.00  0.00    -0.357 A  
HETATM   16  C   UNL     1     -11.107  12.543  65.257  1.00  0.00    -0.332 A  
HETATM   17  C   UNL     1     -10.605  11.830  64.174  1.00  0.00    -0.403 A  
HETATM   18  C   UNL     1     -10.112  10.544  64.367  1.00  0.00    -0.395 A  
HETATM   19  C   UNL     1     -10.143   9.964  65.640  1.00  0.00    -0.307 A  
ENDBRANCH  11  14
ENDBRANCH   6   8
ENDBRANCH   5   6
ENDBRANCH   3   5
TORSDOF 4
ENDMDL
MODEL      119
REMARK 921   NORMALIZED FREE ENERGY PREDICTED BY IDOCK:   -4.03 KCAL/MOL
REMARK 922        TOTAL FREE ENERGY PREDICTED BY IDOCK:   -5.64 KCAL/MOL
REMARK 923 INTER-LIGAND FREE ENERGY PREDICTED BY IDOCK:   -4.98 KCAL/MOL
REMARK 924 INTRA-LIGAND FREE ENERGY PREDICTED BY IDOCK:   -0.65 KCAL/MOL
REMARK 927      BINDING AFFINITY PREDICTED BY RF-SCORE:    0.00 PKD
ROOT
HETATM    1  O   UNL     1     -10.630  19.984  67.432  1.00  0.00    -0.386 OA 
HETATM    2  C   UNL     1      -9.650  19.072  67.608  1.00  0.00    -0.309 C  
HETATM    3  C   UNL     1      -9.016  18.621  66.321  1.00  0.00    -0.228 C  
HETATM    4  O   UNL     1      -9.292  18.704  68.714  1.00  0.00    -0.333 OA 
ENDROOT
BRANCH   3   5
HETATM    5  C   UNL     1      -8.478  17.201  66.449  1.00  0.00    -0.307 C  
BRANCH   5   6
HETATM    6  C   UNL     1      -9.545  16.205  66.052  1.00  0.00    -0.346 C  
HETATM    7  O   UNL     1     -10.475  16.555  65.328  1.00  0.00    -0.590 OA 
BRANCH   6   8
HETATM    8  C   UNL     1      -9.429  14.777  66.472  1.00  0.00    -0.316 A  
HETATM    9  C   UNL     1     -10.211  13.764  65.918  1.00  0.00    -0.322 A  
HETATM   10  C   UNL     1     -10.129  12.458  66.417  1.00  0.00    -0.252 A  
HETATM   11  C   UNL     1      -9.269  12.118  67.476  1.00  0.00    -0.182 A  
HETATM   12  C   UNL     1      -8.534  14.453  67.497  1.00  0.00    -0.202 A  
HETATM   13  C   UNL     1      -8.449  13.141  67.982  1.00  0.00    -0.181 A  
BRANCH  11  14
HETATM   14  C   UNL     1      -9.273  10.752  68.056  1.00  0.00    -0.150 A  
HETATM   15  C   UNL     1     -10.351   9.869  67.864  1.00  0.00    -0.256 A  
HETATM   16  C   UNL     1     -10.396   8.620  68.493  1.00  0.00    -0.228 A  
HETATM   17  C   UNL     1      -9.351   8.214  69.314  1.00  0.00    -0.151 A  
HETATM   18  C   UNL     1      -8.257   9.053  69.499  1.00  0.00    -0.114 A  
HETATM   19  C   UNL     1      -8.222  10.307  68.880  1.00  0.00    -0.130 A  
ENDBRANCH  11  14
ENDBRANCH   6   8
ENDBRANCH   5   6
ENDBRANCH   3   5
TORSDOF 4
ENDMDL
MODEL      120
REMARK 921   NORMALIZED FREE ENERGY PREDICTED BY IDOCK:   -4.02 KCAL/MOL
REMARK 922        TOTAL FREE ENERGY PREDICTED BY IDOCK:   -5.63 KCAL/MOL
REMARK 923 INTER-LIGAND FREE ENERGY PREDICTED BY IDOCK:   -4.96 KCAL/MOL
REMARK 924 INTRA-LIGAND FREE ENERGY PREDICTED BY IDOCK:   -0.67 KCAL/MOL
REMARK 927      BINDING AFFINITY PREDICTED BY RF-SCORE:    0.00 PKD
ROOT
HETATM    1  O   UNL     1      -7.822  10.704  63.318  1.00  0.00    -0.091 OA 
HETATM    2  C   UNL     1      -9.136  10.625  63.621  1.00  0.00    -0.232 C  
HETATM    3  C   UNL     1      -9.886  11.901  63.359  1.00  0.00    -0.374 C  
HETATM    4  O   UNL     1      -9.653   9.594  64.015  1.00  0.00    -0.106 OA 
ENDROOT
BRANCH   3   5
HETATM    5  C   UNL     1     -11.083  12.030  64.293  1.00  0.00    -0.411 C  
BRANCH   5   6
HETATM    6  C   UNL     1     -10.648  12.631  65.612  1.00  0.00    -0.273 C  
HETATM    7  O   UNL     1     -10.484  13.845  65.711  1.00  0.00    -0.289 OA 
BRANCH   6   8
HETATM    8  C   UNL     1     -10.494  11.761  66.816  1.00  0.00    -0.260 A  
HETATM    9  C   UNL     1     -10.974  10.453  66.865  1.00  0.00    -0.167 A  
HETATM   10  C   UNL     1     -10.888   9.715  68.052  1.00  0.00    -0.250 A  
HETATM   11  C   UNL     1     -10.323  10.250  69.223  1.00  0.00    -0.250 A  
HETATM   12  C   UNL     1      -9.887  12.299  67.955  1.00  0.00    -0.204 A  
HETATM   13  C   UNL     1      -9.794  11.550  69.136  1.00  0.00     0.085 A  
BRANCH  11  14
HETATM   14  C   UNL     1     -10.335   9.489  70.496  1.00  0.00    -0.350 A  
HETATM   15  C   UNL     1      -9.144   9.105  71.140  1.00  0.00    -0.275 A  
HETATM   16  C   UNL     1      -9.157   8.303  72.287  1.00  0.00    -0.289 A  
HETATM   17  C   UNL     1     -10.366   7.884  72.831  1.00  0.00    -0.413 A  
HETATM   18  C   UNL     1     -11.560   8.272  72.234  1.00  0.00    -0.449 A  
HETATM   19  C   UNL     1     -11.542   9.061  71.079  1.00  0.00    -0.360 A  
ENDBRANCH  11  14
ENDBRANCH   6   8
ENDBRANCH   5   6
ENDBRANCH   3   5
TORSDOF 4
ENDMDL
MODEL      121
REMARK 921   NORMALIZED FREE ENERGY PREDICTED BY IDOCK:   -3.99 KCAL/MOL
REMARK 922        TOTAL FREE ENERGY PREDICTED BY IDOCK:   -5.59 KCAL/MOL
REMARK 923 INTER-LIGAND FREE ENERGY PREDICTED BY IDOCK:   -4.83 KCAL/MOL
REMARK 924 INTRA-LIGAND FREE ENERGY PREDICTED BY IDOCK:   -0.76 KCAL/MOL
REMARK 927      BINDING AFFINITY PREDICTED BY RF-SCORE:    0.00 PKD
ROOT
HETATM    1  O   UNL     1      -8.593   9.356  62.614  1.00  0.00    -0.189 OA 
HETATM    2  C   UNL     1      -9.345  10.039  63.504  1.00  0.00    -0.256 C  
HETATM    3  C   UNL     1      -9.104   9.627  64.929  1.00  0.00    -0.284 C  
HETATM    4  O   UNL     1     -10.098  10.937  63.167  1.00  0.00    -0.328 OA 
ENDROOT
BRANCH   3   5
HETATM    5  C   UNL     1     -10.350   9.852  65.777  1.00  0.00    -0.155 C  
BRANCH   5   6
HETATM    6  C   UNL     1      -9.987  10.596  67.043  1.00  0.00    -0.202 C  
HETATM    7  O   UNL     1      -9.723   9.974  68.070  1.00  0.00    -0.138 OA 
BRANCH   6   8
HETATM    8  C   UNL     1      -9.870  12.085  67.029  1.00  0.00    -0.205 A  
HETATM    9  C   UNL     1     -10.860  12.912  66.498  1.00  0.00    -0.290 A  
HETATM   10  C   UNL     1     -10.657  14.295  66.422  1.00  0.00    -0.286 A  
HETATM   11  C   UNL     1      -9.470  14.899  66.872  1.00  0.00    -0.251 A  
HETATM   12  C   UNL     1      -8.699  12.668  67.523  1.00  0.00    -0.184 A  
HETATM   13  C   UNL     1      -8.508  14.054  67.455  1.00  0.00    -0.201 A  
BRANCH  11  14
HETATM   14  C   UNL     1      -9.233  16.352  66.689  1.00  0.00    -0.279 A  
HETATM   15  C   UNL     1     -10.289  17.282  66.706  1.00  0.00    -0.308 A  
HETATM   16  C   UNL     1     -10.076  18.638  66.435  1.00  0.00    -0.435 A  
HETATM   17  C   UNL     1      -8.794  19.102  66.163  1.00  0.00    -0.224 A  
HETATM   18  C   UNL     1      -7.725  18.212  66.169  1.00  0.00    -0.259 A  
HETATM   19  C   UNL     1      -7.945  16.854  66.425  1.00  0.00    -0.352 A  
ENDBRANCH  11  14
ENDBRANCH   6   8
ENDBRANCH   5   6
ENDBRANCH   3   5
TORSDOF 4
ENDMDL
MODEL      122
REMARK 921   NORMALIZED FREE ENERGY PREDICTED BY IDOCK:   -3.99 KCAL/MOL
REMARK 922        TOTAL FREE ENERGY PREDICTED BY IDOCK:   -5.58 KCAL/MOL
REMARK 923 INTER-LIGAND FREE ENERGY PREDICTED BY IDOCK:   -4.76 KCAL/MOL
REMARK 924 INTRA-LIGAND FREE ENERGY PREDICTED BY IDOCK:   -0.81 KCAL/MOL
REMARK 927      BINDING AFFINITY PREDICTED BY RF-SCORE:    0.00 PKD
ROOT
HETATM    1  O   UNL     1     -11.266   5.653  69.681  1.00  0.00    -0.267 OA 
HETATM    2  C   UNL     1     -10.967   6.379  70.780  1.00  0.00    -0.290 C  
HETATM    3  C   UNL     1     -12.060   7.330  71.181  1.00  0.00    -0.376 C  
HETATM    4  O   UNL     1      -9.931   6.223  71.404  1.00  0.00    -0.183 OA 
ENDROOT
BRANCH   3   5
HETATM    5  C   UNL     1     -11.486   8.544  71.903  1.00  0.00    -0.405 C  
BRANCH   5   6
HETATM    6  C   UNL     1     -11.735   9.796  71.091  1.00  0.00    -0.385 C  
HETATM    7  O   UNL     1     -12.514  10.652  71.504  1.00  0.00    -0.377 OA 
BRANCH   6   8
HETATM    8  C   UNL     1     -10.977  10.030  69.826  1.00  0.00    -0.317 A  
HETATM    9  C   UNL     1     -11.586  10.486  68.657  1.00  0.00    -0.241 A  
HETATM   10  C   UNL     1     -10.846  10.596  67.474  1.00  0.00    -0.351 A  
HETATM   11  C   UNL     1      -9.482  10.262  67.414  1.00  0.00    -0.174 A  
HETATM   12  C   UNL     1      -9.610   9.734  69.802  1.00  0.00    -0.256 A  
HETATM   13  C   UNL     1      -8.874   9.859  68.617  1.00  0.00    -0.128 A  
BRANCH  11  14
HETATM   14  C   UNL     1      -8.743  10.289  66.129  1.00  0.00    -0.163 A  
HETATM   15  C   UNL     1      -9.395  10.106  64.895  1.00  0.00    -0.310 A  
HETATM   16  C   UNL     1      -8.683  10.033  63.693  1.00  0.00    -0.227 A  
HETATM   17  C   UNL     1      -7.299  10.165  63.693  1.00  0.00    -0.123 A  
HETATM   18  C   UNL     1      -6.628  10.377  64.893  1.00  0.00    -0.060 A  
HETATM   19  C   UNL     1      -7.343  10.434  66.095  1.00  0.00    -0.131 A  
ENDBRANCH  11  14
ENDBRANCH   6   8
ENDBRANCH   5   6
ENDBRANCH   3   5
TORSDOF 4
ENDMDL
MODEL      123
REMARK 921   NORMALIZED FREE ENERGY PREDICTED BY IDOCK:   -3.97 KCAL/MOL
REMARK 922        TOTAL FREE ENERGY PREDICTED BY IDOCK:   -5.56 KCAL/MOL
REMARK 923 INTER-LIGAND FREE ENERGY PREDICTED BY IDOCK:   -4.87 KCAL/MOL
REMARK 924 INTRA-LIGAND FREE ENERGY PREDICTED BY IDOCK:   -0.69 KCAL/MOL
REMARK 927      BINDING AFFINITY PREDICTED BY RF-SCORE:    0.00 PKD
ROOT
HETATM    1  O   UNL     1      -9.527   9.977  63.142  1.00  0.00    -0.299 OA 
HETATM    2  C   UNL     1     -10.164  11.058  63.642  1.00  0.00    -0.372 C  
HETATM    3  C   UNL     1     -10.369  10.995  65.129  1.00  0.00    -0.346 C  
HETATM    4  O   UNL     1     -10.483  12.006  62.945  1.00  0.00    -0.198 OA 
ENDROOT
BRANCH   3   5
HETATM    5  C   UNL     1     -11.607  11.783  65.541  1.00  0.00    -0.192 C  
BRANCH   5   6
HETATM    6  C   UNL     1     -11.453  12.286  66.959  1.00  0.00    -0.354 C  
HETATM    7  O   UNL     1     -12.043  11.724  67.880  1.00  0.00    -0.592 OA 
BRANCH   6   8
HETATM    8  C   UNL     1     -10.522  13.416  67.255  1.00  0.00    -0.248 A  
HETATM    9  C   UNL     1     -10.727  14.706  66.769  1.00  0.00    -0.301 A  
HETATM   10  C   UNL     1      -9.772  15.705  66.997  1.00  0.00    -0.234 A  
HETATM   11  C   UNL     1      -8.589  15.455  67.715  1.00  0.00    -0.162 A  
HETATM   12  C   UNL     1      -9.374  13.154  68.010  1.00  0.00    -0.219 A  
HETATM   13  C   UNL     1      -8.429  14.162  68.244  1.00  0.00    -0.169 A  
BRANCH  11  14
HETATM   14  C   UNL     1      -7.545  16.498  67.856  1.00  0.00    -0.162 A  
HETATM   15  C   UNL     1      -7.861  17.815  68.237  1.00  0.00    -0.279 A  
HETATM   16  C   UNL     1      -6.888  18.821  68.275  1.00  0.00    -0.261 A  
HETATM   17  C   UNL     1      -5.568  18.528  67.952  1.00  0.00    -0.168 A  
HETATM   18  C   UNL     1      -5.219  17.228  67.601  1.00  0.00    -0.128 A  
HETATM   19  C   UNL     1      -6.198  16.228  67.550  1.00  0.00    -0.186 A  
ENDBRANCH  11  14
ENDBRANCH   6   8
ENDBRANCH   5   6
ENDBRANCH   3   5
TORSDOF 4
ENDMDL
MODEL      124
REMARK 921   NORMALIZED FREE ENERGY PREDICTED BY IDOCK:   -3.95 KCAL/MOL
REMARK 922        TOTAL FREE ENERGY PREDICTED BY IDOCK:   -5.53 KCAL/MOL
REMARK 923 INTER-LIGAND FREE ENERGY PREDICTED BY IDOCK:   -4.92 KCAL/MOL
REMARK 924 INTRA-LIGAND FREE ENERGY PREDICTED BY IDOCK:   -0.61 KCAL/MOL
REMARK 927      BINDING AFFINITY PREDICTED BY RF-SCORE:    0.00 PKD
ROOT
HETATM    1  O   UNL     1      -6.405  17.339  69.056  1.00  0.00    -0.187 OA 
HETATM    2  C   UNL     1      -7.680  17.178  68.640  1.00  0.00    -0.260 C  
HETATM    3  C   UNL     1      -7.934  17.732  67.266  1.00  0.00    -0.223 C  
HETATM    4  O   UNL     1      -8.513  16.589  69.307  1.00  0.00    -0.196 OA 
ENDROOT
BRANCH   3   5
HETATM    5  C   UNL     1      -9.387  18.166  67.116  1.00  0.00    -0.263 C  
BRANCH   5   6
HETATM    6  C   UNL     1     -10.121  17.211  66.200  1.00  0.00    -0.305 C  
HETATM    7  O   UNL     1     -10.586  17.613  65.136  1.00  0.00    -0.636 OA 
BRANCH   6   8
HETATM    8  C   UNL     1     -10.212  15.762  66.549  1.00  0.00    -0.294 A  
HETATM    9  C   UNL     1     -11.237  15.241  67.338  1.00  0.00    -0.311 A  
HETATM   10  C   UNL     1     -11.221  13.893  67.715  1.00  0.00    -0.316 A  
HETATM   11  C   UNL     1     -10.192  13.021  67.318  1.00  0.00    -0.239 A  
HETATM   12  C   UNL     1      -9.201  14.903  66.106  1.00  0.00    -0.268 A  
HETATM   13  C   UNL     1      -9.198  13.552  66.477  1.00  0.00    -0.187 A  
BRANCH  11  14
HETATM   14  C   UNL     1     -10.141  11.623  67.812  1.00  0.00    -0.200 A  
HETATM   15  C   UNL     1     -10.602  11.273  69.095  1.00  0.00    -0.222 A  
HETATM   16  C   UNL     1     -10.462   9.974  69.595  1.00  0.00    -0.275 A  
HETATM   17  C   UNL     1      -9.876   8.985  68.814  1.00  0.00    -0.180 A  
HETATM   18  C   UNL     1      -9.437   9.293  67.530  1.00  0.00    -0.160 A  
HETATM   19  C   UNL     1      -9.565  10.597  67.040  1.00  0.00    -0.196 A  
ENDBRANCH  11  14
ENDBRANCH   6   8
ENDBRANCH   5   6
ENDBRANCH   3   5
TORSDOF 4
ENDMDL
MODEL      125
REMARK 921   NORMALIZED FREE ENERGY PREDICTED BY IDOCK:   -3.93 KCAL/MOL
REMARK 922        TOTAL FREE ENERGY PREDICTED BY IDOCK:   -5.51 KCAL/MOL
REMARK 923 INTER-LIGAND FREE ENERGY PREDICTED BY IDOCK:   -4.97 KCAL/MOL
REMARK 924 INTRA-LIGAND FREE ENERGY PREDICTED BY IDOCK:   -0.54 KCAL/MOL
REMARK 927      BINDING AFFINITY PREDICTED BY RF-SCORE:    0.00 PKD
ROOT
HETATM    1  O   UNL     1      -6.639   7.977  64.882  1.00  0.00    -0.051 OA 
HETATM    2  C   UNL     1      -7.596   8.438  64.049  1.00  0.00    -0.126 C  
HETATM    3  C   UNL     1      -7.929   9.888  64.268  1.00  0.00    -0.146 C  
HETATM    4  O   UNL     1      -8.090   7.746  63.176  1.00  0.00    -0.143 OA 
ENDROOT
BRANCH   3   5
HETATM    5  C   UNL     1      -9.372  10.179  63.873  1.00  0.00    -0.336 C  
BRANCH   5   6
HETATM    6  C   UNL     1     -10.117  10.785  65.043  1.00  0.00    -0.313 C  
HETATM    7  O   UNL     1     -10.725  11.844  64.904  1.00  0.00    -0.279 OA 
BRANCH   6   8
HETATM    8  C   UNL     1     -10.181  10.059  66.346  1.00  0.00    -0.290 A  
HETATM    9  C   UNL     1     -10.154   8.667  66.433  1.00  0.00    -0.294 A  
HETATM   10  C   UNL     1     -10.314   8.036  67.673  1.00  0.00    -0.312 A  
HETATM   11  C   UNL     1     -10.503   8.764  68.861  1.00  0.00    -0.217 A  
HETATM   12  C   UNL     1     -10.323  10.805  67.520  1.00  0.00    -0.244 A  
HETATM   13  C   UNL     1     -10.470  10.166  68.758  1.00  0.00    -0.223 A  
BRANCH  11  14
HETATM   14  C   UNL     1     -10.773   8.075  70.146  1.00  0.00    -0.244 A  
HETATM   15  C   UNL     1     -10.619   8.728  71.383  1.00  0.00    -0.349 A  
HETATM   16  C   UNL     1     -10.779   8.048  72.596  1.00  0.00    -0.426 A  
HETATM   17  C   UNL     1     -11.120   6.700  72.601  1.00  0.00    -0.291 A  
HETATM   18  C   UNL     1     -11.308   6.035  71.394  1.00  0.00    -0.301 A  
HETATM   19  C   UNL     1     -11.132   6.714  70.183  1.00  0.00    -0.384 A  
ENDBRANCH  11  14
ENDBRANCH   6   8
ENDBRANCH   5   6
ENDBRANCH   3   5
TORSDOF 4
ENDMDL
MODEL      126
REMARK 921   NORMALIZED FREE ENERGY PREDICTED BY IDOCK:   -3.93 KCAL/MOL
REMARK 922        TOTAL FREE ENERGY PREDICTED BY IDOCK:   -5.50 KCAL/MOL
REMARK 923 INTER-LIGAND FREE ENERGY PREDICTED BY IDOCK:   -4.81 KCAL/MOL
REMARK 924 INTRA-LIGAND FREE ENERGY PREDICTED BY IDOCK:   -0.69 KCAL/MOL
REMARK 927      BINDING AFFINITY PREDICTED BY RF-SCORE:    0.00 PKD
ROOT
HETATM    1  O   UNL     1      -6.908   9.015  71.631  1.00  0.00    -0.191 OA 
HETATM    2  C   UNL     1      -7.693   9.554  70.673  1.00  0.00    -0.124 C  
HETATM    3  C   UNL     1      -9.162   9.386  70.942  1.00  0.00    -0.242 C  
HETATM    4  O   UNL     1      -7.234  10.161  69.721  1.00  0.00    -0.106 OA 
ENDROOT
BRANCH   3   5
HETATM    5  C   UNL     1      -9.951   9.345  69.638  1.00  0.00    -0.209 C  
BRANCH   5   6
HETATM    6  C   UNL     1     -11.132  10.287  69.718  1.00  0.00    -0.287 C  
HETATM    7  O   UNL     1     -12.186   9.911  70.228  1.00  0.00    -0.176 OA 
BRANCH   6   8
HETATM    8  C   UNL     1     -10.996  11.699  69.252  1.00  0.00    -0.246 A  
HETATM    9  C   UNL     1     -12.003  12.648  69.425  1.00  0.00    -0.318 A  
HETATM   10  C   UNL     1     -11.861  13.932  68.883  1.00  0.00    -0.393 A  
HETATM   11  C   UNL     1     -10.720  14.312  68.156  1.00  0.00    -0.249 A  
HETATM   12  C   UNL     1      -9.832  12.067  68.570  1.00  0.00    -0.177 A  
HETATM   13  C   UNL     1      -9.693  13.357  68.040  1.00  0.00    -0.222 A  
BRANCH  11  14
HETATM   14  C   UNL     1     -10.635  15.641  67.503  1.00  0.00    -0.297 A  
HETATM   15  C   UNL     1     -10.768  15.792  66.110  1.00  0.00    -0.293 A  
HETATM   16  C   UNL     1     -10.590  17.032  65.487  1.00  0.00    -0.184 A  
HETATM   17  C   UNL     1     -10.297  18.159  66.246  1.00  0.00    -0.407 A  
HETATM   18  C   UNL     1     -10.189  18.047  67.629  1.00  0.00    -0.376 A  
HETATM   19  C   UNL     1     -10.353  16.802  68.246  1.00  0.00    -0.319 A  
ENDBRANCH  11  14
ENDBRANCH   6   8
ENDBRANCH   5   6
ENDBRANCH   3   5
TORSDOF 4
ENDMDL
MODEL      127
REMARK 921   NORMALIZED FREE ENERGY PREDICTED BY IDOCK:   -3.85 KCAL/MOL
REMARK 922        TOTAL FREE ENERGY PREDICTED BY IDOCK:   -5.41 KCAL/MOL
REMARK 923 INTER-LIGAND FREE ENERGY PREDICTED BY IDOCK:   -4.86 KCAL/MOL
REMARK 924 INTRA-LIGAND FREE ENERGY PREDICTED BY IDOCK:   -0.55 KCAL/MOL
REMARK 927      BINDING AFFINITY PREDICTED BY RF-SCORE:    0.00 PKD
ROOT
HETATM    1  O   UNL     1     -11.551  12.516  65.198  1.00  0.00    -0.325 OA 
HETATM    2  C   UNL     1     -11.375  11.981  66.426  1.00  0.00    -0.354 C  
HETATM    3  C   UNL     1     -11.617  12.959  67.541  1.00  0.00    -0.409 C  
HETATM    4  O   UNL     1     -11.101  10.805  66.592  1.00  0.00    -0.181 OA 
ENDROOT
BRANCH   3   5
HETATM    5  C   UNL     1     -10.788  12.598  68.769  1.00  0.00    -0.267 C  
BRANCH   5   6
HETATM    6  C   UNL     1      -9.314  12.748  68.461  1.00  0.00    -0.077 C  
HETATM    7  O   UNL     1      -8.607  11.751  68.335  1.00  0.00    -0.160 OA 
BRANCH   6   8
HETATM    8  C   UNL     1      -8.732  14.104  68.231  1.00  0.00    -0.181 A  
HETATM    9  C   UNL     1      -8.336  14.940  69.275  1.00  0.00    -0.114 A  
HETATM   10  C   UNL     1      -7.887  16.238  69.007  1.00  0.00    -0.235 A  
HETATM   11  C   UNL     1      -7.814  16.746  67.698  1.00  0.00    -0.189 A  
HETATM   12  C   UNL     1      -8.627  14.572  66.917  1.00  0.00    -0.207 A  
HETATM   13  C   UNL     1      -8.165  15.868  66.656  1.00  0.00    -0.317 A  
BRANCH  11  14
HETATM   14  C   UNL     1      -7.433  18.157  67.444  1.00  0.00    -0.219 A  
HETATM   15  C   UNL     1      -7.087  19.030  68.491  1.00  0.00    -0.322 A  
HETATM   16  C   UNL     1      -6.824  20.385  68.259  1.00  0.00    -0.288 A  
HETATM   17  C   UNL     1      -6.879  20.895  66.967  1.00  0.00    -0.398 A  
HETATM   18  C   UNL     1      -7.190  20.050  65.907  1.00  0.00    -0.327 A  
HETATM   19  C   UNL     1      -7.467  18.699  66.145  1.00  0.00    -0.287 A  
ENDBRANCH  11  14
ENDBRANCH   6   8
ENDBRANCH   5   6
ENDBRANCH   3   5
TORSDOF 4
ENDMDL
MODEL      128
REMARK 921   NORMALIZED FREE ENERGY PREDICTED BY IDOCK:   -3.84 KCAL/MOL
REMARK 922        TOTAL FREE ENERGY PREDICTED BY IDOCK:   -5.39 KCAL/MOL
REMARK 923 INTER-LIGAND FREE ENERGY PREDICTED BY IDOCK:   -4.72 KCAL/MOL
REMARK 924 INTRA-LIGAND FREE ENERGY PREDICTED BY IDOCK:   -0.67 KCAL/MOL
REMARK 927      BINDING AFFINITY PREDICTED BY RF-SCORE:    0.00 PKD
ROOT
HETATM    1  O   UNL     1     -10.964   6.208  73.415  1.00  0.00    -0.246 OA 
HETATM    2  C   UNL     1     -10.095   7.056  72.823  1.00  0.00    -0.185 C  
HETATM    3  C   UNL     1      -9.647   6.598  71.463  1.00  0.00    -0.169 C  
HETATM    4  O   UNL     1      -9.761   8.110  73.336  1.00  0.00    -0.248 OA 
ENDROOT
BRANCH   3   5
HETATM    5  C   UNL     1      -8.252   7.121  71.145  1.00  0.00    -0.112 C  
BRANCH   5   6
HETATM    6  C   UNL     1      -8.089   7.288  69.650  1.00  0.00    -0.129 C  
HETATM    7  O   UNL     1      -7.466   6.450  69.002  1.00  0.00    -0.090 OA 
BRANCH   6   8
HETATM    8  C   UNL     1      -8.753   8.426  68.948  1.00  0.00    -0.136 A  
HETATM    9  C   UNL     1      -8.339   9.749  69.101  1.00  0.00    -0.137 A  
HETATM   10  C   UNL     1      -9.058  10.787  68.494  1.00  0.00    -0.170 A  
HETATM   11  C   UNL     1     -10.204  10.544  67.718  1.00  0.00    -0.223 A  
HETATM   12  C   UNL     1      -9.865   8.157  68.143  1.00  0.00    -0.194 A  
HETATM   13  C   UNL     1     -10.572   9.200  67.530  1.00  0.00    -0.317 A  
BRANCH  11  14
HETATM   14  C   UNL     1     -11.008  11.664  67.170  1.00  0.00    -0.330 A  
HETATM   15  C   UNL     1     -11.365  11.724  65.810  1.00  0.00    -0.309 A  
HETATM   16  C   UNL     1     -12.039  12.829  65.277  1.00  0.00    -0.505 A  
HETATM   17  C   UNL     1     -12.392  13.893  66.098  1.00  0.00    -0.504 A  
HETATM   18  C   UNL     1     -12.079  13.850  67.453  1.00  0.00    -0.380 A  
HETATM   19  C   UNL     1     -11.393  12.750  67.979  1.00  0.00    -0.335 A  
ENDBRANCH  11  14
ENDBRANCH   6   8
ENDBRANCH   5   6
ENDBRANCH   3   5
TORSDOF 4
ENDMDL
MODEL      129
REMARK 921   NORMALIZED FREE ENERGY PREDICTED BY IDOCK:   -3.77 KCAL/MOL
REMARK 922        TOTAL FREE ENERGY PREDICTED BY IDOCK:   -5.31 KCAL/MOL
REMARK 923 INTER-LIGAND FREE ENERGY PREDICTED BY IDOCK:   -4.54 KCAL/MOL
REMARK 924 INTRA-LIGAND FREE ENERGY PREDICTED BY IDOCK:   -0.77 KCAL/MOL
REMARK 927      BINDING AFFINITY PREDICTED BY RF-SCORE:    0.00 PKD
ROOT
HETATM    1  O   UNL     1     -12.828  15.607  70.941  1.00  0.00    -0.472 OA 
HETATM    2  C   UNL     1     -11.682  15.582  70.227  1.00  0.00    -0.346 C  
HETATM    3  C   UNL     1     -11.837  16.119  68.832  1.00  0.00    -0.159 C  
HETATM    4  O   UNL     1     -10.624  15.208  70.704  1.00  0.00    -0.203 OA 
ENDROOT
BRANCH   3   5
HETATM    5  C   UNL     1     -10.829  15.475  67.887  1.00  0.00    -0.307 C  
BRANCH   5   6
HETATM    6  C   UNL     1     -11.396  14.189  67.325  1.00  0.00    -0.332 C  
HETATM    7  O   UNL     1     -12.258  14.227  66.449  1.00  0.00    -0.436 OA 
BRANCH   6   8
HETATM    8  C   UNL     1     -10.852  12.873  67.775  1.00  0.00    -0.248 A  
HETATM    9  C   UNL     1      -9.580  12.734  68.327  1.00  0.00    -0.211 A  
HETATM   10  C   UNL     1      -9.083  11.463  68.643  1.00  0.00    -0.138 A  
HETATM   11  C   UNL     1      -9.834  10.295  68.423  1.00  0.00    -0.168 A  
HETATM   12  C   UNL     1     -11.634  11.729  67.588  1.00  0.00    -0.364 A  
HETATM   13  C   UNL     1     -11.136  10.462  67.918  1.00  0.00    -0.363 A  
BRANCH  11  14
HETATM   14  C   UNL     1      -9.251   8.953  68.668  1.00  0.00    -0.137 A  
HETATM   15  C   UNL     1      -9.200   8.392  69.958  1.00  0.00    -0.158 A  
HETATM   16  C   UNL     1      -8.562   7.171  70.202  1.00  0.00    -0.140 A  
HETATM   17  C   UNL     1      -7.977   6.468  69.154  1.00  0.00    -0.111 A  
HETATM   18  C   UNL     1      -8.038   6.982  67.863  1.00  0.00    -0.115 A  
HETATM   19  C   UNL     1      -8.663   8.211  67.626  1.00  0.00    -0.130 A  
ENDBRANCH  11  14
ENDBRANCH   6   8
ENDBRANCH   5   6
ENDBRANCH   3   5
TORSDOF 4
ENDMDL
MODEL      130
REMARK 921   NORMALIZED FREE ENERGY PREDICTED BY IDOCK:   -3.75 KCAL/MOL
REMARK 922        TOTAL FREE ENERGY PREDICTED BY IDOCK:   -5.29 KCAL/MOL
REMARK 923 INTER-LIGAND FREE ENERGY PREDICTED BY IDOCK:   -4.66 KCAL/MOL
REMARK 924 INTRA-LIGAND FREE ENERGY PREDICTED BY IDOCK:   -0.63 KCAL/MOL
REMARK 927      BINDING AFFINITY PREDICTED BY RF-SCORE:    0.00 PKD
ROOT
HETATM    1  O   UNL     1      -5.125  14.559  68.895  1.00  0.00    -0.085 OA 
HETATM    2  C   UNL     1      -6.314  15.155  69.129  1.00  0.00    -0.109 C  
HETATM    3  C   UNL     1      -6.445  16.502  68.475  1.00  0.00    -0.137 C  
HETATM    4  O   UNL     1      -7.201  14.613  69.766  1.00  0.00    -0.143 OA 
ENDROOT
BRANCH   3   5
HETATM    5  C   UNL     1      -7.392  17.399  69.264  1.00  0.00    -0.059 C  
BRANCH   5   6
HETATM    6  C   UNL     1      -8.661  17.633  68.474  1.00  0.00    -0.285 C  
HETATM    7  O   UNL     1      -9.207  18.734  68.498  1.00  0.00    -0.326 OA 
BRANCH   6   8
HETATM    8  C   UNL     1      -9.208  16.553  67.600  1.00  0.00    -0.200 A  
HETATM    9  C   UNL     1      -8.944  16.486  66.232  1.00  0.00    -0.359 A  
HETATM   10  C   UNL     1      -9.561  15.508  65.443  1.00  0.00    -0.150 A  
HETATM   11  C   UNL     1     -10.454  14.567  65.985  1.00  0.00    -0.315 A  
HETATM   12  C   UNL     1     -10.058  15.600  68.170  1.00  0.00    -0.222 A  
HETATM   13  C   UNL     1     -10.662  14.616  67.375  1.00  0.00    -0.280 A  
BRANCH  11  14
HETATM   14  C   UNL     1     -11.174  13.605  65.115  1.00  0.00    -0.318 A  
HETATM   15  C   UNL     1     -10.491  12.765  64.217  1.00  0.00    -0.423 A  
HETATM   16  C   UNL     1     -11.179  11.930  63.328  1.00  0.00    -0.382 A  
HETATM   17  C   UNL     1     -12.568  11.899  63.332  1.00  0.00    -0.555 A  
HETATM   18  C   UNL     1     -13.271  12.696  64.230  1.00  0.00     0.175 A  
HETATM   19  C   UNL     1     -12.580  13.541  65.107  1.00  0.00    -0.485 A  
ENDBRANCH  11  14
ENDBRANCH   6   8
ENDBRANCH   5   6
ENDBRANCH   3   5
TORSDOF 4
ENDMDL
MODEL      131
REMARK 921   NORMALIZED FREE ENERGY PREDICTED BY IDOCK:   -3.74 KCAL/MOL
REMARK 922        TOTAL FREE ENERGY PREDICTED BY IDOCK:   -5.28 KCAL/MOL
REMARK 923 INTER-LIGAND FREE ENERGY PREDICTED BY IDOCK:   -4.44 KCAL/MOL
REMARK 924 INTRA-LIGAND FREE ENERGY PREDICTED BY IDOCK:   -0.83 KCAL/MOL
REMARK 927      BINDING AFFINITY PREDICTED BY RF-SCORE:    0.00 PKD
ROOT
HETATM    1  O   UNL     1      -6.891   8.706  69.604  1.00  0.00    -0.045 OA 
HETATM    2  C   UNL     1      -8.188   8.843  69.252  1.00  0.00    -0.114 C  
HETATM    3  C   UNL     1      -9.054   9.370  70.362  1.00  0.00    -0.302 C  
HETATM    4  O   UNL     1      -8.585   8.610  68.124  1.00  0.00    -0.138 OA 
ENDROOT
BRANCH   3   5
HETATM    5  C   UNL     1     -10.489   8.877  70.211  1.00  0.00    -0.239 C  
BRANCH   5   6
HETATM    6  C   UNL     1     -11.443  10.051  70.220  1.00  0.00    -0.300 C  
HETATM    7  O   UNL     1     -12.295  10.146  71.101  1.00  0.00    -0.322 OA 
BRANCH   6   8
HETATM    8  C   UNL     1     -11.301  11.138  69.205  1.00  0.00    -0.340 A  
HETATM    9  C   UNL     1     -11.110  12.474  69.555  1.00  0.00    -0.073 A  
HETATM   10  C   UNL     1     -11.081  13.464  68.566  1.00  0.00    -0.299 A  
HETATM   11  C   UNL     1     -11.236  13.160  67.202  1.00  0.00    -0.326 A  
HETATM   12  C   UNL     1     -11.414  10.805  67.851  1.00  0.00    -0.306 A  
HETATM   13  C   UNL     1     -11.371  11.801  66.866  1.00  0.00    -0.386 A  
BRANCH  11  14
HETATM   14  C   UNL     1     -11.304  14.234  66.181  1.00  0.00    -0.342 A  
HETATM   15  C   UNL     1     -10.309  15.224  66.081  1.00  0.00    -0.314 A  
HETATM   16  C   UNL     1     -10.425  16.291  65.183  1.00  0.00    -0.254 A  
HETATM   17  C   UNL     1     -11.531  16.381  64.345  1.00  0.00    -0.000 A  
HETATM   18  C   UNL     1     -12.516  15.401  64.400  1.00  0.00     0.030 A  
HETATM   19  C   UNL     1     -12.404  14.343  65.310  1.00  0.00    -0.372 A  
ENDBRANCH  11  14
ENDBRANCH   6   8
ENDBRANCH   5   6
ENDBRANCH   3   5
TORSDOF 4
ENDMDL
MODEL      132
REMARK 921   NORMALIZED FREE ENERGY PREDICTED BY IDOCK:   -3.71 KCAL/MOL
REMARK 922        TOTAL FREE ENERGY PREDICTED BY IDOCK:   -5.24 KCAL/MOL
REMARK 923 INTER-LIGAND FREE ENERGY PREDICTED BY IDOCK:   -4.53 KCAL/MOL
REMARK 924 INTRA-LIGAND FREE ENERGY PREDICTED BY IDOCK:   -0.71 KCAL/MOL
REMARK 927      BINDING AFFINITY PREDICTED BY RF-SCORE:    0.00 PKD
ROOT
HETATM    1  O   UNL     1     -10.129   4.402  66.799  1.00  0.00    -0.221 OA 
HETATM    2  C   UNL     1     -10.198   5.690  67.199  1.00  0.00    -0.212 C  
HETATM    3  C   UNL     1      -8.977   6.149  67.946  1.00  0.00    -0.112 C  
HETATM    4  O   UNL     1     -11.143   6.409  66.922  1.00  0.00    -0.384 OA 
ENDROOT
BRANCH   3   5
HETATM    5  C   UNL     1      -9.328   7.256  68.933  1.00  0.00    -0.144 C  
BRANCH   5   6
HETATM    6  C   UNL     1      -8.387   8.427  68.753  1.00  0.00    -0.116 C  
HETATM    7  O   UNL     1      -7.192   8.302  69.010  1.00  0.00    -0.070 OA 
BRANCH   6   8
HETATM    8  C   UNL     1      -8.893   9.714  68.187  1.00  0.00    -0.119 A  
HETATM    9  C   UNL     1     -10.026   9.785  67.377  1.00  0.00    -0.239 A  
HETATM   10  C   UNL     1     -10.400  11.002  66.795  1.00  0.00    -0.284 A  
HETATM   11  C   UNL     1      -9.665  12.183  67.000  1.00  0.00    -0.208 A  
HETATM   12  C   UNL     1      -8.172  10.884  68.441  1.00  0.00    -0.133 A  
HETATM   13  C   UNL     1      -8.559  12.101  67.865  1.00  0.00    -0.167 A  
BRANCH  11  14
HETATM   14  C   UNL     1     -10.020  13.438  66.293  1.00  0.00    -0.298 A  
HETATM   15  C   UNL     1      -9.405  14.664  66.607  1.00  0.00    -0.293 A  
HETATM   16  C   UNL     1      -9.810  15.862  66.007  1.00  0.00    -0.366 A  
HETATM   17  C   UNL     1     -10.828  15.859  65.060  1.00  0.00    -0.444 A  
HETATM   18  C   UNL     1     -11.434  14.658  64.706  1.00  0.00    -0.410 A  
HETATM   19  C   UNL     1     -11.036  13.464  65.319  1.00  0.00    -0.306 A  
ENDBRANCH  11  14
ENDBRANCH   6   8
ENDBRANCH   5   6
ENDBRANCH   3   5
TORSDOF 4
ENDMDL
MODEL      133
REMARK 921   NORMALIZED FREE ENERGY PREDICTED BY IDOCK:   -3.71 KCAL/MOL
REMARK 922        TOTAL FREE ENERGY PREDICTED BY IDOCK:   -5.24 KCAL/MOL
REMARK 923 INTER-LIGAND FREE ENERGY PREDICTED BY IDOCK:   -4.57 KCAL/MOL
REMARK 924 INTRA-LIGAND FREE ENERGY PREDICTED BY IDOCK:   -0.67 KCAL/MOL
REMARK 927      BINDING AFFINITY PREDICTED BY RF-SCORE:    0.00 PKD
ROOT
HETATM    1  O   UNL     1      -6.405   5.397  65.467  1.00  0.00    -0.033 OA 
HETATM    2  C   UNL     1      -7.564   5.538  66.146  1.00  0.00    -0.091 C  
HETATM    3  C   UNL     1      -7.990   6.970  66.308  1.00  0.00    -0.114 C  
HETATM    4  O   UNL     1      -8.214   4.581  66.532  1.00  0.00    -0.103 OA 
ENDROOT
BRANCH   3   5
HETATM    5  C   UNL     1      -8.818   7.150  67.575  1.00  0.00    -0.119 C  
BRANCH   5   6
HETATM    6  C   UNL     1     -10.176   7.722  67.229  1.00  0.00    -0.273 C  
HETATM    7  O   UNL     1     -11.116   6.970  66.983  1.00  0.00    -0.373 OA 
BRANCH   6   8
HETATM    8  C   UNL     1     -10.396   9.199  67.265  1.00  0.00    -0.338 A  
HETATM    9  C   UNL     1      -9.954  10.050  66.252  1.00  0.00    -0.310 A  
HETATM   10  C   UNL     1     -10.102  11.436  66.382  1.00  0.00    -0.255 A  
HETATM   11  C   UNL     1     -10.694  12.019  67.517  1.00  0.00    -0.262 A  
HETATM   12  C   UNL     1     -11.028   9.753  68.383  1.00  0.00    -0.200 A  
HETATM   13  C   UNL     1     -11.183  11.140  68.500  1.00  0.00    -0.318 A  
BRANCH  11  14
HETATM   14  C   UNL     1     -10.748  13.492  67.680  1.00  0.00    -0.257 A  
HETATM   15  C   UNL     1     -11.196  14.089  68.873  1.00  0.00    -0.303 A  
HETATM   16  C   UNL     1     -11.339  15.476  68.990  1.00  0.00    -0.331 A  
HETATM   17  C   UNL     1     -11.015  16.304  67.921  1.00  0.00    -0.310 A  
HETATM   18  C   UNL     1     -10.540  15.745  66.739  1.00  0.00    -0.309 A  
HETATM   19  C   UNL     1     -10.413  14.357  66.621  1.00  0.00    -0.274 A  
ENDBRANCH  11  14
ENDBRANCH   6   8
ENDBRANCH   5   6
ENDBRANCH   3   5
TORSDOF 4
ENDMDL
MODEL      134
REMARK 921   NORMALIZED FREE ENERGY PREDICTED BY IDOCK:   -3.71 KCAL/MOL
REMARK 922        TOTAL FREE ENERGY PREDICTED BY IDOCK:   -5.23 KCAL/MOL
REMARK 923 INTER-LIGAND FREE ENERGY PREDICTED BY IDOCK:   -4.66 KCAL/MOL
REMARK 924 INTRA-LIGAND FREE ENERGY PREDICTED BY IDOCK:   -0.57 KCAL/MOL
REMARK 927      BINDING AFFINITY PREDICTED BY RF-SCORE:    0.00 PKD
ROOT
HETATM    1  O   UNL     1      -8.114   7.443  62.796  1.00  0.00    -0.136 OA 
HETATM    2  C   UNL     1      -7.713   8.465  63.583  1.00  0.00    -0.144 C  
HETATM    3  C   UNL     1      -8.850   9.180  64.258  1.00  0.00    -0.139 C  
HETATM    4  O   UNL     1      -6.536   8.730  63.758  1.00  0.00    -0.086 OA 
ENDROOT
BRANCH   3   5
HETATM    5  C   UNL     1      -8.491  10.636  64.530  1.00  0.00    -0.080 C  
BRANCH   5   6
HETATM    6  C   UNL     1      -7.942  10.781  65.932  1.00  0.00    -0.140 C  
HETATM    7  O   UNL     1      -6.764  11.087  66.103  1.00  0.00    -0.127 OA 
BRANCH   6   8
HETATM    8  C   UNL     1      -8.848  10.630  67.109  1.00  0.00    -0.139 A  
HETATM    9  C   UNL     1      -8.394  10.207  68.358  1.00  0.00    -0.113 A  
HETATM   10  C   UNL     1      -9.303   9.991  69.402  1.00  0.00    -0.237 A  
HETATM   11  C   UNL     1     -10.685  10.190  69.239  1.00  0.00    -0.259 A  
HETATM   12  C   UNL     1     -10.214  10.878  66.937  1.00  0.00    -0.272 A  
HETATM   13  C   UNL     1     -11.115  10.671  67.990  1.00  0.00    -0.361 A  
BRANCH  11  14
HETATM   14  C   UNL     1     -11.639   9.857  70.325  1.00  0.00    -0.319 A  
HETATM   15  C   UNL     1     -12.524  10.816  70.853  1.00  0.00    -0.500 A  
HETATM   16  C   UNL     1     -13.353  10.526  71.943  1.00  0.00    -0.461 A  
HETATM   17  C   UNL     1     -13.333   9.261  72.518  1.00  0.00    -0.463 A  
HETATM   18  C   UNL     1     -12.491   8.283  71.999  1.00  0.00    -0.393 A  
HETATM   19  C   UNL     1     -11.652   8.581  70.919  1.00  0.00    -0.295 A  
ENDBRANCH  11  14
ENDBRANCH   6   8
ENDBRANCH   5   6
ENDBRANCH   3   5
TORSDOF 4
ENDMDL
MODEL      135
REMARK 921   NORMALIZED FREE ENERGY PREDICTED BY IDOCK:   -3.69 KCAL/MOL
REMARK 922        TOTAL FREE ENERGY PREDICTED BY IDOCK:   -5.22 KCAL/MOL
REMARK 923 INTER-LIGAND FREE ENERGY PREDICTED BY IDOCK:   -4.56 KCAL/MOL
REMARK 924 INTRA-LIGAND FREE ENERGY PREDICTED BY IDOCK:   -0.66 KCAL/MOL
REMARK 927      BINDING AFFINITY PREDICTED BY RF-SCORE:    0.00 PKD
ROOT
HETATM    1  O   UNL     1     -12.417  16.163  70.409  1.00  0.00    -0.196 OA 
HETATM    2  C   UNL     1     -11.288  15.841  69.741  1.00  0.00    -0.339 C  
HETATM    3  C   UNL     1     -11.269  16.348  68.326  1.00  0.00    -0.300 C  
HETATM    4  O   UNL     1     -10.365  15.246  70.269  1.00  0.00    -0.253 OA 
ENDROOT
BRANCH   3   5
HETATM    5  C   UNL     1     -10.415  15.449  67.439  1.00  0.00    -0.277 C  
BRANCH   5   6
HETATM    6  C   UNL     1     -11.277  14.384  66.798  1.00  0.00    -0.337 C  
HETATM    7  O   UNL     1     -12.439  14.637  66.487  1.00  0.00    -0.193 OA 
BRANCH   6   8
HETATM    8  C   UNL     1     -10.694  13.049  66.468  1.00  0.00    -0.290 A  
HETATM    9  C   UNL     1     -11.282  12.178  65.551  1.00  0.00    -0.381 A  
HETATM   10  C   UNL     1     -10.747  10.899  65.351  1.00  0.00    -0.189 A  
HETATM   11  C   UNL     1      -9.614  10.448  66.051  1.00  0.00    -0.251 A  
HETATM   12  C   UNL     1      -9.541  12.638  67.144  1.00  0.00    -0.207 A  
HETATM   13  C   UNL     1      -9.004  11.362  66.930  1.00  0.00    -0.171 A  
BRANCH  11  14
HETATM   14  C   UNL     1      -9.125   9.056  65.900  1.00  0.00    -0.264 A  
HETATM   15  C   UNL     1      -8.191   8.702  64.910  1.00  0.00    -0.159 A  
HETATM   16  C   UNL     1      -7.806   7.372  64.706  1.00  0.00    -0.126 A  
HETATM   17  C   UNL     1      -8.332   6.364  65.505  1.00  0.00    -0.147 A  
HETATM   18  C   UNL     1      -9.235   6.686  66.513  1.00  0.00    -0.183 A  
HETATM   19  C   UNL     1      -9.629   8.015  66.703  1.00  0.00    -0.297 A  
ENDBRANCH  11  14
ENDBRANCH   6   8
ENDBRANCH   5   6
ENDBRANCH   3   5
TORSDOF 4
ENDMDL
MODEL      136
REMARK 921   NORMALIZED FREE ENERGY PREDICTED BY IDOCK:   -3.65 KCAL/MOL
REMARK 922        TOTAL FREE ENERGY PREDICTED BY IDOCK:   -5.17 KCAL/MOL
REMARK 923 INTER-LIGAND FREE ENERGY PREDICTED BY IDOCK:   -4.39 KCAL/MOL
REMARK 924 INTRA-LIGAND FREE ENERGY PREDICTED BY IDOCK:   -0.78 KCAL/MOL
REMARK 927      BINDING AFFINITY PREDICTED BY RF-SCORE:    0.00 PKD
ROOT
HETATM    1  O   UNL     1      -7.429  10.207  63.902  1.00  0.00    -0.142 OA 
HETATM    2  C   UNL     1      -8.621   9.894  64.455  1.00  0.00    -0.186 C  
HETATM    3  C   UNL     1      -9.497  11.091  64.700  1.00  0.00    -0.270 C  
HETATM    4  O   UNL     1      -8.955   8.743  64.676  1.00  0.00    -0.090 OA 
ENDROOT
BRANCH   3   5
HETATM    5  C   UNL     1     -10.435  10.845  65.876  1.00  0.00    -0.285 C  
BRANCH   5   6
HETATM    6  C   UNL     1      -9.704  11.080  67.180  1.00  0.00    -0.174 C  
HETATM    7  O   UNL     1      -9.161  12.162  67.395  1.00  0.00    -0.173 OA 
BRANCH   6   8
HETATM    8  C   UNL     1      -9.707  10.028  68.240  1.00  0.00    -0.155 A  
HETATM    9  C   UNL     1     -10.275   8.769  68.048  1.00  0.00    -0.264 A  
HETATM   10  C   UNL     1     -10.336   7.855  69.107  1.00  0.00    -0.225 A  
HETATM   11  C   UNL     1      -9.835   8.161  70.385  1.00  0.00    -0.188 A  
HETATM   12  C   UNL     1      -9.162  10.339  69.490  1.00  0.00    -0.191 A  
HETATM   13  C   UNL     1      -9.216   9.414  70.542  1.00  0.00    -0.314 A  
BRANCH  11  14
HETATM   14  C   UNL     1     -10.002   7.218  71.518  1.00  0.00    -0.191 A  
HETATM   15  C   UNL     1     -10.124   5.831  71.316  1.00  0.00    -0.253 A  
HETATM   16  C   UNL     1     -10.380   4.955  72.377  1.00  0.00    -0.262 A  
HETATM   17  C   UNL     1     -10.498   5.445  73.673  1.00  0.00    -0.291 A  
HETATM   18  C   UNL     1     -10.352   6.808  73.908  1.00  0.00    -0.397 A  
HETATM   19  C   UNL     1     -10.111   7.682  72.843  1.00  0.00    -0.343 A  
ENDBRANCH  11  14
ENDBRANCH   6   8
ENDBRANCH   5   6
ENDBRANCH   3   5
TORSDOF 4
ENDMDL
MODEL      137
REMARK 921   NORMALIZED FREE ENERGY PREDICTED BY IDOCK:   -3.64 KCAL/MOL
REMARK 922        TOTAL FREE ENERGY PREDICTED BY IDOCK:   -5.15 KCAL/MOL
REMARK 923 INTER-LIGAND FREE ENERGY PREDICTED BY IDOCK:   -4.40 KCAL/MOL
REMARK 924 INTRA-LIGAND FREE ENERGY PREDICTED BY IDOCK:   -0.75 KCAL/MOL
REMARK 927      BINDING AFFINITY PREDICTED BY RF-SCORE:    0.00 PKD
ROOT
HETATM    1  O   UNL     1      -9.701  11.786  63.099  1.00  0.00    -0.394 OA 
HETATM    2  C   UNL     1      -9.557  10.645  63.806  1.00  0.00    -0.306 C  
HETATM    3  C   UNL     1      -8.243   9.957  63.567  1.00  0.00    -0.163 C  
HETATM    4  O   UNL     1     -10.400  10.257  64.598  1.00  0.00    -0.266 OA 
ENDROOT
BRANCH   3   5
HETATM    5  C   UNL     1      -8.371   8.452  63.775  1.00  0.00    -0.059 C  
BRANCH   5   6
HETATM    6  C   UNL     1      -7.754   8.058  65.099  1.00  0.00    -0.105 C  
HETATM    7  O   UNL     1      -6.565   7.751  65.157  1.00  0.00    -0.047 OA 
BRANCH   6   8
HETATM    8  C   UNL     1      -8.566   8.117  66.350  1.00  0.00    -0.150 A  
HETATM    9  C   UNL     1      -8.221   8.924  67.434  1.00  0.00    -0.108 A  
HETATM   10  C   UNL     1      -8.964   8.868  68.619  1.00  0.00    -0.137 A  
HETATM   11  C   UNL     1     -10.072   8.015  68.764  1.00  0.00    -0.206 A  
HETATM   12  C   UNL     1      -9.691   7.292  66.456  1.00  0.00    -0.207 A  
HETATM   13  C   UNL     1     -10.437   7.251  67.641  1.00  0.00    -0.310 A  
BRANCH  11  14
HETATM   14  C   UNL     1     -10.782   7.897  70.061  1.00  0.00    -0.244 A  
HETATM   15  C   UNL     1     -10.775   8.938  71.007  1.00  0.00    -0.315 A  
HETATM   16  C   UNL     1     -11.362   8.787  72.268  1.00  0.00    -0.356 A  
HETATM   17  C   UNL     1     -11.992   7.595  72.606  1.00  0.00    -0.208 A  
HETATM   18  C   UNL     1     -12.042   6.557  71.681  1.00  0.00    -0.381 A  
HETATM   19  C   UNL     1     -11.440   6.707  70.427  1.00  0.00    -0.444 A  
ENDBRANCH  11  14
ENDBRANCH   6   8
ENDBRANCH   5   6
ENDBRANCH   3   5
TORSDOF 4
ENDMDL
MODEL      138
REMARK 921   NORMALIZED FREE ENERGY PREDICTED BY IDOCK:   -3.56 KCAL/MOL
REMARK 922        TOTAL FREE ENERGY PREDICTED BY IDOCK:   -5.05 KCAL/MOL
REMARK 923 INTER-LIGAND FREE ENERGY PREDICTED BY IDOCK:   -4.36 KCAL/MOL
REMARK 924 INTRA-LIGAND FREE ENERGY PREDICTED BY IDOCK:   -0.69 KCAL/MOL
REMARK 927      BINDING AFFINITY PREDICTED BY RF-SCORE:    0.00 PKD
ROOT
HETATM    1  O   UNL     1     -10.700  15.722  64.087  1.00  0.00    -0.033 OA 
HETATM    2  C   UNL     1     -11.436  15.046  64.995  1.00  0.00    -0.364 C  
HETATM    3  C   UNL     1     -10.697  13.901  65.628  1.00  0.00    -0.292 C  
HETATM    4  O   UNL     1     -12.568  15.383  65.298  1.00  0.00     0.453 OA 
ENDROOT
BRANCH   3   5
HETATM    5  C   UNL     1     -11.663  12.804  66.061  1.00  0.00    -0.470 C  
BRANCH   5   6
HETATM    6  C   UNL     1     -11.729  12.737  67.571  1.00  0.00    -0.364 C  
HETATM    7  O   UNL     1     -12.041  13.734  68.218  1.00  0.00    -0.362 OA 
BRANCH   6   8
HETATM    8  C   UNL     1     -11.491  11.441  68.273  1.00  0.00    -0.369 A  
HETATM    9  C   UNL     1     -11.503  11.326  69.663  1.00  0.00    -0.380 A  
HETATM   10  C   UNL     1     -11.179  10.106  70.271  1.00  0.00    -0.387 A  
HETATM   11  C   UNL     1     -10.838   8.967  69.521  1.00  0.00    -0.177 A  
HETATM   12  C   UNL     1     -11.198  10.309  67.506  1.00  0.00    -0.192 A  
HETATM   13  C   UNL     1     -10.887   9.090  68.121  1.00  0.00    -0.085 A  
BRANCH  11  14
HETATM   14  C   UNL     1     -10.399   7.716  70.187  1.00  0.00    -0.217 A  
HETATM   15  C   UNL     1     -10.175   6.531  69.462  1.00  0.00    -0.219 A  
HETATM   16  C   UNL     1      -9.857   5.328  70.103  1.00  0.00    -0.290 A  
HETATM   17  C   UNL     1      -9.733   5.287  71.487  1.00  0.00    -0.215 A  
HETATM   18  C   UNL     1      -9.919   6.449  72.229  1.00  0.00    -0.178 A  
HETATM   19  C   UNL     1     -10.252   7.646  71.585  1.00  0.00    -0.217 A  
ENDBRANCH  11  14
ENDBRANCH   6   8
ENDBRANCH   5   6
ENDBRANCH   3   5
TORSDOF 4
ENDMDL
MODEL      139
REMARK 921   NORMALIZED FREE ENERGY PREDICTED BY IDOCK:   -3.55 KCAL/MOL
REMARK 922        TOTAL FREE ENERGY PREDICTED BY IDOCK:   -5.04 KCAL/MOL
REMARK 923 INTER-LIGAND FREE ENERGY PREDICTED BY IDOCK:   -4.42 KCAL/MOL
REMARK 924 INTRA-LIGAND FREE ENERGY PREDICTED BY IDOCK:   -0.62 KCAL/MOL
REMARK 927      BINDING AFFINITY PREDICTED BY RF-SCORE:    0.00 PKD
ROOT
HETATM    1  O   UNL     1      -8.220  15.227  69.636  1.00  0.00    -0.234 OA 
HETATM    2  C   UNL     1      -7.874  14.445  68.591  1.00  0.00    -0.140 C  
HETATM    3  C   UNL     1      -9.021  14.138  67.669  1.00  0.00    -0.192 C  
HETATM    4  O   UNL     1      -6.726  14.079  68.402  1.00  0.00    -0.082 OA 
ENDROOT
BRANCH   3   5
HETATM    5  C   UNL     1      -8.817  12.796  66.976  1.00  0.00    -0.213 C  
BRANCH   5   6
HETATM    6  C   UNL     1     -10.140  12.075  66.843  1.00  0.00    -0.205 C  
HETATM    7  O   UNL     1     -10.951  12.429  65.989  1.00  0.00    -0.270 OA 
BRANCH   6   8
HETATM    8  C   UNL     1     -10.431  10.882  67.693  1.00  0.00    -0.244 A  
HETATM    9  C   UNL     1     -10.665  10.976  69.065  1.00  0.00    -0.258 A  
HETATM   10  C   UNL     1     -10.837   9.816  69.831  1.00  0.00    -0.306 A  
HETATM   11  C   UNL     1     -10.786   8.532  69.260  1.00  0.00    -0.147 A  
HETATM   12  C   UNL     1     -10.420   9.618  67.096  1.00  0.00    -0.317 A  
HETATM   13  C   UNL     1     -10.605   8.463  67.867  1.00  0.00    -0.218 A  
BRANCH  11  14
HETATM   14  C   UNL     1     -10.868   7.316  70.105  1.00  0.00    -0.274 A  
HETATM   15  C   UNL     1     -11.684   7.264  71.250  1.00  0.00    -0.328 A  
HETATM   16  C   UNL     1     -11.685   6.151  72.100  1.00  0.00    -0.361 A  
HETATM   17  C   UNL     1     -10.884   5.052  71.810  1.00  0.00    -0.094 A  
HETATM   18  C   UNL     1     -10.090   5.062  70.669  1.00  0.00    -0.313 A  
HETATM   19  C   UNL     1     -10.080   6.182  69.831  1.00  0.00    -0.227 A  
ENDBRANCH  11  14
ENDBRANCH   6   8
ENDBRANCH   5   6
ENDBRANCH   3   5
TORSDOF 4
ENDMDL
MODEL      140
REMARK 921   NORMALIZED FREE ENERGY PREDICTED BY IDOCK:   -3.55 KCAL/MOL
REMARK 922        TOTAL FREE ENERGY PREDICTED BY IDOCK:   -5.04 KCAL/MOL
REMARK 923 INTER-LIGAND FREE ENERGY PREDICTED BY IDOCK:   -4.47 KCAL/MOL
REMARK 924 INTRA-LIGAND FREE ENERGY PREDICTED BY IDOCK:   -0.57 KCAL/MOL
REMARK 927      BINDING AFFINITY PREDICTED BY RF-SCORE:    0.00 PKD
ROOT
HETATM    1  O   UNL     1      -5.633   7.617  64.688  1.00  0.00    -0.033 OA 
HETATM    2  C   UNL     1      -6.841   8.008  64.228  1.00  0.00    -0.065 C  
HETATM    3  C   UNL     1      -7.488   9.067  65.075  1.00  0.00    -0.097 C  
HETATM    4  O   UNL     1      -7.317   7.570  63.194  1.00  0.00    -0.077 OA 
ENDROOT
BRANCH   3   5
HETATM    5  C   UNL     1      -9.007   8.984  64.982  1.00  0.00    -0.198 C  
BRANCH   5   6
HETATM    6  C   UNL     1      -9.607   8.900  66.369  1.00  0.00    -0.238 C  
HETATM    7  O   UNL     1      -9.669   7.818  66.949  1.00  0.00    -0.182 OA 
BRANCH   6   8
HETATM    8  C   UNL     1     -10.052  10.143  67.068  1.00  0.00    -0.277 A  
HETATM    9  C   UNL     1      -9.440  11.379  66.866  1.00  0.00    -0.193 A  
HETATM   10  C   UNL     1      -9.834  12.492  67.619  1.00  0.00    -0.202 A  
HETATM   11  C   UNL     1     -10.847  12.413  68.591  1.00  0.00    -0.273 A  
HETATM   12  C   UNL     1     -11.092  10.050  67.998  1.00  0.00    -0.263 A  
HETATM   13  C   UNL     1     -11.490  11.170  68.739  1.00  0.00    -0.366 A  
BRANCH  11  14
HETATM   14  C   UNL     1     -11.178  13.577  69.448  1.00  0.00    -0.244 A  
HETATM   15  C   UNL     1     -12.327  13.595  70.261  1.00  0.00    -0.392 A  
HETATM   16  C   UNL     1     -12.689  14.732  70.993  1.00  0.00    -0.411 A  
HETATM   17  C   UNL     1     -11.897  15.873  70.946  1.00  0.00    -0.453 A  
HETATM   18  C   UNL     1     -10.739  15.875  70.175  1.00  0.00    -0.338 A  
HETATM   19  C   UNL     1     -10.388  14.742  69.433  1.00  0.00    -0.171 A  
ENDBRANCH  11  14
ENDBRANCH   6   8
ENDBRANCH   5   6
ENDBRANCH   3   5
TORSDOF 4
ENDMDL
MODEL      141
REMARK 921   NORMALIZED FREE ENERGY PREDICTED BY IDOCK:   -3.54 KCAL/MOL
REMARK 922        TOTAL FREE ENERGY PREDICTED BY IDOCK:   -5.03 KCAL/MOL
REMARK 923 INTER-LIGAND FREE ENERGY PREDICTED BY IDOCK:   -4.29 KCAL/MOL
REMARK 924 INTRA-LIGAND FREE ENERGY PREDICTED BY IDOCK:   -0.74 KCAL/MOL
REMARK 927      BINDING AFFINITY PREDICTED BY RF-SCORE:    0.00 PKD
ROOT
HETATM    1  O   UNL     1      -5.671  11.482  70.883  1.00  0.00    -0.297 OA 
HETATM    2  C   UNL     1      -6.056  10.610  69.927  1.00  0.00    -0.086 C  
HETATM    3  C   UNL     1      -7.014   9.564  70.424  1.00  0.00    -0.112 C  
HETATM    4  O   UNL     1      -5.693  10.712  68.767  1.00  0.00    -0.041 OA 
ENDROOT
BRANCH   3   5
HETATM    5  C   UNL     1      -6.884   8.280  69.614  1.00  0.00    -0.044 C  
BRANCH   5   6
HETATM    6  C   UNL     1      -8.161   8.022  68.844  1.00  0.00    -0.125 C  
HETATM    7  O   UNL     1      -8.734   6.939  68.947  1.00  0.00    -0.130 OA 
BRANCH   6   8
HETATM    8  C   UNL     1      -8.771   9.109  68.022  1.00  0.00    -0.129 A  
HETATM    9  C   UNL     1      -9.861   9.862  68.459  1.00  0.00    -0.168 A  
HETATM   10  C   UNL     1     -10.453  10.803  67.608  1.00  0.00    -0.252 A  
HETATM   11  C   UNL     1      -9.982  11.028  66.302  1.00  0.00    -0.269 A  
HETATM   12  C   UNL     1      -8.258   9.347  66.743  1.00  0.00    -0.112 A  
HETATM   13  C   UNL     1      -8.848  10.299  65.902  1.00  0.00    -0.176 A  
BRANCH  11  14
HETATM   14  C   UNL     1     -10.688  11.954  65.383  1.00  0.00    -0.330 A  
HETATM   15  C   UNL     1     -10.660  13.348  65.573  1.00  0.00    -0.294 A  
HETATM   16  C   UNL     1     -11.406  14.213  64.763  1.00  0.00    -0.371 A  
HETATM   17  C   UNL     1     -12.181  13.704  63.728  1.00  0.00    -0.413 A  
HETATM   18  C   UNL     1     -12.205  12.332  63.497  1.00  0.00    -0.669 A  
HETATM   19  C   UNL     1     -11.470  11.470  64.318  1.00  0.00    -0.271 A  
ENDBRANCH  11  14
ENDBRANCH   6   8
ENDBRANCH   5   6
ENDBRANCH   3   5
TORSDOF 4
ENDMDL
MODEL      142
REMARK 921   NORMALIZED FREE ENERGY PREDICTED BY IDOCK:   -3.51 KCAL/MOL
REMARK 922        TOTAL FREE ENERGY PREDICTED BY IDOCK:   -4.99 KCAL/MOL
REMARK 923 INTER-LIGAND FREE ENERGY PREDICTED BY IDOCK:   -4.26 KCAL/MOL
REMARK 924 INTRA-LIGAND FREE ENERGY PREDICTED BY IDOCK:   -0.73 KCAL/MOL
REMARK 927      BINDING AFFINITY PREDICTED BY RF-SCORE:    0.00 PKD
ROOT
HETATM    1  O   UNL     1      -6.097   5.915  67.153  1.00  0.00    -0.020 OA 
HETATM    2  C   UNL     1      -7.422   6.145  67.031  1.00  0.00    -0.087 C  
HETATM    3  C   UNL     1      -8.164   6.069  68.336  1.00  0.00    -0.110 C  
HETATM    4  O   UNL     1      -7.937   6.437  65.965  1.00  0.00    -0.106 OA 
ENDROOT
BRANCH   3   5
HETATM    5  C   UNL     1      -9.610   5.641  68.115  1.00  0.00    -0.135 C  
BRANCH   5   6
HETATM    6  C   UNL     1     -10.549   6.647  68.744  1.00  0.00    -0.236 C  
HETATM    7  O   UNL     1     -11.210   6.337  69.733  1.00  0.00    -0.368 OA 
BRANCH   6   8
HETATM    8  C   UNL     1     -10.616   8.042  68.215  1.00  0.00    -0.155 A  
HETATM    9  C   UNL     1     -10.506   8.336  66.856  1.00  0.00    -0.365 A  
HETATM   10  C   UNL     1     -10.478   9.668  66.424  1.00  0.00    -0.181 A  
HETATM   11  C   UNL     1     -10.563  10.745  67.324  1.00  0.00    -0.304 A  
HETATM   12  C   UNL     1     -10.746   9.096  69.125  1.00  0.00    -0.190 A  
HETATM   13  C   UNL     1     -10.730  10.425  68.684  1.00  0.00    -0.250 A  
BRANCH  11  14
HETATM   14  C   UNL     1     -10.429  12.146  66.856  1.00  0.00    -0.250 A  
HETATM   15  C   UNL     1     -11.398  12.747  66.032  1.00  0.00    -0.363 A  
HETATM   16  C   UNL     1     -11.222  14.034  65.511  1.00  0.00    -0.311 A  
HETATM   17  C   UNL     1     -10.079  14.762  65.822  1.00  0.00    -0.364 A  
HETATM   18  C   UNL     1      -9.117  14.206  66.659  1.00  0.00    -0.238 A  
HETATM   19  C   UNL     1      -9.290  12.913  67.165  1.00  0.00    -0.229 A  
ENDBRANCH  11  14
ENDBRANCH   6   8
ENDBRANCH   5   6
ENDBRANCH   3   5
TORSDOF 4
ENDMDL
MODEL      143
REMARK 921   NORMALIZED FREE ENERGY PREDICTED BY IDOCK:   -3.51 KCAL/MOL
REMARK 922        TOTAL FREE ENERGY PREDICTED BY IDOCK:   -4.99 KCAL/MOL
REMARK 923 INTER-LIGAND FREE ENERGY PREDICTED BY IDOCK:   -4.61 KCAL/MOL
REMARK 924 INTRA-LIGAND FREE ENERGY PREDICTED BY IDOCK:   -0.37 KCAL/MOL
REMARK 927      BINDING AFFINITY PREDICTED BY RF-SCORE:    0.00 PKD
ROOT
HETATM    1  O   UNL     1     -11.777  10.711  71.126  1.00  0.00    -0.305 OA 
HETATM    2  C   UNL     1     -11.784  10.703  69.776  1.00  0.00    -0.310 C  
HETATM    3  C   UNL     1     -10.628   9.951  69.178  1.00  0.00    -0.240 C  
HETATM    4  O   UNL     1     -12.680  11.213  69.125  1.00  0.00    -0.255 OA 
ENDROOT
BRANCH   3   5
HETATM    5  C   UNL     1     -10.268  10.509  67.806  1.00  0.00    -0.223 C  
BRANCH   5   6
HETATM    6  C   UNL     1     -10.144   9.382  66.805  1.00  0.00    -0.256 C  
HETATM    7  O   UNL     1     -10.138   9.627  65.600  1.00  0.00    -0.296 OA 
BRANCH   6   8
HETATM    8  C   UNL     1      -9.949   7.979  67.278  1.00  0.00    -0.282 A  
HETATM    9  C   UNL     1     -10.872   6.965  67.024  1.00  0.00    -0.436 A  
HETATM   10  C   UNL     1     -10.686   5.690  67.573  1.00  0.00    -0.272 A  
HETATM   11  C   UNL     1      -9.581   5.383  68.387  1.00  0.00    -0.166 A  
HETATM   12  C   UNL     1      -8.819   7.685  68.048  1.00  0.00    -0.127 A  
HETATM   13  C   UNL     1      -8.634   6.404  68.584  1.00  0.00    -0.123 A  
BRANCH  11  14
HETATM   14  C   UNL     1      -9.458   4.058  69.041  1.00  0.00    -0.243 A  
HETATM   15  C   UNL     1      -9.263   2.880  68.297  1.00  0.00    -0.247 A  
HETATM   16  C   UNL     1      -9.245   1.621  68.908  1.00  0.00    -0.194 A  
HETATM   17  C   UNL     1      -9.400   1.512  70.286  1.00  0.00    -0.164 A  
HETATM   18  C   UNL     1      -9.564   2.661  71.052  1.00  0.00    -0.210 A  
HETATM   19  C   UNL     1      -9.596   3.917  70.435  1.00  0.00    -0.266 A  
ENDBRANCH  11  14
ENDBRANCH   6   8
ENDBRANCH   5   6
ENDBRANCH   3   5
TORSDOF 4
ENDMDL
MODEL      144
REMARK 921   NORMALIZED FREE ENERGY PREDICTED BY IDOCK:   -3.48 KCAL/MOL
REMARK 922        TOTAL FREE ENERGY PREDICTED BY IDOCK:   -4.95 KCAL/MOL
REMARK 923 INTER-LIGAND FREE ENERGY PREDICTED BY IDOCK:   -4.45 KCAL/MOL
REMARK 924 INTRA-LIGAND FREE ENERGY PREDICTED BY IDOCK:   -0.50 KCAL/MOL
REMARK 927      BINDING AFFINITY PREDICTED BY RF-SCORE:    0.00 PKD
ROOT
HETATM    1  O   UNL     1      -9.324   7.531  66.610  1.00  0.00    -0.159 OA 
HETATM    2  C   UNL     1     -10.146   8.594  66.744  1.00  0.00    -0.296 C  
HETATM    3  C   UNL     1      -9.801   9.734  65.826  1.00  0.00    -0.360 C  
HETATM    4  O   UNL     1     -11.100   8.589  67.502  1.00  0.00     0.030 OA 
ENDROOT
BRANCH   3   5
HETATM    5  C   UNL     1     -10.223  11.067  66.433  1.00  0.00    -0.284 C  
BRANCH   5   6
HETATM    6  C   UNL     1      -9.098  11.633  67.272  1.00  0.00    -0.167 C  
HETATM    7  O   UNL     1      -8.444  10.894  68.004  1.00  0.00    -0.123 OA 
BRANCH   6   8
HETATM    8  C   UNL     1      -8.728  13.075  67.151  1.00  0.00    -0.204 A  
HETATM    9  C   UNL     1      -7.574  13.605  67.727  1.00  0.00    -0.167 A  
HETATM   10  C   UNL     1      -7.325  14.982  67.665  1.00  0.00    -0.209 A  
HETATM   11  C   UNL     1      -8.209  15.871  67.029  1.00  0.00    -0.255 A  
HETATM   12  C   UNL     1      -9.600  13.934  66.475  1.00  0.00    -0.299 A  
HETATM   13  C   UNL     1      -9.337  15.308  66.407  1.00  0.00    -0.328 A  
BRANCH  11  14
HETATM   14  C   UNL     1      -7.978  17.336  67.064  1.00  0.00    -0.242 A  
HETATM   15  C   UNL     1      -9.001  18.254  66.765  1.00  0.00    -0.289 A  
HETATM   16  C   UNL     1      -8.756  19.631  66.703  1.00  0.00    -0.392 A  
HETATM   17  C   UNL     1      -7.482  20.124  66.961  1.00  0.00    -0.318 A  
HETATM   18  C   UNL     1      -6.457  19.244  67.290  1.00  0.00    -0.198 A  
HETATM   19  C   UNL     1      -6.703  17.867  67.336  1.00  0.00    -0.191 A  
ENDBRANCH  11  14
ENDBRANCH   6   8
ENDBRANCH   5   6
ENDBRANCH   3   5
TORSDOF 4
ENDMDL
MODEL      145
REMARK 921   NORMALIZED FREE ENERGY PREDICTED BY IDOCK:   -3.46 KCAL/MOL
REMARK 922        TOTAL FREE ENERGY PREDICTED BY IDOCK:   -4.92 KCAL/MOL
REMARK 923 INTER-LIGAND FREE ENERGY PREDICTED BY IDOCK:   -4.21 KCAL/MOL
REMARK 924 INTRA-LIGAND FREE ENERGY PREDICTED BY IDOCK:   -0.72 KCAL/MOL
REMARK 927      BINDING AFFINITY PREDICTED BY RF-SCORE:    0.00 PKD
ROOT
HETATM    1  O   UNL     1      -8.204   9.236  62.640  1.00  0.00    -0.148 OA 
HETATM    2  C   UNL     1      -8.952   9.645  63.688  1.00  0.00    -0.216 C  
HETATM    3  C   UNL     1      -8.582   8.977  64.982  1.00  0.00    -0.207 C  
HETATM    4  O   UNL     1      -9.803  10.512  63.582  1.00  0.00    -0.312 OA 
ENDROOT
BRANCH   3   5
HETATM    5  C   UNL     1      -9.784   8.899  65.916  1.00  0.00    -0.259 C  
BRANCH   5   6
HETATM    6  C   UNL     1      -9.472   9.597  67.221  1.00  0.00    -0.143 C  
HETATM    7  O   UNL     1      -8.994   8.964  68.160  1.00  0.00    -0.137 OA 
BRANCH   6   8
HETATM    8  C   UNL     1      -9.669  11.073  67.346  1.00  0.00    -0.189 A  
HETATM    9  C   UNL     1      -8.745  11.998  66.862  1.00  0.00    -0.193 A  
HETATM   10  C   UNL     1      -8.932  13.367  67.091  1.00  0.00    -0.227 A  
HETATM   11  C   UNL     1     -10.040  13.858  67.803  1.00  0.00    -0.241 A  
HETATM   12  C   UNL     1     -10.802  11.541  68.019  1.00  0.00    -0.259 A  
HETATM   13  C   UNL     1     -10.988  12.913  68.233  1.00  0.00    -0.282 A  
BRANCH  11  14
HETATM   14  C   UNL     1     -10.166  15.301  68.122  1.00  0.00    -0.230 A  
HETATM   15  C   UNL     1      -9.800  16.298  67.200  1.00  0.00    -0.243 A  
HETATM   16  C   UNL     1      -9.826  17.656  67.539  1.00  0.00    -0.299 A  
HETATM   17  C   UNL     1     -10.243  18.051  68.805  1.00  0.00    -0.362 A  
HETATM   18  C   UNL     1     -10.641  17.089  69.729  1.00  0.00    -0.004 A  
HETATM   19  C   UNL     1     -10.598  15.732  69.391  1.00  0.00    -0.255 A  
ENDBRANCH  11  14
ENDBRANCH   6   8
ENDBRANCH   5   6
ENDBRANCH   3   5
TORSDOF 4
ENDMDL
MODEL      146
REMARK 921   NORMALIZED FREE ENERGY PREDICTED BY IDOCK:   -3.45 KCAL/MOL
REMARK 922        TOTAL FREE ENERGY PREDICTED BY IDOCK:   -4.92 KCAL/MOL
REMARK 923 INTER-LIGAND FREE ENERGY PREDICTED BY IDOCK:   -4.36 KCAL/MOL
REMARK 924 INTRA-LIGAND FREE ENERGY PREDICTED BY IDOCK:   -0.56 KCAL/MOL
REMARK 927      BINDING AFFINITY PREDICTED BY RF-SCORE:    0.00 PKD
ROOT
HETATM    1  O   UNL     1     -13.197  12.383  64.555  1.00  0.00    -0.834 OA 
HETATM    2  C   UNL     1     -12.357  13.209  65.216  1.00  0.00    -0.481 C  
HETATM    3  C   UNL     1     -12.141  12.815  66.651  1.00  0.00    -0.316 C  
HETATM    4  O   UNL     1     -11.798  14.144  64.670  1.00  0.00    -0.386 OA 
ENDROOT
BRANCH   3   5
HETATM    5  C   UNL     1     -11.815  14.034  67.505  1.00  0.00    -0.442 C  
BRANCH   5   6
HETATM    6  C   UNL     1     -10.419  13.910  68.074  1.00  0.00    -0.243 C  
HETATM    7  O   UNL     1      -9.958  14.807  68.778  1.00  0.00    -0.223 OA 
BRANCH   6   8
HETATM    8  C   UNL     1      -9.627  12.663  67.849  1.00  0.00    -0.211 A  
HETATM    9  C   UNL     1      -8.692  12.542  66.822  1.00  0.00    -0.147 A  
HETATM   10  C   UNL     1      -8.048  11.319  66.597  1.00  0.00    -0.160 A  
HETATM   11  C   UNL     1      -8.311  10.183  67.383  1.00  0.00    -0.118 A  
HETATM   12  C   UNL     1      -9.872  11.559  68.672  1.00  0.00    -0.184 A  
HETATM   13  C   UNL     1      -9.215  10.342  68.448  1.00  0.00    -0.147 A  
BRANCH  11  14
HETATM   14  C   UNL     1      -7.695   8.872  67.062  1.00  0.00    -0.098 A  
HETATM   15  C   UNL     1      -6.472   8.777  66.373  1.00  0.00    -0.062 A  
HETATM   16  C   UNL     1      -5.943   7.540  65.986  1.00  0.00    -0.038 A  
HETATM   17  C   UNL     1      -6.616   6.365  66.300  1.00  0.00    -0.048 A  
HETATM   18  C   UNL     1      -7.812   6.425  67.007  1.00  0.00    -0.104 A  
HETATM   19  C   UNL     1      -8.345   7.664  67.379  1.00  0.00    -0.116 A  
ENDBRANCH  11  14
ENDBRANCH   6   8
ENDBRANCH   5   6
ENDBRANCH   3   5
TORSDOF 4
ENDMDL
MODEL      147
REMARK 921   NORMALIZED FREE ENERGY PREDICTED BY IDOCK:   -3.41 KCAL/MOL
REMARK 922        TOTAL FREE ENERGY PREDICTED BY IDOCK:   -4.87 KCAL/MOL
REMARK 923 INTER-LIGAND FREE ENERGY PREDICTED BY IDOCK:   -4.16 KCAL/MOL
REMARK 924 INTRA-LIGAND FREE ENERGY PREDICTED BY IDOCK:   -0.71 KCAL/MOL
REMARK 927      BINDING AFFINITY PREDICTED BY RF-SCORE:    0.00 PKD
ROOT
HETATM    1  O   UNL     1      -7.328   8.236  62.848  1.00  0.00    -0.094 OA 
HETATM    2  C   UNL     1      -7.617   8.153  64.165  1.00  0.00    -0.128 C  
HETATM    3  C   UNL     1      -6.529   7.502  64.973  1.00  0.00    -0.038 C  
HETATM    4  O   UNL     1      -8.640   8.615  64.639  1.00  0.00    -0.165 OA 
ENDROOT
BRANCH   3   5
HETATM    5  C   UNL     1      -7.106   6.814  66.205  1.00  0.00    -0.066 C  
BRANCH   5   6
HETATM    6  C   UNL     1      -6.847   7.654  67.436  1.00  0.00    -0.069 C  
HETATM    7  O   UNL     1      -5.711   8.050  67.684  1.00  0.00    -0.036 OA 
BRANCH   6   8
HETATM    8  C   UNL     1      -7.985   8.070  68.310  1.00  0.00    -0.128 A  
HETATM    9  C   UNL     1      -9.289   7.616  68.115  1.00  0.00    -0.146 A  
HETATM   10  C   UNL     1     -10.334   8.113  68.903  1.00  0.00    -0.225 A  
HETATM   11  C   UNL     1     -10.117   9.072  69.908  1.00  0.00    -0.213 A  
HETATM   12  C   UNL     1      -7.738   8.991  69.333  1.00  0.00    -0.083 A  
HETATM   13  C   UNL     1      -8.787   9.475  70.126  1.00  0.00    -0.266 A  
BRANCH  11  14
HETATM   14  C   UNL     1     -11.251   9.661  70.662  1.00  0.00    -0.385 A  
HETATM   15  C   UNL     1     -12.002   8.904  71.581  1.00  0.00    -0.415 A  
HETATM   16  C   UNL     1     -13.131   9.433  72.216  1.00  0.00    -0.509 A  
HETATM   17  C   UNL     1     -13.524  10.742  71.964  1.00  0.00    -0.296 A  
HETATM   18  C   UNL     1     -12.785  11.525  71.083  1.00  0.00    -0.458 A  
HETATM   19  C   UNL     1     -11.665  10.987  70.438  1.00  0.00    -0.437 A  
ENDBRANCH  11  14
ENDBRANCH   6   8
ENDBRANCH   5   6
ENDBRANCH   3   5
TORSDOF 4
ENDMDL
MODEL      148
REMARK 921   NORMALIZED FREE ENERGY PREDICTED BY IDOCK:   -3.39 KCAL/MOL
REMARK 922        TOTAL FREE ENERGY PREDICTED BY IDOCK:   -4.85 KCAL/MOL
REMARK 923 INTER-LIGAND FREE ENERGY PREDICTED BY IDOCK:   -4.16 KCAL/MOL
REMARK 924 INTRA-LIGAND FREE ENERGY PREDICTED BY IDOCK:   -0.68 KCAL/MOL
REMARK 927      BINDING AFFINITY PREDICTED BY RF-SCORE:    0.00 PKD
ROOT
HETATM    1  O   UNL     1     -11.843  11.722  66.753  1.00  0.00    -0.586 OA 
HETATM    2  C   UNL     1     -11.047  10.796  67.331  1.00  0.00    -0.296 C  
HETATM    3  C   UNL     1     -10.404  11.273  68.603  1.00  0.00    -0.217 C  
HETATM    4  O   UNL     1     -10.921   9.671  66.879  1.00  0.00    -0.103 OA 
ENDROOT
BRANCH   3   5
HETATM    5  C   UNL     1      -9.072  10.569  68.835  1.00  0.00    -0.180 C  
BRANCH   5   6
HETATM    6  C   UNL     1      -8.007  11.167  67.943  1.00  0.00    -0.114 C  
HETATM    7  O   UNL     1      -7.470  10.479  67.078  1.00  0.00    -0.094 OA 
BRANCH   6   8
HETATM    8  C   UNL     1      -7.662  12.616  68.058  1.00  0.00    -0.139 A  
HETATM    9  C   UNL     1      -6.738  13.098  68.983  1.00  0.00    -0.103 A  
HETATM   10  C   UNL     1      -6.524  14.476  69.113  1.00  0.00    -0.105 A  
HETATM   11  C   UNL     1      -7.217  15.414  68.329  1.00  0.00    -0.118 A  
HETATM   12  C   UNL     1      -8.332  13.528  67.236  1.00  0.00    -0.188 A  
HETATM   13  C   UNL     1      -8.103  14.905  67.364  1.00  0.00    -0.218 A  
BRANCH  11  14
HETATM   14  C   UNL     1      -7.051  16.871  68.554  1.00  0.00    -0.198 A  
HETATM   15  C   UNL     1      -5.930  17.394  69.226  1.00  0.00    -0.219 A  
HETATM   16  C   UNL     1      -5.824  18.757  69.523  1.00  0.00    -0.260 A  
HETATM   17  C   UNL     1      -6.828  19.636  69.135  1.00  0.00    -0.383 A  
HETATM   18  C   UNL     1      -7.934  19.154  68.443  1.00  0.00    -0.376 A  
HETATM   19  C   UNL     1      -8.044  17.788  68.161  1.00  0.00    -0.265 A  
ENDBRANCH  11  14
ENDBRANCH   6   8
ENDBRANCH   5   6
ENDBRANCH   3   5
TORSDOF 4
ENDMDL
MODEL      149
REMARK 921   NORMALIZED FREE ENERGY PREDICTED BY IDOCK:   -3.30 KCAL/MOL
REMARK 922        TOTAL FREE ENERGY PREDICTED BY IDOCK:   -4.73 KCAL/MOL
REMARK 923 INTER-LIGAND FREE ENERGY PREDICTED BY IDOCK:   -4.21 KCAL/MOL
REMARK 924 INTRA-LIGAND FREE ENERGY PREDICTED BY IDOCK:   -0.52 KCAL/MOL
REMARK 927      BINDING AFFINITY PREDICTED BY RF-SCORE:    0.00 PKD
ROOT
HETATM    1  O   UNL     1      -5.126  11.867  67.866  1.00  0.00    -0.047 OA 
HETATM    2  C   UNL     1      -5.925  12.725  68.536  1.00  0.00    -0.062 C  
HETATM    3  C   UNL     1      -5.713  14.163  68.151  1.00  0.00    -0.128 C  
HETATM    4  O   UNL     1      -6.768  12.345  69.331  1.00  0.00    -0.098 OA 
ENDROOT
BRANCH   3   5
HETATM    5  C   UNL     1      -6.053  15.091  69.311  1.00  0.00    -0.107 C  
BRANCH   5   6
HETATM    6  C   UNL     1      -7.308  15.876  68.996  1.00  0.00    -0.185 C  
HETATM    7  O   UNL     1      -7.453  17.011  69.444  1.00  0.00    -0.157 OA 
BRANCH   6   8
HETATM    8  C   UNL     1      -8.335  15.305  68.074  1.00  0.00    -0.146 A  
HETATM    9  C   UNL     1      -9.190  14.270  68.449  1.00  0.00    -0.196 A  
HETATM   10  C   UNL     1     -10.068  13.708  67.515  1.00  0.00    -0.237 A  
HETATM   11  C   UNL     1     -10.127  14.157  66.184  1.00  0.00    -0.324 A  
HETATM   12  C   UNL     1      -8.406  15.798  66.767  1.00  0.00    -0.309 A  
HETATM   13  C   UNL     1      -9.297  15.239  65.841  1.00  0.00    -0.308 A  
BRANCH  11  14
HETATM   14  C   UNL     1     -10.990  13.480  65.185  1.00  0.00    -0.328 A  
HETATM   15  C   UNL     1     -12.389  13.631  65.193  1.00  0.00    -0.486 A  
HETATM   16  C   UNL     1     -13.208  12.915  64.312  1.00  0.00     0.377 A  
HETATM   17  C   UNL     1     -12.644  12.045  63.385  1.00  0.00    -0.592 A  
HETATM   18  C   UNL     1     -11.262  11.898  63.334  1.00  0.00    -0.463 A  
HETATM   19  C   UNL     1     -10.448  12.605  64.226  1.00  0.00    -0.417 A  
ENDBRANCH  11  14
ENDBRANCH   6   8
ENDBRANCH   5   6
ENDBRANCH   3   5
TORSDOF 4
ENDMDL
MODEL      150
REMARK 921   NORMALIZED FREE ENERGY PREDICTED BY IDOCK:   -3.21 KCAL/MOL
REMARK 922        TOTAL FREE ENERGY PREDICTED BY IDOCK:   -4.62 KCAL/MOL
REMARK 923 INTER-LIGAND FREE ENERGY PREDICTED BY IDOCK:   -3.91 KCAL/MOL
REMARK 924 INTRA-LIGAND FREE ENERGY PREDICTED BY IDOCK:   -0.71 KCAL/MOL
REMARK 927      BINDING AFFINITY PREDICTED BY RF-SCORE:    0.00 PKD
ROOT
HETATM    1  O   UNL     1      -7.576  14.889  69.404  1.00  0.00    -0.170 OA 
HETATM    2  C   UNL     1      -6.505  14.169  69.006  1.00  0.00    -0.099 C  
HETATM    3  C   UNL     1      -6.620  13.658  67.598  1.00  0.00    -0.176 C  
HETATM    4  O   UNL     1      -5.527  14.008  69.716  1.00  0.00    -0.092 OA 
ENDROOT
BRANCH   3   5
HETATM    5  C   UNL     1      -5.831  12.366  67.422  1.00  0.00    -0.149 C  
BRANCH   5   6
HETATM    6  C   UNL     1      -6.735  11.274  66.893  1.00  0.00    -0.135 C  
HETATM    7  O   UNL     1      -6.588  10.854  65.747  1.00  0.00    -0.099 OA 
BRANCH   6   8
HETATM    8  C   UNL     1      -7.755  10.649  67.787  1.00  0.00    -0.100 A  
HETATM    9  C   UNL     1      -7.593  10.564  69.169  1.00  0.00    -0.123 A  
HETATM   10  C   UNL     1      -8.535   9.882  69.949  1.00  0.00    -0.210 A  
HETATM   11  C   UNL     1      -9.666   9.268  69.382  1.00  0.00    -0.175 A  
HETATM   12  C   UNL     1      -8.895  10.084  67.206  1.00  0.00    -0.141 A  
HETATM   13  C   UNL     1      -9.840   9.414  67.995  1.00  0.00    -0.191 A  
BRANCH  11  14
HETATM   14  C   UNL     1     -10.597   8.465  70.212  1.00  0.00    -0.234 A  
HETATM   15  C   UNL     1     -10.945   7.145  69.868  1.00  0.00    -0.278 A  
HETATM   16  C   UNL     1     -11.897   6.425  70.597  1.00  0.00    -0.318 A  
HETATM   17  C   UNL     1     -12.510   7.000  71.704  1.00  0.00    -0.413 A  
HETATM   18  C   UNL     1     -12.165   8.292  72.087  1.00  0.00    -0.418 A  
HETATM   19  C   UNL     1     -11.223   9.015  71.347  1.00  0.00    -0.394 A  
ENDBRANCH  11  14
ENDBRANCH   6   8
ENDBRANCH   5   6
ENDBRANCH   3   5
TORSDOF 4
ENDMDL
MODEL      151
REMARK 921   NORMALIZED FREE ENERGY PREDICTED BY IDOCK:   -3.20 KCAL/MOL
REMARK 922        TOTAL FREE ENERGY PREDICTED BY IDOCK:   -4.61 KCAL/MOL
REMARK 923 INTER-LIGAND FREE ENERGY PREDICTED BY IDOCK:   -3.96 KCAL/MOL
REMARK 924 INTRA-LIGAND FREE ENERGY PREDICTED BY IDOCK:   -0.64 KCAL/MOL
REMARK 927      BINDING AFFINITY PREDICTED BY RF-SCORE:    0.00 PKD
ROOT
HETATM    1  O   UNL     1      -8.090   7.413  62.384  1.00  0.00    -0.136 OA 
HETATM    2  C   UNL     1      -7.557   7.397  63.624  1.00  0.00    -0.121 C  
HETATM    3  C   UNL     1      -8.035   8.526  64.493  1.00  0.00    -0.145 C  
HETATM    4  O   UNL     1      -6.806   6.513  64.000  1.00  0.00    -0.043 OA 
ENDROOT
BRANCH   3   5
HETATM    5  C   UNL     1      -6.984   8.894  65.534  1.00  0.00    -0.080 C  
BRANCH   5   6
HETATM    6  C   UNL     1      -7.358   8.308  66.878  1.00  0.00    -0.084 C  
HETATM    7  O   UNL     1      -6.688   7.397  67.360  1.00  0.00    -0.064 OA 
BRANCH   6   8
HETATM    8  C   UNL     1      -8.493   8.888  67.657  1.00  0.00    -0.121 A  
HETATM    9  C   UNL     1      -8.975  10.178  67.437  1.00  0.00    -0.142 A  
HETATM   10  C   UNL     1      -9.976  10.706  68.261  1.00  0.00    -0.173 A  
HETATM   11  C   UNL     1     -10.531   9.971  69.324  1.00  0.00    -0.245 A  
HETATM   12  C   UNL     1      -9.060   8.122  68.680  1.00  0.00    -0.143 A  
HETATM   13  C   UNL     1     -10.070   8.653  69.493  1.00  0.00    -0.203 A  
BRANCH  11  14
HETATM   14  C   UNL     1     -11.516  10.585  70.247  1.00  0.00    -0.416 A  
HETATM   15  C   UNL     1     -11.766  11.970  70.248  1.00  0.00    -0.267 A  
HETATM   16  C   UNL     1     -12.622  12.559  71.185  1.00  0.00    -0.349 A  
HETATM   17  C   UNL     1     -13.268  11.772  72.132  1.00  0.00    -0.342 A  
HETATM   18  C   UNL     1     -13.065  10.396  72.136  1.00  0.00    -0.427 A  
HETATM   19  C   UNL     1     -12.196   9.813  71.207  1.00  0.00    -0.465 A  
ENDBRANCH  11  14
ENDBRANCH   6   8
ENDBRANCH   5   6
ENDBRANCH   3   5
TORSDOF 4
ENDMDL
MODEL      152
REMARK 921   NORMALIZED FREE ENERGY PREDICTED BY IDOCK:   -3.12 KCAL/MOL
REMARK 922        TOTAL FREE ENERGY PREDICTED BY IDOCK:   -4.50 KCAL/MOL
REMARK 923 INTER-LIGAND FREE ENERGY PREDICTED BY IDOCK:   -3.84 KCAL/MOL
REMARK 924 INTRA-LIGAND FREE ENERGY PREDICTED BY IDOCK:   -0.67 KCAL/MOL
REMARK 927      BINDING AFFINITY PREDICTED BY RF-SCORE:    0.00 PKD
ROOT
HETATM    1  O   UNL     1      -7.013  12.103  68.177  1.00  0.00    -0.070 OA 
HETATM    2  C   UNL     1      -8.346  12.118  67.963  1.00  0.00    -0.167 C  
HETATM    3  C   UNL     1      -9.091  11.091  68.770  1.00  0.00    -0.161 C  
HETATM    4  O   UNL     1      -8.879  12.928  67.225  1.00  0.00    -0.189 OA 
ENDROOT
BRANCH   3   5
HETATM    5  C   UNL     1     -10.365  10.657  68.054  1.00  0.00    -0.208 C  
BRANCH   5   6
HETATM    6  C   UNL     1     -10.329   9.168  67.791  1.00  0.00    -0.245 C  
HETATM    7  O   UNL     1     -10.313   8.747  66.636  1.00  0.00    -0.279 OA 
BRANCH   6   8
HETATM    8  C   UNL     1     -10.232   8.209  68.932  1.00  0.00    -0.221 A  
HETATM    9  C   UNL     1      -9.081   7.469  69.196  1.00  0.00    -0.138 A  
HETATM   10  C   UNL     1      -9.078   6.513  70.220  1.00  0.00    -0.155 A  
HETATM   11  C   UNL     1     -10.213   6.266  71.012  1.00  0.00    -0.234 A  
HETATM   12  C   UNL     1     -11.360   8.011  69.735  1.00  0.00     0.120 A  
HETATM   13  C   UNL     1     -11.345   7.062  70.765  1.00  0.00    -0.339 A  
BRANCH  11  14
HETATM   14  C   UNL     1     -10.219   5.179  72.022  1.00  0.00    -0.260 A  
HETATM   15  C   UNL     1      -9.941   3.844  71.675  1.00  0.00    -0.223 A  
HETATM   16  C   UNL     1     -10.044   2.807  72.609  1.00  0.00    -0.232 A  
HETATM   17  C   UNL     1     -10.408   3.084  73.922  1.00  0.00    -0.225 A  
HETATM   18  C   UNL     1     -10.659   4.398  74.302  1.00  0.00    -0.314 A  
HETATM   19  C   UNL     1     -10.570   5.430  73.362  1.00  0.00    -0.297 A  
ENDBRANCH  11  14
ENDBRANCH   6   8
ENDBRANCH   5   6
ENDBRANCH   3   5
TORSDOF 4
ENDMDL
MODEL      153
REMARK 921   NORMALIZED FREE ENERGY PREDICTED BY IDOCK:   -3.10 KCAL/MOL
REMARK 922        TOTAL FREE ENERGY PREDICTED BY IDOCK:   -4.49 KCAL/MOL
REMARK 923 INTER-LIGAND FREE ENERGY PREDICTED BY IDOCK:   -3.89 KCAL/MOL
REMARK 924 INTRA-LIGAND FREE ENERGY PREDICTED BY IDOCK:   -0.60 KCAL/MOL
REMARK 927      BINDING AFFINITY PREDICTED BY RF-SCORE:    0.00 PKD
ROOT
HETATM    1  O   UNL     1     -10.829  19.016  68.098  1.00  0.00    -0.220 OA 
HETATM    2  C   UNL     1      -9.971  18.114  67.574  1.00  0.00    -0.332 C  
HETATM    3  C   UNL     1     -10.658  16.974  66.876  1.00  0.00    -0.208 C  
HETATM    4  O   UNL     1      -8.762  18.259  67.626  1.00  0.00    -0.252 OA 
ENDROOT
BRANCH   3   5
HETATM    5  C   UNL     1      -9.803  15.714  66.924  1.00  0.00    -0.245 C  
BRANCH   5   6
HETATM    6  C   UNL     1     -10.504  14.643  67.731  1.00  0.00    -0.246 C  
HETATM    7  O   UNL     1     -11.384  14.952  68.531  1.00  0.00    -0.270 OA 
BRANCH   6   8
HETATM    8  C   UNL     1     -10.185  13.202  67.499  1.00  0.00    -0.225 A  
HETATM    9  C   UNL     1      -9.902  12.318  68.539  1.00  0.00    -0.157 A  
HETATM   10  C   UNL     1      -9.515  11.002  68.259  1.00  0.00    -0.172 A  
HETATM   11  C   UNL     1      -9.399  10.523  66.942  1.00  0.00    -0.181 A  
HETATM   12  C   UNL     1     -10.119  12.736  66.182  1.00  0.00    -0.274 A  
HETATM   13  C   UNL     1      -9.742  11.415  65.910  1.00  0.00    -0.257 A  
BRANCH  11  14
HETATM   14  C   UNL     1      -8.889   9.158  66.666  1.00  0.00    -0.147 A  
HETATM   15  C   UNL     1      -7.689   8.944  65.963  1.00  0.00    -0.098 A  
HETATM   16  C   UNL     1      -7.261   7.657  65.618  1.00  0.00    -0.065 A  
HETATM   17  C   UNL     1      -8.013   6.549  65.989  1.00  0.00    -0.112 A  
HETATM   18  C   UNL     1      -9.189   6.726  66.712  1.00  0.00    -0.172 A  
HETATM   19  C   UNL     1      -9.621   8.016  67.041  1.00  0.00    -0.252 A  
ENDBRANCH  11  14
ENDBRANCH   6   8
ENDBRANCH   5   6
ENDBRANCH   3   5
TORSDOF 4
ENDMDL
MODEL      154
REMARK 921   NORMALIZED FREE ENERGY PREDICTED BY IDOCK:   -2.92 KCAL/MOL
REMARK 922        TOTAL FREE ENERGY PREDICTED BY IDOCK:   -4.26 KCAL/MOL
REMARK 923 INTER-LIGAND FREE ENERGY PREDICTED BY IDOCK:   -3.49 KCAL/MOL
REMARK 924 INTRA-LIGAND FREE ENERGY PREDICTED BY IDOCK:   -0.77 KCAL/MOL
REMARK 927      BINDING AFFINITY PREDICTED BY RF-SCORE:    0.00 PKD
ROOT
HETATM    1  O   UNL     1      -8.382   3.838  66.012  1.00  0.00    -0.107 OA 
HETATM    2  C   UNL     1      -8.680   4.622  67.071  1.00  0.00    -0.104 C  
HETATM    3  C   UNL     1      -7.699   4.495  68.202  1.00  0.00    -0.080 C  
HETATM    4  O   UNL     1      -9.626   5.392  67.066  1.00  0.00    -0.125 OA 
ENDROOT
BRANCH   3   5
HETATM    5  C   UNL     1      -8.370   4.789  69.538  1.00  0.00    -0.086 C  
BRANCH   5   6
HETATM    6  C   UNL     1      -7.725   5.995  70.187  1.00  0.00    -0.096 C  
HETATM    7  O   UNL     1      -6.641   5.882  70.755  1.00  0.00    -0.041 OA 
BRANCH   6   8
HETATM    8  C   UNL     1      -8.365   7.339  70.069  1.00  0.00    -0.137 A  
HETATM    9  C   UNL     1      -9.180   7.874  71.066  1.00  0.00    -0.164 A  
HETATM   10  C   UNL     1      -9.832   9.096  70.862  1.00  0.00    -0.359 A  
HETATM   11  C   UNL     1      -9.693   9.825  69.668  1.00  0.00    -0.242 A  
HETATM   12  C   UNL     1      -8.177   8.067  68.890  1.00  0.00    -0.125 A  
HETATM   13  C   UNL     1      -8.823   9.295  68.698  1.00  0.00    -0.132 A  
BRANCH  11  14
HETATM   14  C   UNL     1     -10.472  11.065  69.432  1.00  0.00    -0.177 A  
HETATM   15  C   UNL     1     -10.112  11.987  68.433  1.00  0.00    -0.211 A  
HETATM   16  C   UNL     1     -10.789  13.202  68.278  1.00  0.00    -0.274 A  
HETATM   17  C   UNL     1     -11.861  13.514  69.107  1.00  0.00    -0.386 A  
HETATM   18  C   UNL     1     -12.259  12.609  70.085  1.00  0.00    -0.310 A  
HETATM   19  C   UNL     1     -11.570  11.402  70.246  1.00  0.00    -0.334 A  
ENDBRANCH  11  14
ENDBRANCH   6   8
ENDBRANCH   5   6
ENDBRANCH   3   5
TORSDOF 4
ENDMDL
MODEL      155
REMARK 921   NORMALIZED FREE ENERGY PREDICTED BY IDOCK:   -2.87 KCAL/MOL
REMARK 922        TOTAL FREE ENERGY PREDICTED BY IDOCK:   -4.21 KCAL/MOL
REMARK 923 INTER-LIGAND FREE ENERGY PREDICTED BY IDOCK:   -3.49 KCAL/MOL
REMARK 924 INTRA-LIGAND FREE ENERGY PREDICTED BY IDOCK:   -0.72 KCAL/MOL
REMARK 927      BINDING AFFINITY PREDICTED BY RF-SCORE:    0.00 PKD
ROOT
HETATM    1  O   UNL     1      -5.197   5.002  67.678  1.00  0.00    -0.007 OA 
HETATM    2  C   UNL     1      -6.106   5.309  66.727  1.00  0.00    -0.030 C  
HETATM    3  C   UNL     1      -7.525   5.244  67.216  1.00  0.00    -0.084 C  
HETATM    4  O   UNL     1      -5.782   5.656  65.604  1.00  0.00    -0.013 OA 
ENDROOT
BRANCH   3   5
HETATM    5  C   UNL     1      -8.478   4.905  66.075  1.00  0.00    -0.117 C  
BRANCH   5   6
HETATM    6  C   UNL     1      -9.797   5.618  66.272  1.00  0.00    -0.123 C  
HETATM    7  O   UNL     1     -10.843   4.975  66.329  1.00  0.00    -0.285 OA 
BRANCH   6   8
HETATM    8  C   UNL     1      -9.824   7.097  66.479  1.00  0.00    -0.189 A  
HETATM    9  C   UNL     1     -10.423   7.691  67.590  1.00  0.00    -0.313 A  
HETATM   10  C   UNL     1     -10.504   9.085  67.685  1.00  0.00    -0.324 A  
HETATM   11  C   UNL     1      -9.993   9.932  66.686  1.00  0.00    -0.277 A  
HETATM   12  C   UNL     1      -9.270   7.920  65.493  1.00  0.00     0.146 A  
HETATM   13  C   UNL     1      -9.344   9.314  65.601  1.00  0.00    -0.308 A  
BRANCH  11  14
HETATM   14  C   UNL     1     -10.181  11.401  66.758  1.00  0.00    -0.258 A  
HETATM   15  C   UNL     1     -10.174  12.090  67.985  1.00  0.00    -0.203 A  
HETATM   16  C   UNL     1     -10.449  13.460  68.058  1.00  0.00    -0.243 A  
HETATM   17  C   UNL     1     -10.717  14.181  66.900  1.00  0.00    -0.286 A  
HETATM   18  C   UNL     1     -10.701  13.534  65.669  1.00  0.00    -0.284 A  
HETATM   19  C   UNL     1     -10.441  12.161  65.601  1.00  0.00    -0.290 A  
ENDBRANCH  11  14
ENDBRANCH   6   8
ENDBRANCH   5   6
ENDBRANCH   3   5
TORSDOF 4
ENDMDL
MODEL      156
REMARK 921   NORMALIZED FREE ENERGY PREDICTED BY IDOCK:   -2.86 KCAL/MOL
REMARK 922        TOTAL FREE ENERGY PREDICTED BY IDOCK:   -4.19 KCAL/MOL
REMARK 923 INTER-LIGAND FREE ENERGY PREDICTED BY IDOCK:   -3.52 KCAL/MOL
REMARK 924 INTRA-LIGAND FREE ENERGY PREDICTED BY IDOCK:   -0.67 KCAL/MOL
REMARK 927      BINDING AFFINITY PREDICTED BY RF-SCORE:    0.00 PKD
ROOT
HETATM    1  O   UNL     1      -7.543  10.097  69.658  1.00  0.00    -0.123 OA 
HETATM    2  C   UNL     1      -8.611  10.717  69.112  1.00  0.00    -0.128 C  
HETATM    3  C   UNL     1      -9.876   9.910  69.196  1.00  0.00    -0.204 C  
HETATM    4  O   UNL     1      -8.545  11.843  68.649  1.00  0.00    -0.131 OA 
ENDROOT
BRANCH   3   5
HETATM    5  C   UNL     1     -10.817  10.253  68.047  1.00  0.00    -0.325 C  
BRANCH   5   6
HETATM    6  C   UNL     1     -10.242   9.752  66.740  1.00  0.00    -0.233 C  
HETATM    7  O   UNL     1      -9.950  10.548  65.851  1.00  0.00    -0.229 OA 
BRANCH   6   8
HETATM    8  C   UNL     1      -9.954   8.298  66.559  1.00  0.00    -0.320 A  
HETATM    9  C   UNL     1     -10.758   7.298  67.106  1.00  0.00    -0.413 A  
HETATM   10  C   UNL     1     -10.388   5.953  66.986  1.00  0.00    -0.298 A  
HETATM   11  C   UNL     1      -9.215   5.559  66.319  1.00  0.00    -0.161 A  
HETATM   12  C   UNL     1      -8.805   7.928  65.853  1.00  0.00    -0.183 A  
HETATM   13  C   UNL     1      -8.448   6.579  65.727  1.00  0.00    -0.149 A  
BRANCH  11  14
HETATM   14  C   UNL     1      -8.790   4.138  66.293  1.00  0.00    -0.118 A  
HETATM   15  C   UNL     1      -8.978   3.288  67.398  1.00  0.00    -0.176 A  
HETATM   16  C   UNL     1      -8.488   1.977  67.407  1.00  0.00    -0.095 A  
HETATM   17  C   UNL     1      -7.816   1.477  66.298  1.00  0.00    -0.070 A  
HETATM   18  C   UNL     1      -7.640   2.283  65.178  1.00  0.00    -0.072 A  
HETATM   19  C   UNL     1      -8.118   3.598  65.180  1.00  0.00    -0.097 A  
ENDBRANCH  11  14
ENDBRANCH   6   8
ENDBRANCH   5   6
ENDBRANCH   3   5
TORSDOF 4
ENDMDL
MODEL      157
REMARK 921   NORMALIZED FREE ENERGY PREDICTED BY IDOCK:   -2.83 KCAL/MOL
REMARK 922        TOTAL FREE ENERGY PREDICTED BY IDOCK:   -4.15 KCAL/MOL
REMARK 923 INTER-LIGAND FREE ENERGY PREDICTED BY IDOCK:   -3.84 KCAL/MOL
REMARK 924 INTRA-LIGAND FREE ENERGY PREDICTED BY IDOCK:   -0.31 KCAL/MOL
REMARK 927      BINDING AFFINITY PREDICTED BY RF-SCORE:    0.00 PKD
ROOT
HETATM    1  O   UNL     1      -7.955   8.272  70.136  1.00  0.00    -0.100 OA 
HETATM    2  C   UNL     1      -8.444   9.527  70.038  1.00  0.00    -0.195 C  
HETATM    3  C   UNL     1      -9.921   9.614  70.299  1.00  0.00    -0.326 C  
HETATM    4  O   UNL     1      -7.729  10.489  69.812  1.00  0.00    -0.149 OA 
ENDROOT
BRANCH   3   5
HETATM    5  C   UNL     1     -10.539  10.784  69.543  1.00  0.00    -0.235 C  
BRANCH   5   6
HETATM    6  C   UNL     1     -11.016  10.327  68.182  1.00  0.00    -0.274 C  
HETATM    7  O   UNL     1     -11.809  11.017  67.544  1.00  0.00    -0.571 OA 
BRANCH   6   8
HETATM    8  C   UNL     1     -10.466   9.078  67.577  1.00  0.00    -0.338 A  
HETATM    9  C   UNL     1      -9.444   9.090  66.627  1.00  0.00    -0.251 A  
HETATM   10  C   UNL     1      -9.032   7.896  66.021  1.00  0.00    -0.195 A  
HETATM   11  C   UNL     1      -9.618   6.658  66.340  1.00  0.00    -0.147 A  
HETATM   12  C   UNL     1     -11.032   7.853  67.942  1.00  0.00     0.069 A  
HETATM   13  C   UNL     1     -10.606   6.662  67.340  1.00  0.00    -0.370 A  
BRANCH  11  14
HETATM   14  C   UNL     1      -9.238   5.422  65.613  1.00  0.00    -0.125 A  
HETATM   15  C   UNL     1      -9.837   4.182  65.899  1.00  0.00    -0.206 A  
HETATM   16  C   UNL     1      -9.408   3.001  65.281  1.00  0.00    -0.122 A  
HETATM   17  C   UNL     1      -8.381   3.037  64.344  1.00  0.00    -0.086 A  
HETATM   18  C   UNL     1      -7.790   4.253  64.018  1.00  0.00    -0.085 A  
HETATM   19  C   UNL     1      -8.212   5.429  64.649  1.00  0.00    -0.133 A  
ENDBRANCH  11  14
ENDBRANCH   6   8
ENDBRANCH   5   6
ENDBRANCH   3   5
TORSDOF 4
ENDMDL
MODEL      158
REMARK 921   NORMALIZED FREE ENERGY PREDICTED BY IDOCK:   -2.74 KCAL/MOL
REMARK 922        TOTAL FREE ENERGY PREDICTED BY IDOCK:   -4.04 KCAL/MOL
REMARK 923 INTER-LIGAND FREE ENERGY PREDICTED BY IDOCK:   -3.59 KCAL/MOL
REMARK 924 INTRA-LIGAND FREE ENERGY PREDICTED BY IDOCK:   -0.44 KCAL/MOL
REMARK 927      BINDING AFFINITY PREDICTED BY RF-SCORE:    0.00 PKD
ROOT
HETATM    1  O   UNL     1     -10.328  10.641  66.859  1.00  0.00    -0.217 OA 
HETATM    2  C   UNL     1     -10.138  10.587  68.195  1.00  0.00    -0.158 C  
HETATM    3  C   UNL     1      -9.349   9.387  68.637  1.00  0.00    -0.142 C  
HETATM    4  O   UNL     1     -10.528  11.465  68.945  1.00  0.00    -0.200 OA 
ENDROOT
BRANCH   3   5
HETATM    5  C   UNL     1      -9.728   8.980  70.056  1.00  0.00    -0.203 C  
BRANCH   5   6
HETATM    6  C   UNL     1     -10.549   7.709  70.028  1.00  0.00    -0.238 C  
HETATM    7  O   UNL     1     -11.427   7.524  70.868  1.00  0.00    -0.274 OA 
BRANCH   6   8
HETATM    8  C   UNL     1     -10.348   6.712  68.934  1.00  0.00    -0.216 A  
HETATM    9  C   UNL     1      -9.508   5.608  69.068  1.00  0.00    -0.159 A  
HETATM   10  C   UNL     1      -9.281   4.759  67.978  1.00  0.00    -0.151 A  
HETATM   11  C   UNL     1      -9.882   4.978  66.725  1.00  0.00    -0.212 A  
HETATM   12  C   UNL     1     -10.991   6.926  67.710  1.00  0.00    -0.280 A  
HETATM   13  C   UNL     1     -10.769   6.065  66.628  1.00  0.00    -0.315 A  
BRANCH  11  14
HETATM   14  C   UNL     1      -9.548   4.126  65.557  1.00  0.00    -0.188 A  
HETATM   15  C   UNL     1      -8.273   3.554  65.398  1.00  0.00    -0.097 A  
HETATM   16  C   UNL     1      -7.931   2.834  64.248  1.00  0.00    -0.082 A  
HETATM   17  C   UNL     1      -8.866   2.649  63.237  1.00  0.00    -0.085 A  
HETATM   18  C   UNL     1     -10.145   3.177  63.379  1.00  0.00    -0.159 A  
HETATM   19  C   UNL     1     -10.479   3.909  64.523  1.00  0.00    -0.221 A  
ENDBRANCH  11  14
ENDBRANCH   6   8
ENDBRANCH   5   6
ENDBRANCH   3   5
TORSDOF 4
ENDMDL
MODEL      159
REMARK 921   NORMALIZED FREE ENERGY PREDICTED BY IDOCK:   -2.70 KCAL/MOL
REMARK 922        TOTAL FREE ENERGY PREDICTED BY IDOCK:   -3.99 KCAL/MOL
REMARK 923 INTER-LIGAND FREE ENERGY PREDICTED BY IDOCK:   -3.25 KCAL/MOL
REMARK 924 INTRA-LIGAND FREE ENERGY PREDICTED BY IDOCK:   -0.74 KCAL/MOL
REMARK 927      BINDING AFFINITY PREDICTED BY RF-SCORE:    0.00 PKD
ROOT
HETATM    1  O   UNL     1     -11.820   8.462  72.611  1.00  0.00    -0.393 OA 
HETATM    2  C   UNL     1     -10.550   8.062  72.838  1.00  0.00    -0.329 C  
HETATM    3  C   UNL     1      -9.567   8.606  71.839  1.00  0.00    -0.377 C  
HETATM    4  O   UNL     1     -10.244   7.374  73.796  1.00  0.00    -0.342 OA 
ENDROOT
BRANCH   3   5
HETATM    5  C   UNL     1      -8.382   7.662  71.675  1.00  0.00    -0.118 C  
BRANCH   5   6
HETATM    6  C   UNL     1      -8.595   6.766  70.474  1.00  0.00    -0.142 C  
HETATM    7  O   UNL     1      -8.903   5.587  70.633  1.00  0.00    -0.129 OA 
BRANCH   6   8
HETATM    8  C   UNL     1      -8.511   7.331  69.095  1.00  0.00    -0.133 A  
HETATM    9  C   UNL     1      -9.507   7.133  68.139  1.00  0.00    -0.132 A  
HETATM   10  C   UNL     1      -9.333   7.604  66.832  1.00  0.00    -0.203 A  
HETATM   11  C   UNL     1      -8.169   8.287  66.435  1.00  0.00    -0.107 A  
HETATM   12  C   UNL     1      -7.364   8.046  68.735  1.00  0.00    -0.085 A  
HETATM   13  C   UNL     1      -7.202   8.525  67.428  1.00  0.00    -0.084 A  
BRANCH  11  14
HETATM   14  C   UNL     1      -7.961   8.686  65.022  1.00  0.00    -0.131 A  
HETATM   15  C   UNL     1      -7.863   7.734  63.990  1.00  0.00    -0.127 A  
HETATM   16  C   UNL     1      -7.569   8.108  62.674  1.00  0.00    -0.120 A  
HETATM   17  C   UNL     1      -7.387   9.448  62.353  1.00  0.00    -0.105 A  
HETATM   18  C   UNL     1      -7.507  10.415  63.345  1.00  0.00    -0.050 A  
HETATM   19  C   UNL     1      -7.786  10.036  64.663  1.00  0.00    -0.145 A  
ENDBRANCH  11  14
ENDBRANCH   6   8
ENDBRANCH   5   6
ENDBRANCH   3   5
TORSDOF 4
ENDMDL
MODEL      160
REMARK 921   NORMALIZED FREE ENERGY PREDICTED BY IDOCK:   -2.68 KCAL/MOL
REMARK 922        TOTAL FREE ENERGY PREDICTED BY IDOCK:   -3.97 KCAL/MOL
REMARK 923 INTER-LIGAND FREE ENERGY PREDICTED BY IDOCK:   -3.85 KCAL/MOL
REMARK 924 INTRA-LIGAND FREE ENERGY PREDICTED BY IDOCK:   -0.12 KCAL/MOL
REMARK 927      BINDING AFFINITY PREDICTED BY RF-SCORE:    0.00 PKD
ROOT
HETATM    1  O   UNL     1      -9.930  12.173  64.477  1.00  0.00    -0.263 OA 
HETATM    2  C   UNL     1     -10.057  12.943  65.580  1.00  0.00    -0.257 C  
HETATM    3  C   UNL     1      -9.478  12.313  66.816  1.00  0.00    -0.222 C  
HETATM    4  O   UNL     1     -10.547  14.058  65.543  1.00  0.00    -0.292 OA 
ENDROOT
BRANCH   3   5
HETATM    5  C   UNL     1     -10.202  12.803  68.064  1.00  0.00    -0.228 C  
BRANCH   5   6
HETATM    6  C   UNL     1     -10.866  11.640  68.768  1.00  0.00    -0.220 C  
HETATM    7  O   UNL     1     -11.912  11.812  69.390  1.00  0.00    -0.306 OA 
BRANCH   6   8
HETATM    8  C   UNL     1     -10.296  10.265  68.641  1.00  0.00    -0.203 A  
HETATM    9  C   UNL     1     -10.267   9.571  67.432  1.00  0.00    -0.285 A  
HETATM   10  C   UNL     1      -9.810   8.249  67.390  1.00  0.00    -0.246 A  
HETATM   11  C   UNL     1      -9.366   7.577  68.542  1.00  0.00    -0.142 A  
HETATM   12  C   UNL     1      -9.818   9.632  69.793  1.00  0.00    -0.253 A  
HETATM   13  C   UNL     1      -9.351   8.313  69.741  1.00  0.00    -0.158 A  
BRANCH  11  14
HETATM   14  C   UNL     1      -8.982   6.144  68.493  1.00  0.00    -0.115 A  
HETATM   15  C   UNL     1      -9.827   5.171  67.930  1.00  0.00    -0.199 A  
HETATM   16  C   UNL     1      -9.508   3.809  67.973  1.00  0.00    -0.221 A  
HETATM   17  C   UNL     1      -8.321   3.389  68.563  1.00  0.00    -0.094 A  
HETATM   18  C   UNL     1      -7.450   4.331  69.102  1.00  0.00    -0.055 A  
HETATM   19  C   UNL     1      -7.781   5.691  69.070  1.00  0.00    -0.089 A  
ENDBRANCH  11  14
ENDBRANCH   6   8
ENDBRANCH   5   6
ENDBRANCH   3   5
TORSDOF 4
ENDMDL
MODEL      161
REMARK 921   NORMALIZED FREE ENERGY PREDICTED BY IDOCK:   -2.60 KCAL/MOL
REMARK 922        TOTAL FREE ENERGY PREDICTED BY IDOCK:   -3.87 KCAL/MOL
REMARK 923 INTER-LIGAND FREE ENERGY PREDICTED BY IDOCK:   -3.13 KCAL/MOL
REMARK 924 INTRA-LIGAND FREE ENERGY PREDICTED BY IDOCK:   -0.74 KCAL/MOL
REMARK 927      BINDING AFFINITY PREDICTED BY RF-SCORE:    0.00 PKD
ROOT
HETATM    1  O   UNL     1     -11.806   8.160  72.298  1.00  0.00    -0.335 OA 
HETATM    2  C   UNL     1     -10.567   7.812  72.708  1.00  0.00    -0.341 C  
HETATM    3  C   UNL     1      -9.564   7.750  71.590  1.00  0.00    -0.191 C  
HETATM    4  O   UNL     1     -10.298   7.624  73.882  1.00  0.00    -0.184 OA 
ENDROOT
BRANCH   3   5
HETATM    5  C   UNL     1      -8.461   6.747  71.906  1.00  0.00    -0.116 C  
BRANCH   5   6
HETATM    6  C   UNL     1      -8.727   5.442  71.188  1.00  0.00    -0.129 C  
HETATM    7  O   UNL     1      -8.909   4.411  71.831  1.00  0.00    -0.113 OA 
BRANCH   6   8
HETATM    8  C   UNL     1      -8.848   5.419  69.699  1.00  0.00    -0.123 A  
HETATM    9  C   UNL     1     -10.033   5.082  69.046  1.00  0.00    -0.251 A  
HETATM   10  C   UNL     1     -10.064   4.982  67.650  1.00  0.00    -0.192 A  
HETATM   11  C   UNL     1      -8.924   5.215  66.861  1.00  0.00    -0.109 A  
HETATM   12  C   UNL     1      -7.712   5.698  68.932  1.00  0.00    -0.089 A  
HETATM   13  C   UNL     1      -7.754   5.608  67.535  1.00  0.00    -0.097 A  
BRANCH  11  14
HETATM   14  C   UNL     1      -8.954   5.004  65.393  1.00  0.00    -0.152 A  
HETATM   15  C   UNL     1      -8.147   5.757  64.520  1.00  0.00    -0.132 A  
HETATM   16  C   UNL     1      -8.248   5.624  63.130  1.00  0.00    -0.091 A  
HETATM   17  C   UNL     1      -9.145   4.716  62.580  1.00  0.00    -0.118 A  
HETATM   18  C   UNL     1      -9.935   3.936  63.417  1.00  0.00    -0.163 A  
HETATM   19  C   UNL     1      -9.841   4.082  64.806  1.00  0.00    -0.201 A  
ENDBRANCH  11  14
ENDBRANCH   6   8
ENDBRANCH   5   6
ENDBRANCH   3   5
TORSDOF 4
ENDMDL
MODEL      162
REMARK 921   NORMALIZED FREE ENERGY PREDICTED BY IDOCK:   -2.49 KCAL/MOL
REMARK 922        TOTAL FREE ENERGY PREDICTED BY IDOCK:   -3.74 KCAL/MOL
REMARK 923 INTER-LIGAND FREE ENERGY PREDICTED BY IDOCK:   -3.16 KCAL/MOL
REMARK 924 INTRA-LIGAND FREE ENERGY PREDICTED BY IDOCK:   -0.58 KCAL/MOL
REMARK 927      BINDING AFFINITY PREDICTED BY RF-SCORE:    0.00 PKD
ROOT
HETATM    1  O   UNL     1      -6.200  15.122  70.217  1.00  0.00    -0.149 OA 
HETATM    2  C   UNL     1      -6.814  15.002  69.020  1.00  0.00    -0.118 C  
HETATM    3  C   UNL     1      -7.491  13.674  68.827  1.00  0.00    -0.088 C  
HETATM    4  O   UNL     1      -6.850  15.914  68.212  1.00  0.00    -0.111 OA 
ENDROOT
BRANCH   3   5
HETATM    5  C   UNL     1      -7.545  13.301  67.351  1.00  0.00    -0.137 C  
BRANCH   5   6
HETATM    6  C   UNL     1      -8.913  12.756  67.004  1.00  0.00    -0.221 C  
HETATM    7  O   UNL     1      -9.792  13.512  66.596  1.00  0.00    -0.263 OA 
BRANCH   6   8
HETATM    8  C   UNL     1      -9.175  11.287  67.080  1.00  0.00    -0.173 A  
HETATM    9  C   UNL     1      -9.176  10.585  68.285  1.00  0.00    -0.152 A  
HETATM   10  C   UNL     1      -9.331   9.193  68.288  1.00  0.00    -0.141 A  
HETATM   11  C   UNL     1      -9.492   8.458  67.101  1.00  0.00    -0.209 A  
HETATM   12  C   UNL     1      -9.377  10.583  65.889  1.00  0.00    -0.220 A  
HETATM   13  C   UNL     1      -9.544   9.192  65.902  1.00  0.00    -0.343 A  
BRANCH  11  14
HETATM   14  C   UNL     1      -9.552   6.976  67.120  1.00  0.00    -0.187 A  
HETATM   15  C   UNL     1     -10.559   6.285  67.819  1.00  0.00    -0.329 A  
HETATM   16  C   UNL     1     -10.556   4.889  67.917  1.00  0.00     0.144 A  
HETATM   17  C   UNL     1      -9.556   4.148  67.298  1.00  0.00    -0.228 A  
HETATM   18  C   UNL     1      -8.565   4.801  66.574  1.00  0.00    -0.109 A  
HETATM   19  C   UNL     1      -8.562   6.198  66.491  1.00  0.00    -0.126 A  
ENDBRANCH  11  14
ENDBRANCH   6   8
ENDBRANCH   5   6
ENDBRANCH   3   5
TORSDOF 4
ENDMDL
MODEL      163
REMARK 921   NORMALIZED FREE ENERGY PREDICTED BY IDOCK:   -2.02 KCAL/MOL
REMARK 922        TOTAL FREE ENERGY PREDICTED BY IDOCK:   -3.15 KCAL/MOL
REMARK 923 INTER-LIGAND FREE ENERGY PREDICTED BY IDOCK:   -2.37 KCAL/MOL
REMARK 924 INTRA-LIGAND FREE ENERGY PREDICTED BY IDOCK:   -0.78 KCAL/MOL
REMARK 927      BINDING AFFINITY PREDICTED BY RF-SCORE:    0.00 PKD
ROOT
HETATM    1  O   UNL     1      -9.537   9.396  70.364  1.00  0.00    -0.230 OA 
HETATM    2  C   UNL     1      -8.501   8.750  70.942  1.00  0.00    -0.175 C  
HETATM    3  C   UNL     1      -7.531   8.173  69.950  1.00  0.00    -0.069 C  
HETATM    4  O   UNL     1      -8.357   8.700  72.152  1.00  0.00    -0.283 OA 
ENDROOT
BRANCH   3   5
HETATM    5  C   UNL     1      -6.836   6.943  70.523  1.00  0.00    -0.058 C  
BRANCH   5   6
HETATM    6  C   UNL     1      -7.730   5.731  70.386  1.00  0.00    -0.095 C  
HETATM    7  O   UNL     1      -8.273   5.250  71.378  1.00  0.00    -0.112 OA 
BRANCH   6   8
HETATM    8  C   UNL     1      -8.020   5.165  69.034  1.00  0.00    -0.085 A  
HETATM    9  C   UNL     1      -7.053   5.075  68.034  1.00  0.00    -0.062 A  
HETATM   10  C   UNL     1      -7.403   4.625  66.754  1.00  0.00    -0.081 A  
HETATM   11  C   UNL     1      -8.719   4.250  66.430  1.00  0.00    -0.113 A  
HETATM   12  C   UNL     1      -9.326   4.756  68.748  1.00  0.00    -0.187 A  
HETATM   13  C   UNL     1      -9.666   4.296  67.469  1.00  0.00    -0.198 A  
BRANCH  11  14
HETATM   14  C   UNL     1      -9.089   3.875  65.044  1.00  0.00    -0.142 A  
HETATM   15  C   UNL     1      -8.744   4.681  63.942  1.00  0.00    -0.140 A  
HETATM   16  C   UNL     1      -9.179   4.376  62.647  1.00  0.00    -0.126 A  
HETATM   17  C   UNL     1      -9.951   3.242  62.419  1.00  0.00    -0.100 A  
HETATM   18  C   UNL     1     -10.282   2.410  63.483  1.00  0.00    -0.157 A  
HETATM   19  C   UNL     1      -9.858   2.727  64.779  1.00  0.00     0.045 A  
ENDBRANCH  11  14
ENDBRANCH   6   8
ENDBRANCH   5   6
ENDBRANCH   3   5
TORSDOF 4
ENDMDL
MODEL      164
REMARK 921   NORMALIZED FREE ENERGY PREDICTED BY IDOCK:   -1.96 KCAL/MOL
REMARK 922        TOTAL FREE ENERGY PREDICTED BY IDOCK:   -3.08 KCAL/MOL
REMARK 923 INTER-LIGAND FREE ENERGY PREDICTED BY IDOCK:   -2.52 KCAL/MOL
REMARK 924 INTRA-LIGAND FREE ENERGY PREDICTED BY IDOCK:   -0.56 KCAL/MOL
REMARK 927      BINDING AFFINITY PREDICTED BY RF-SCORE:    0.00 PKD
ROOT
HETATM    1  O   UNL     1      -6.243  11.808  70.877  1.00  0.00    -0.245 OA 
HETATM    2  C   UNL     1      -6.763  11.144  69.822  1.00  0.00    -0.121 C  
HETATM    3  C   UNL     1      -7.199   9.745  70.154  1.00  0.00    -0.146 C  
HETATM    4  O   UNL     1      -6.906  11.666  68.729  1.00  0.00    -0.076 OA 
ENDROOT
BRANCH   3   5
HETATM    5  C   UNL     1      -7.110   8.843  68.929  1.00  0.00    -0.066 C  
BRANCH   5   6
HETATM    6  C   UNL     1      -8.392   8.053  68.773  1.00  0.00    -0.127 C  
HETATM    7  O   UNL     1      -9.375   8.334  69.455  1.00  0.00    -0.157 OA 
BRANCH   6   8
HETATM    8  C   UNL     1      -8.490   6.984  67.735  1.00  0.00    -0.120 A  
HETATM    9  C   UNL     1      -8.393   7.251  66.370  1.00  0.00    -0.124 A  
HETATM   10  C   UNL     1      -8.589   6.226  65.436  1.00  0.00    -0.097 A  
HETATM   11  C   UNL     1      -8.883   4.908  65.827  1.00  0.00    -0.135 A  
HETATM   12  C   UNL     1      -8.738   5.672  68.149  1.00  0.00    -0.102 A  
HETATM   13  C   UNL     1      -8.921   4.649  67.209  1.00  0.00    -0.120 A  
BRANCH  11  14
HETATM   14  C   UNL     1      -9.188   3.861  64.822  1.00  0.00    -0.149 A  
HETATM   15  C   UNL     1     -10.468   3.732  64.252  1.00  0.00    -0.252 A  
HETATM   16  C   UNL     1     -10.779   2.684  63.378  1.00  0.00    -0.223 A  
HETATM   17  C   UNL     1      -9.809   1.749  63.036  1.00  0.00    -0.099 A  
HETATM   18  C   UNL     1      -8.526   1.867  63.560  1.00  0.00    -0.080 A  
HETATM   19  C   UNL     1      -8.223   2.908  64.445  1.00  0.00    -0.083 A  
ENDBRANCH  11  14
ENDBRANCH   6   8
ENDBRANCH   5   6
ENDBRANCH   3   5
TORSDOF 4
ENDMDL
MODEL      165
REMARK 921   NORMALIZED FREE ENERGY PREDICTED BY IDOCK:   -1.72 KCAL/MOL
REMARK 922        TOTAL FREE ENERGY PREDICTED BY IDOCK:   -2.78 KCAL/MOL
REMARK 923 INTER-LIGAND FREE ENERGY PREDICTED BY IDOCK:   -2.11 KCAL/MOL
REMARK 924 INTRA-LIGAND FREE ENERGY PREDICTED BY IDOCK:   -0.67 KCAL/MOL
REMARK 927      BINDING AFFINITY PREDICTED BY RF-SCORE:    0.00 PKD
ROOT
HETATM    1  O   UNL     1      -5.820  14.511  71.309  1.00  0.00    -0.164 OA 
HETATM    2  C   UNL     1      -5.710  14.077  70.035  1.00  0.00    -0.124 C  
HETATM    3  C   UNL     1      -6.373  12.749  69.797  1.00  0.00    -0.065 C  
HETATM    4  O   UNL     1      -5.169  14.738  69.165  1.00  0.00    -0.086 OA 
ENDROOT
BRANCH   3   5
HETATM    5  C   UNL     1      -5.687  11.994  68.666  1.00  0.00    -0.052 C  
BRANCH   5   6
HETATM    6  C   UNL     1      -6.662  11.757  67.534  1.00  0.00    -0.107 C  
HETATM    7  O   UNL     1      -6.982  12.684  66.793  1.00  0.00     0.117 OA 
BRANCH   6   8
HETATM    8  C   UNL     1      -7.178  10.381  67.265  1.00  0.00    -0.089 A  
HETATM    9  C   UNL     1      -6.515   9.233  67.697  1.00  0.00    -0.063 A  
HETATM   10  C   UNL     1      -6.991   7.967  67.335  1.00  0.00    -0.075 A  
HETATM   11  C   UNL     1      -8.138   7.802  66.538  1.00  0.00    -0.111 A  
HETATM   12  C   UNL     1      -8.345  10.241  66.508  1.00  0.00    -0.126 A  
HETATM   13  C   UNL     1      -8.822   8.971  66.160  1.00  0.00    -0.195 A  
BRANCH  11  14
HETATM   14  C   UNL     1      -8.565   6.457  66.081  1.00  0.00    -0.144 A  
HETATM   15  C   UNL     1      -7.731   5.643  65.293  1.00  0.00    -0.088 A  
HETATM   16  C   UNL     1      -8.173   4.417  64.782  1.00  0.00    -0.105 A  
HETATM   17  C   UNL     1      -9.457   3.966  65.066  1.00  0.00    -0.170 A  
HETATM   18  C   UNL     1     -10.295   4.734  65.867  1.00  0.00    -0.303 A  
HETATM   19  C   UNL     1      -9.854   5.966  66.364  1.00  0.00    -0.161 A  
ENDBRANCH  11  14
ENDBRANCH   6   8
ENDBRANCH   5   6
ENDBRANCH   3   5
TORSDOF 4
ENDMDL
MODEL      166
REMARK 921   NORMALIZED FREE ENERGY PREDICTED BY IDOCK:   -1.64 KCAL/MOL
REMARK 922        TOTAL FREE ENERGY PREDICTED BY IDOCK:   -2.69 KCAL/MOL
REMARK 923 INTER-LIGAND FREE ENERGY PREDICTED BY IDOCK:   -2.72 KCAL/MOL
REMARK 924 INTRA-LIGAND FREE ENERGY PREDICTED BY IDOCK:    0.03 KCAL/MOL
REMARK 927      BINDING AFFINITY PREDICTED BY RF-SCORE:    0.00 PKD
ROOT
HETATM    1  O   UNL     1      -7.155  20.673  70.508  1.00  0.00     0.194 OA 
HETATM    2  C   UNL     1      -6.569  20.029  69.475  1.00  0.00    -0.308 C  
HETATM    3  C   UNL     1      -7.545  19.286  68.606  1.00  0.00    -0.385 C  
HETATM    4  O   UNL     1      -5.373  20.102  69.255  1.00  0.00    -0.203 OA 
ENDROOT
BRANCH   3   5
HETATM    5  C   UNL     1      -6.878  18.084  67.946  1.00  0.00    -0.199 C  
BRANCH   5   6
HETATM    6  C   UNL     1      -6.610  17.010  68.977  1.00  0.00    -0.216 C  
HETATM    7  O   UNL     1      -6.137  17.310  70.071  1.00  0.00    -0.235 OA 
BRANCH   6   8
HETATM    8  C   UNL     1      -6.994  15.594  68.698  1.00  0.00    -0.125 A  
HETATM    9  C   UNL     1      -6.742  14.556  69.594  1.00  0.00    -0.155 A  
HETATM   10  C   UNL     1      -7.035  13.233  69.241  1.00  0.00     0.018 A  
HETATM   11  C   UNL     1      -7.589  12.901  67.992  1.00  0.00    -0.137 A  
HETATM   12  C   UNL     1      -7.586  15.292  67.467  1.00  0.00    -0.212 A  
HETATM   13  C   UNL     1      -7.888  13.967  67.126  1.00  0.00    -0.049 A  
BRANCH  11  14
HETATM   14  C   UNL     1      -7.797  11.485  67.599  1.00  0.00    -0.125 A  
HETATM   15  C   UNL     1      -8.396  10.556  68.469  1.00  0.00    -0.129 A  
HETATM   16  C   UNL     1      -8.501   9.201  68.134  1.00  0.00    -0.125 A  
HETATM   17  C   UNL     1      -8.028   8.746  66.908  1.00  0.00    -0.098 A  
HETATM   18  C   UNL     1      -7.458   9.647  66.015  1.00  0.00    -0.099 A  
HETATM   19  C   UNL     1      -7.341  10.998  66.360  1.00  0.00    -0.128 A  
ENDBRANCH  11  14
ENDBRANCH   6   8
ENDBRANCH   5   6
ENDBRANCH   3   5
TORSDOF 4
ENDMDL
MODEL      167
REMARK 921   NORMALIZED FREE ENERGY PREDICTED BY IDOCK:   -1.01 KCAL/MOL
REMARK 922        TOTAL FREE ENERGY PREDICTED BY IDOCK:   -1.91 KCAL/MOL
REMARK 923 INTER-LIGAND FREE ENERGY PREDICTED BY IDOCK:   -1.65 KCAL/MOL
REMARK 924 INTRA-LIGAND FREE ENERGY PREDICTED BY IDOCK:   -0.25 KCAL/MOL
REMARK 927      BINDING AFFINITY PREDICTED BY RF-SCORE:    0.00 PKD
ROOT
HETATM    1  O   UNL     1     -13.176  12.261  65.689  1.00  0.00     0.809 OA 
HETATM    2  C   UNL     1     -12.105  13.084  65.729  1.00  0.00    -0.454 C  
HETATM    3  C   UNL     1     -11.873  13.694  67.083  1.00  0.00    -0.435 C  
HETATM    4  O   UNL     1     -11.381  13.258  64.765  1.00  0.00    -0.307 OA 
ENDROOT
BRANCH   3   5
HETATM    5  C   UNL     1     -11.185  15.048  66.958  1.00  0.00    -0.328 C  
BRANCH   5   6
HETATM    6  C   UNL     1      -9.732  14.859  66.582  1.00  0.00    -0.261 C  
HETATM    7  O   UNL     1      -9.168  15.685  65.868  1.00  0.00    -0.340 OA 
BRANCH   6   8
HETATM    8  C   UNL     1      -8.958  13.711  67.142  1.00  0.00    -0.235 A  
HETATM    9  C   UNL     1      -8.475  12.671  66.349  1.00  0.00     0.230 A  
HETATM   10  C   UNL     1      -7.840  11.572  66.939  1.00  0.00    -0.163 A  
HETATM   11  C   UNL     1      -7.661  11.473  68.330  1.00  0.00    -0.125 A  
HETATM   12  C   UNL     1      -8.753  13.656  68.524  1.00  0.00    -0.102 A  
HETATM   13  C   UNL     1      -8.105  12.558  69.106  1.00  0.00     0.478 A  
BRANCH  11  14
HETATM   14  C   UNL     1      -7.077  10.254  68.942  1.00  0.00    -0.075 A  
HETATM   15  C   UNL     1      -6.463   9.256  68.163  1.00  0.00    -0.058 A  
HETATM   16  C   UNL     1      -6.001   8.063  68.732  1.00  0.00    -0.039 A  
HETATM   17  C   UNL     1      -6.124   7.849  70.100  1.00  0.00    -0.032 A  
HETATM   18  C   UNL     1      -6.700   8.830  70.900  1.00  0.00    -0.058 A  
HETATM   19  C   UNL     1      -7.174  10.015  70.326  1.00  0.00    -0.155 A  
ENDBRANCH  11  14
ENDBRANCH   6   8
ENDBRANCH   5   6
ENDBRANCH   3   5
TORSDOF 4
ENDMDL
MODEL      168
REMARK 921   NORMALIZED FREE ENERGY PREDICTED BY IDOCK:   -0.10 KCAL/MOL
REMARK 922        TOTAL FREE ENERGY PREDICTED BY IDOCK:   -0.78 KCAL/MOL
REMARK 923 INTER-LIGAND FREE ENERGY PREDICTED BY IDOCK:   -0.20 KCAL/MOL
REMARK 924 INTRA-LIGAND FREE ENERGY PREDICTED BY IDOCK:   -0.58 KCAL/MOL
REMARK 927      BINDING AFFINITY PREDICTED BY RF-SCORE:    0.00 PKD
ROOT
HETATM    1  O   UNL     1     -12.655  10.847  72.687  1.00  0.00     0.705 OA 
HETATM    2  C   UNL     1     -12.320   9.734  72.000  1.00  0.00    -0.256 C  
HETATM    3  C   UNL     1     -10.903   9.291  72.236  1.00  0.00     0.315 C  
HETATM    4  O   UNL     1     -13.120   9.131  71.305  1.00  0.00    -0.311 OA 
ENDROOT
BRANCH   3   5
HETATM    5  C   UNL     1     -10.358   8.547  71.023  1.00  0.00    -0.261 C  
BRANCH   5   6
HETATM    6  C   UNL     1      -9.172   9.290  70.450  1.00  0.00    -0.247 C  
HETATM    7  O   UNL     1      -8.695  10.249  71.053  1.00  0.00     0.799 OA 
BRANCH   6   8
HETATM    8  C   UNL     1      -8.527   8.811  69.190  1.00  0.00    -0.123 A  
HETATM    9  C   UNL     1      -7.340   9.355  68.699  1.00  0.00    -0.075 A  
HETATM   10  C   UNL     1      -6.831   8.935  67.464  1.00  0.00    -0.071 A  
HETATM   11  C   UNL     1      -7.480   7.963  66.682  1.00  0.00    -0.089 A  
HETATM   12  C   UNL     1      -9.167   7.812  68.450  1.00  0.00    -0.137 A  
HETATM   13  C   UNL     1      -8.645   7.388  67.221  1.00  0.00    -0.118 A  
BRANCH  11  14
HETATM   14  C   UNL     1      -6.979   7.608  65.332  1.00  0.00    -0.059 A  
HETATM   15  C   UNL     1      -6.223   6.443  65.106  1.00  0.00    -0.031 A  
HETATM   16  C   UNL     1      -5.669   6.161  63.852  1.00  0.00    -0.022 A  
HETATM   17  C   UNL     1      -5.877   7.028  62.786  1.00  0.00    -0.041 A  
HETATM   18  C   UNL     1      -6.646   8.173  62.971  1.00  0.00    -0.085 A  
HETATM   19  C   UNL     1      -7.185   8.459  64.230  1.00  0.00    -0.092 A  
ENDBRANCH  11  14
ENDBRANCH   6   8
ENDBRANCH   5   6
ENDBRANCH   3   5
TORSDOF 4
ENDMDL
MODEL      169
REMARK 921   NORMALIZED FREE ENERGY PREDICTED BY IDOCK:   -0.02 KCAL/MOL
REMARK 922        TOTAL FREE ENERGY PREDICTED BY IDOCK:   -0.69 KCAL/MOL
REMARK 923 INTER-LIGAND FREE ENERGY PREDICTED BY IDOCK:   -0.93 KCAL/MOL
REMARK 924 INTRA-LIGAND FREE ENERGY PREDICTED BY IDOCK:    0.24 KCAL/MOL
REMARK 927      BINDING AFFINITY PREDICTED BY RF-SCORE:    0.00 PKD
ROOT
HETATM    1  O   UNL     1      -5.864  11.443  71.824  1.00  0.00    -0.052 OA 
HETATM    2  C   UNL     1      -6.146  10.179  72.209  1.00  0.00     0.863 C  
HETATM    3  C   UNL     1      -5.324   9.716  73.379  1.00  0.00     0.035 C  
HETATM    4  O   UNL     1      -7.022   9.516  71.682  1.00  0.00    -0.313 OA 
ENDROOT
BRANCH   3   5
HETATM    5  C   UNL     1      -5.136   8.204  73.347  1.00  0.00    -0.041 C  
BRANCH   5   6
HETATM    6  C   UNL     1      -6.469   7.513  73.537  1.00  0.00    -0.066 C  
HETATM    7  O   UNL     1      -7.199   7.830  74.473  1.00  0.00    -0.123 OA 
BRANCH   6   8
HETATM    8  C   UNL     1      -6.935   6.501  72.542  1.00  0.00    -0.069 A  
HETATM    9  C   UNL     1      -6.134   5.443  72.113  1.00  0.00    -0.034 A  
HETATM   10  C   UNL     1      -6.585   4.580  71.108  1.00  0.00    -0.030 A  
HETATM   11  C   UNL     1      -7.844   4.737  70.501  1.00  0.00    -0.062 A  
HETATM   12  C   UNL     1      -8.209   6.651  71.984  1.00  0.00    -0.106 A  
HETATM   13  C   UNL     1      -8.658   5.775  70.987  1.00  0.00    -0.131 A  
BRANCH  11  14
HETATM   14  C   UNL     1      -8.260   3.875  69.368  1.00  0.00    -0.069 A  
HETATM   15  C   UNL     1      -9.151   2.800  69.544  1.00  0.00    -0.189 A  
HETATM   16  C   UNL     1      -9.465   1.929  68.494  1.00  0.00    -0.226 A  
HETATM   17  C   UNL     1      -8.911   2.126  67.234  1.00  0.00    -0.170 A  
HETATM   18  C   UNL     1      -8.051   3.198  67.022  1.00  0.00    -0.079 A  
HETATM   19  C   UNL     1      -7.728   4.058  68.078  1.00  0.00    -0.067 A  
ENDBRANCH  11  14
ENDBRANCH   6   8
ENDBRANCH   5   6
ENDBRANCH   3   5
TORSDOF 4
ENDMDL
MODEL      170
REMARK 921   NORMALIZED FREE ENERGY PREDICTED BY IDOCK:    0.11 KCAL/MOL
REMARK 922        TOTAL FREE ENERGY PREDICTED BY IDOCK:   -0.53 KCAL/MOL
REMARK 923 INTER-LIGAND FREE ENERGY PREDICTED BY IDOCK:    0.08 KCAL/MOL
REMARK 924 INTRA-LIGAND FREE ENERGY PREDICTED BY IDOCK:   -0.61 KCAL/MOL
REMARK 927      BINDING AFFINITY PREDICTED BY RF-SCORE:    0.00 PKD
ROOT
HETATM    1  O   UNL     1      -7.304  20.040  72.411  1.00  0.00     1.034 OA 
HETATM    2  C   UNL     1      -6.296  19.739  71.564  1.00  0.00     0.157 C  
HETATM    3  C   UNL     1      -6.696  18.779  70.479  1.00  0.00     0.823 C  
HETATM    4  O   UNL     1      -5.192  20.249  71.655  1.00  0.00    -0.316 OA 
ENDROOT
BRANCH   3   5
HETATM    5  C   UNL     1      -5.501  17.955  70.015  1.00  0.00    -0.236 C  
BRANCH   5   6
HETATM    6  C   UNL     1      -5.412  16.674  70.816  1.00  0.00    -0.074 C  
HETATM    7  O   UNL     1      -5.155  16.716  72.018  1.00  0.00    -0.228 OA 
BRANCH   6   8
HETATM    8  C   UNL     1      -5.717  15.364  70.168  1.00  0.00    -0.144 A  
HETATM    9  C   UNL     1      -5.999  14.211  70.900  1.00  0.00    -0.196 A  
HETATM   10  C   UNL     1      -6.182  12.987  70.244  1.00  0.00     0.008 A  
HETATM   11  C   UNL     1      -6.093  12.871  68.845  1.00  0.00    -0.083 A  
HETATM   12  C   UNL     1      -5.667  15.281  68.773  1.00  0.00    -0.089 A  
HETATM   13  C   UNL     1      -5.863  14.056  68.123  1.00  0.00    -0.125 A  
BRANCH  11  14
HETATM   14  C   UNL     1      -6.189  11.549  68.179  1.00  0.00    -0.045 A  
HETATM   15  C   UNL     1      -6.087  11.415  66.782  1.00  0.00    -0.145 A  
HETATM   16  C   UNL     1      -6.275  10.181  66.149  1.00  0.00    -0.082 A  
HETATM   17  C   UNL     1      -6.548   9.045  66.902  1.00  0.00    -0.064 A  
HETATM   18  C   UNL     1      -6.625   9.140  68.287  1.00  0.00    -0.059 A  
HETATM   19  C   UNL     1      -6.452  10.379  68.916  1.00  0.00    -0.052 A  
ENDBRANCH  11  14
ENDBRANCH   6   8
ENDBRANCH   5   6
ENDBRANCH   3   5
TORSDOF 4
ENDMDL
MODEL      171
REMARK 921   NORMALIZED FREE ENERGY PREDICTED BY IDOCK:    0.90 KCAL/MOL
REMARK 922        TOTAL FREE ENERGY PREDICTED BY IDOCK:    0.45 KCAL/MOL
REMARK 923 INTER-LIGAND FREE ENERGY PREDICTED BY IDOCK:   -0.01 KCAL/MOL
REMARK 924 INTRA-LIGAND FREE ENERGY PREDICTED BY IDOCK:    0.46 KCAL/MOL
REMARK 927      BINDING AFFINITY PREDICTED BY RF-SCORE:    0.00 PKD
ROOT
HETATM    1  O   UNL     1     -12.883  10.686  72.679  1.00  0.00     0.257 OA 
HETATM    2  C   UNL     1     -13.155   9.655  71.850  1.00  0.00    -0.436 C  
HETATM    3  C   UNL     1     -11.974   8.759  71.606  1.00  0.00    -0.399 C  
HETATM    4  O   UNL     1     -14.270   9.458  71.399  1.00  0.00    -0.154 OA 
ENDROOT
BRANCH   3   5
HETATM    5  C   UNL     1     -12.069   8.094  70.238  1.00  0.00     0.412 C  
BRANCH   5   6
HETATM    6  C   UNL     1     -12.035   9.143  69.149  1.00  0.00     1.386 C  
HETATM    7  O   UNL     1     -12.879  10.036  69.127  1.00  0.00     0.768 OA 
BRANCH   6   8
HETATM    8  C   UNL     1     -10.929   9.143  68.144  1.00  0.00    -0.020 A  
HETATM    9  C   UNL     1     -10.632  10.252  67.353  1.00  0.00    -0.324 A  
HETATM   10  C   UNL     1      -9.649  10.166  66.360  1.00  0.00    -0.242 A  
HETATM   11  C   UNL     1      -8.929   8.981  66.125  1.00  0.00    -0.216 A  
HETATM   12  C   UNL     1     -10.196   7.967  67.958  1.00  0.00    -0.256 A  
HETATM   13  C   UNL     1      -9.205   7.892  66.971  1.00  0.00    -0.181 A  
BRANCH  11  14
HETATM   14  C   UNL     1      -7.965   8.881  65.002  1.00  0.00    -0.125 A  
HETATM   15  C   UNL     1      -6.575   8.889  65.217  1.00  0.00    -0.068 A  
HETATM   16  C   UNL     1      -5.668   8.893  64.151  1.00  0.00    -0.069 A  
HETATM   17  C   UNL     1      -6.132   8.867  62.841  1.00  0.00    -0.090 A  
HETATM   18  C   UNL     1      -7.500   8.828  62.597  1.00  0.00    -0.103 A  
HETATM   19  C   UNL     1      -8.404   8.839  63.665  1.00  0.00    -0.146 A  
ENDBRANCH  11  14
ENDBRANCH   6   8
ENDBRANCH   5   6
ENDBRANCH   3   5
TORSDOF 4
ENDMDL
MODEL      172
REMARK 921   NORMALIZED FREE ENERGY PREDICTED BY IDOCK:    5.35 KCAL/MOL
REMARK 922        TOTAL FREE ENERGY PREDICTED BY IDOCK:    5.94 KCAL/MOL
REMARK 923 INTER-LIGAND FREE ENERGY PREDICTED BY IDOCK:    6.57 KCAL/MOL
REMARK 924 INTRA-LIGAND FREE ENERGY PREDICTED BY IDOCK:   -0.63 KCAL/MOL
REMARK 927      BINDING AFFINITY PREDICTED BY RF-SCORE:    0.00 PKD
ROOT
HETATM    1  O   UNL     1      -7.247  17.755  72.058  1.00  0.00     6.539 OA 
HETATM    2  C   UNL     1      -6.279  17.390  71.190  1.00  0.00     1.708 C  
HETATM    3  C   UNL     1      -6.741  16.393  70.165  1.00  0.00     0.410 C  
HETATM    4  O   UNL     1      -5.161  17.876  71.219  1.00  0.00    -0.428 OA 
ENDROOT
BRANCH   3   5
HETATM    5  C   UNL     1      -5.584  15.518  69.698  1.00  0.00    -0.114 C  
BRANCH   5   6
HETATM    6  C   UNL     1      -5.807  14.087  70.134  1.00  0.00    -0.142 C  
HETATM    7  O   UNL     1      -5.720  13.785  71.323  1.00  0.00    -0.211 OA 
BRANCH   6   8
HETATM    8  C   UNL     1      -6.213  13.054  69.134  1.00  0.00    -0.101 A  
HETATM    9  C   UNL     1      -7.442  13.086  68.476  1.00  0.00    -0.123 A  
HETATM   10  C   UNL     1      -7.810  12.040  67.621  1.00  0.00    -0.149 A  
HETATM   11  C   UNL     1      -6.971  10.936  67.390  1.00  0.00    -0.084 A  
HETATM   12  C   UNL     1      -5.343  11.988  68.886  1.00  0.00    -0.050 A  
HETATM   13  C   UNL     1      -5.713  10.951  68.019  1.00  0.00    -0.042 A  
BRANCH  11  14
HETATM   14  C   UNL     1      -7.423   9.792  66.562  1.00  0.00    -0.095 A  
HETATM   15  C   UNL     1      -6.589   9.205  65.591  1.00  0.00    -0.068 A  
HETATM   16  C   UNL     1      -7.051   8.191  64.744  1.00  0.00    -0.079 A  
HETATM   17  C   UNL     1      -8.355   7.723  64.863  1.00  0.00    -0.071 A  
HETATM   18  C   UNL     1      -9.193   8.262  65.833  1.00  0.00    -0.185 A  
HETATM   19  C   UNL     1      -8.732   9.286  66.668  1.00  0.00    -0.139 A  
ENDBRANCH  11  14
ENDBRANCH   6   8
ENDBRANCH   5   6
ENDBRANCH   3   5
TORSDOF 4
ENDMDL
MODEL      173
REMARK 921   NORMALIZED FREE ENERGY PREDICTED BY IDOCK:    5.41 KCAL/MOL
REMARK 922        TOTAL FREE ENERGY PREDICTED BY IDOCK:    6.01 KCAL/MOL
REMARK 923 INTER-LIGAND FREE ENERGY PREDICTED BY IDOCK:    6.65 KCAL/MOL
REMARK 924 INTRA-LIGAND FREE ENERGY PREDICTED BY IDOCK:   -0.64 KCAL/MOL
REMARK 927      BINDING AFFINITY PREDICTED BY RF-SCORE:    0.00 PKD
ROOT
HETATM    1  O   UNL     1      -7.252  19.133  72.705  1.00  0.00     2.952 OA 
HETATM    2  C   UNL     1      -6.310  18.673  71.854  1.00  0.00     1.973 C  
HETATM    3  C   UNL     1      -6.877  17.889  70.704  1.00  0.00     2.040 C  
HETATM    4  O   UNL     1      -5.126  18.926  71.993  1.00  0.00    -0.766 OA 
ENDROOT
BRANCH   3   5
HETATM    5  C   UNL     1      -5.875  16.855  70.204  1.00  0.00    -0.177 C  
BRANCH   5   6
HETATM    6  C   UNL     1      -6.325  15.465  70.597  1.00  0.00     0.221 C  
HETATM    7  O   UNL     1      -6.484  15.182  71.782  1.00  0.00     0.899 OA 
BRANCH   6   8
HETATM    8  C   UNL     1      -6.655  14.460  69.543  1.00  0.00    -0.141 A  
HETATM    9  C   UNL     1      -5.780  14.145  68.504  1.00  0.00    -0.095 A  
HETATM   10  C   UNL     1      -6.178  13.266  67.489  1.00  0.00    -0.114 A  
HETATM   11  C   UNL     1      -7.453  12.672  67.476  1.00  0.00    -0.155 A  
HETATM   12  C   UNL     1      -7.912  13.847  69.575  1.00  0.00     0.572 A  
HETATM   13  C   UNL     1      -8.298  12.959  68.562  1.00  0.00    -0.054 A  
BRANCH  11  14
HETATM   14  C   UNL     1      -7.891  11.826  66.339  1.00  0.00     0.099 A  
HETATM   15  C   UNL     1      -7.063  10.824  65.800  1.00  0.00    -0.053 A  
HETATM   16  C   UNL     1      -7.438  10.095  64.666  1.00  0.00    -0.132 A  
HETATM   17  C   UNL     1      -8.665  10.335  64.056  1.00  0.00    -0.211 A  
HETATM   18  C   UNL     1      -9.518  11.298  64.584  1.00  0.00    -0.215 A  
HETATM   19  C   UNL     1      -9.132  12.036  65.709  1.00  0.00     0.008 A  
ENDBRANCH  11  14
ENDBRANCH   6   8
ENDBRANCH   5   6
ENDBRANCH   3   5
TORSDOF 4
ENDMDL
