MODEL        1
REMARK 921   NORMALIZED FREE ENERGY PREDICTED BY IDOCK:   -6.79 KCAL/MOL
REMARK 922        TOTAL FREE ENERGY PREDICTED BY IDOCK:   -8.01 KCAL/MOL
REMARK 923 INTER-LIGAND FREE ENERGY PREDICTED BY IDOCK:   -7.58 KCAL/MOL
REMARK 924 INTRA-LIGAND FREE ENERGY PREDICTED BY IDOCK:   -0.43 KCAL/MOL
REMARK 927      BINDING AFFINITY PREDICTED BY RF-SCORE:    0.00 PKD
ROOT
HETATM    1  C   UNL     1     -10.860  11.372  65.971  1.00  0.00    -0.306 C  
HETATM    2  C   UNL     1     -10.989  12.832  65.548  1.00  0.00    -0.310 C  
HETATM    3  C   UNL     1     -12.356  13.104  64.915  1.00  0.00    -0.441 C  
HETATM    4  C   UNL     1     -10.637  13.763  66.701  1.00  0.00    -0.274 A  
HETATM    5  O   UNL     1     -12.546  14.402  64.566  1.00  0.00    -0.651 OA 
HETATM    6  O   UNL     1     -13.203  12.253  64.679  1.00  0.00    -0.763 OA 
HETATM    7  C   UNL     1     -11.609  14.211  67.609  1.00  0.00    -0.394 A  
HETATM    8  C   UNL     1     -11.309  15.219  68.534  1.00  0.00    -0.327 A  
HETATM    9  C   UNL     1      -9.317  14.212  66.860  1.00  0.00    -0.274 A  
HETATM   10  C   UNL     1      -9.989  15.641  68.689  1.00  0.00    -0.208 A  
HETATM   11  C   UNL     1      -8.991  15.122  67.866  1.00  0.00    -0.174 A  
ENDROOT
BRANCH   8  12
HETATM   12  O   UNL     1     -12.242  15.842  69.335  1.00  0.00    -0.313 OA 
BRANCH  12  13
HETATM   13  C   UNL     1     -12.348  15.478  70.661  1.00  0.00    -0.416 A  
HETATM   14  C   UNL     1     -13.056  14.305  70.921  1.00  0.00    -0.368 A  
HETATM   15  C   UNL     1     -13.302  13.913  72.239  1.00  0.00    -0.599 A  
HETATM   16  C   UNL     1     -12.841  14.697  73.298  1.00  0.00    -0.580 A  
HETATM   17  C   UNL     1     -12.074  15.829  73.042  1.00  0.00    -0.601 A  
HETATM   18  C   UNL     1     -11.788  16.192  71.726  1.00  0.00    -0.581 A  
ENDBRANCH  12  13
ENDBRANCH   8  12
TORSDOF 2
ENDMDL
MODEL        2
REMARK 921   NORMALIZED FREE ENERGY PREDICTED BY IDOCK:   -6.71 KCAL/MOL
REMARK 922        TOTAL FREE ENERGY PREDICTED BY IDOCK:   -7.92 KCAL/MOL
REMARK 923 INTER-LIGAND FREE ENERGY PREDICTED BY IDOCK:   -7.43 KCAL/MOL
REMARK 924 INTRA-LIGAND FREE ENERGY PREDICTED BY IDOCK:   -0.49 KCAL/MOL
REMARK 927      BINDING AFFINITY PREDICTED BY RF-SCORE:    0.00 PKD
ROOT
HETATM    1  C   UNL     1     -11.873  13.456  64.559  1.00  0.00    -0.440 C  
HETATM    2  C   UNL     1     -10.977  14.641  64.905  1.00  0.00    -0.419 C  
HETATM    3  C   UNL     1     -11.591  15.956  64.418  1.00  0.00    -0.234 C  
HETATM    4  C   UNL     1     -10.612  14.630  66.384  1.00  0.00    -0.301 A  
HETATM    5  O   UNL     1     -10.859  17.052  64.747  1.00  0.00    -0.820 OA 
HETATM    6  O   UNL     1     -12.612  16.051  63.751  1.00  0.00    -0.665 OA 
HETATM    7  C   UNL     1     -11.403  15.281  67.343  1.00  0.00    -0.285 A  
HETATM    8  C   UNL     1     -10.947  15.431  68.659  1.00  0.00    -0.273 A  
HETATM    9  C   UNL     1      -9.447  13.977  66.811  1.00  0.00    -0.292 A  
HETATM   10  C   UNL     1      -9.796  14.762  69.070  1.00  0.00    -0.206 A  
HETATM   11  C   UNL     1      -9.057  14.018  68.151  1.00  0.00    -0.192 A  
ENDROOT
BRANCH   8  12
HETATM   12  O   UNL     1     -11.571  16.206  69.614  1.00  0.00    -0.312 OA 
BRANCH  12  13
HETATM   13  C   UNL     1     -12.154  15.599  70.706  1.00  0.00    -0.412 A  
HETATM   14  C   UNL     1     -11.843  16.147  71.951  1.00  0.00    -0.605 A  
HETATM   15  C   UNL     1     -12.305  15.536  73.119  1.00  0.00    -0.572 A  
HETATM   16  C   UNL     1     -13.076  14.375  73.042  1.00  0.00    -0.581 A  
HETATM   17  C   UNL     1     -13.447  13.868  71.800  1.00  0.00    -0.464 A  
HETATM   18  C   UNL     1     -13.025  14.507  70.635  1.00  0.00    -0.358 A  
ENDBRANCH  12  13
ENDBRANCH   8  12
TORSDOF 2
ENDMDL
MODEL        3
REMARK 921   NORMALIZED FREE ENERGY PREDICTED BY IDOCK:   -6.51 KCAL/MOL
REMARK 922        TOTAL FREE ENERGY PREDICTED BY IDOCK:   -7.70 KCAL/MOL
REMARK 923 INTER-LIGAND FREE ENERGY PREDICTED BY IDOCK:   -7.29 KCAL/MOL
REMARK 924 INTRA-LIGAND FREE ENERGY PREDICTED BY IDOCK:   -0.41 KCAL/MOL
REMARK 927      BINDING AFFINITY PREDICTED BY RF-SCORE:    0.00 PKD
ROOT
HETATM    1  C   UNL     1      -9.696  10.175  69.133  1.00  0.00    -0.225 C  
HETATM    2  C   UNL     1     -11.180  10.521  69.087  1.00  0.00    -0.314 C  
HETATM    3  C   UNL     1     -11.828  10.357  70.464  1.00  0.00    -0.337 C  
HETATM    4  C   UNL     1     -11.398  11.889  68.453  1.00  0.00    -0.331 A  
HETATM    5  O   UNL     1     -13.141  10.703  70.493  1.00  0.00    -0.295 OA 
HETATM    6  O   UNL     1     -11.267   9.910  71.456  1.00  0.00    -0.322 OA 
HETATM    7  C   UNL     1     -11.414  13.063  69.220  1.00  0.00    -0.348 A  
HETATM    8  C   UNL     1     -11.814  14.279  68.653  1.00  0.00    -0.344 A  
HETATM    9  C   UNL     1     -11.612  11.992  67.070  1.00  0.00    -0.387 A  
HETATM   10  C   UNL     1     -12.007  14.367  67.275  1.00  0.00    -0.409 A  
HETATM   11  C   UNL     1     -11.885  13.228  66.482  1.00  0.00    -0.450 A  
ENDROOT
BRANCH   8  12
HETATM   12  O   UNL     1     -12.030  15.438  69.370  1.00  0.00    -0.333 OA 
BRANCH  12  13
HETATM   13  C   UNL     1     -12.450  15.356  70.681  1.00  0.00    -0.428 A  
HETATM   14  C   UNL     1     -11.626  15.966  71.628  1.00  0.00    -0.541 A  
HETATM   15  C   UNL     1     -11.917  15.848  72.988  1.00  0.00    -0.596 A  
HETATM   16  C   UNL     1     -13.031  15.116  73.403  1.00  0.00    -0.642 A  
HETATM   17  C   UNL     1     -13.893  14.567  72.458  1.00  0.00    -0.555 A  
HETATM   18  C   UNL     1     -13.627  14.727  71.099  1.00  0.00    -0.432 A  
ENDBRANCH  12  13
ENDBRANCH   8  12
TORSDOF 2
ENDMDL
MODEL        4
REMARK 921   NORMALIZED FREE ENERGY PREDICTED BY IDOCK:   -6.33 KCAL/MOL
REMARK 922        TOTAL FREE ENERGY PREDICTED BY IDOCK:   -7.50 KCAL/MOL
REMARK 923 INTER-LIGAND FREE ENERGY PREDICTED BY IDOCK:   -7.00 KCAL/MOL
REMARK 924 INTRA-LIGAND FREE ENERGY PREDICTED BY IDOCK:   -0.49 KCAL/MOL
REMARK 927      BINDING AFFINITY PREDICTED BY RF-SCORE:    0.00 PKD
ROOT
HETATM    1  C   UNL     1     -10.760  19.260  67.122  1.00  0.00    -0.584 C  
HETATM    2  C   UNL     1      -9.744  18.126  67.207  1.00  0.00    -0.297 C  
HETATM    3  C   UNL     1      -8.694  18.406  68.285  1.00  0.00    -0.302 C  
HETATM    4  C   UNL     1     -10.445  16.781  67.352  1.00  0.00    -0.310 A  
HETATM    5  O   UNL     1      -7.793  17.402  68.442  1.00  0.00    -0.236 OA 
HETATM    6  O   UNL     1      -8.607  19.443  68.929  1.00  0.00    -0.369 OA 
HETATM    7  C   UNL     1     -10.760  16.246  68.610  1.00  0.00    -0.309 A  
HETATM    8  C   UNL     1     -11.218  14.927  68.729  1.00  0.00    -0.275 A  
HETATM    9  C   UNL     1     -10.770  16.036  66.208  1.00  0.00    -0.234 A  
HETATM   10  C   UNL     1     -11.551  14.207  67.582  1.00  0.00    -0.394 A  
HETATM   11  C   UNL     1     -11.346  14.770  66.323  1.00  0.00    -0.334 A  
ENDROOT
BRANCH   8  12
HETATM   12  O   UNL     1     -11.379  14.266  69.928  1.00  0.00    -0.253 OA 
BRANCH  12  13
HETATM   13  C   UNL     1     -12.134  14.845  70.926  1.00  0.00    -0.317 A  
HETATM   14  C   UNL     1     -11.422  15.388  71.997  1.00  0.00    -0.521 A  
HETATM   15  C   UNL     1     -12.104  15.903  73.100  1.00  0.00    -0.611 A  
HETATM   16  C   UNL     1     -13.499  15.874  73.136  1.00  0.00    -0.650 A  
HETATM   17  C   UNL     1     -14.212  15.398  72.039  1.00  0.00    -0.650 A  
HETATM   18  C   UNL     1     -13.530  14.929  70.917  1.00  0.00    -0.356 A  
ENDBRANCH  12  13
ENDBRANCH   8  12
TORSDOF 2
ENDMDL
MODEL        5
REMARK 921   NORMALIZED FREE ENERGY PREDICTED BY IDOCK:   -6.28 KCAL/MOL
REMARK 922        TOTAL FREE ENERGY PREDICTED BY IDOCK:   -7.44 KCAL/MOL
REMARK 923 INTER-LIGAND FREE ENERGY PREDICTED BY IDOCK:   -7.36 KCAL/MOL
REMARK 924 INTRA-LIGAND FREE ENERGY PREDICTED BY IDOCK:   -0.08 KCAL/MOL
REMARK 927      BINDING AFFINITY PREDICTED BY RF-SCORE:    0.00 PKD
ROOT
HETATM    1  C   UNL     1     -10.352  12.123  63.990  1.00  0.00    -0.412 C  
HETATM    2  C   UNL     1     -11.107  13.234  64.712  1.00  0.00    -0.359 C  
HETATM    3  C   UNL     1     -12.621  13.036  64.598  1.00  0.00    -0.362 C  
HETATM    4  C   UNL     1     -10.602  13.392  66.140  1.00  0.00    -0.294 A  
HETATM    5  O   UNL     1     -13.344  13.970  65.268  1.00  0.00    -0.741 OA 
HETATM    6  O   UNL     1     -13.168  12.166  63.934  1.00  0.00    -0.748 OA 
HETATM    7  C   UNL     1     -11.166  12.673  67.204  1.00  0.00    -0.348 A  
HETATM    8  C   UNL     1     -10.829  12.980  68.529  1.00  0.00    -0.258 A  
HETATM    9  C   UNL     1      -9.563  14.293  66.418  1.00  0.00    -0.317 A  
HETATM   10  C   UNL     1      -9.783  13.865  68.787  1.00  0.00    -0.096 A  
HETATM   11  C   UNL     1      -9.137  14.505  67.731  1.00  0.00    -0.190 A  
ENDROOT
BRANCH   8  12
HETATM   12  O   UNL     1     -11.462  12.452  69.635  1.00  0.00    -0.254 OA 
BRANCH  12  13
HETATM   13  C   UNL     1     -12.176  13.286  70.470  1.00  0.00    -0.340 A  
HETATM   14  C   UNL     1     -12.794  12.677  71.563  1.00  0.00    -0.368 A  
HETATM   15  C   UNL     1     -13.621  13.424  72.404  1.00  0.00    -0.708 A  
HETATM   16  C   UNL     1     -13.833  14.780  72.152  1.00  0.00    -0.578 A  
HETATM   17  C   UNL     1     -13.162  15.405  71.105  1.00  0.00    -0.583 A  
HETATM   18  C   UNL     1     -12.298  14.668  70.294  1.00  0.00    -0.406 A  
ENDBRANCH  12  13
ENDBRANCH   8  12
TORSDOF 2
ENDMDL
MODEL        6
REMARK 921   NORMALIZED FREE ENERGY PREDICTED BY IDOCK:   -6.26 KCAL/MOL
REMARK 922        TOTAL FREE ENERGY PREDICTED BY IDOCK:   -7.41 KCAL/MOL
REMARK 923 INTER-LIGAND FREE ENERGY PREDICTED BY IDOCK:   -6.92 KCAL/MOL
REMARK 924 INTRA-LIGAND FREE ENERGY PREDICTED BY IDOCK:   -0.50 KCAL/MOL
REMARK 927      BINDING AFFINITY PREDICTED BY RF-SCORE:    0.00 PKD
ROOT
HETATM    1  C   UNL     1      -9.931  14.817  65.698  1.00  0.00    -0.390 C  
HETATM    2  C   UNL     1     -11.397  14.720  66.106  1.00  0.00    -0.330 C  
HETATM    3  C   UNL     1     -12.223  14.010  65.030  1.00  0.00    -0.433 C  
HETATM    4  C   UNL     1     -11.534  14.118  67.498  1.00  0.00    -0.365 A  
HETATM    5  O   UNL     1     -13.530  13.849  65.364  1.00  0.00    -0.672 OA 
HETATM    6  O   UNL     1     -11.798  13.654  63.940  1.00  0.00    -0.420 OA 
HETATM    7  C   UNL     1     -11.657  12.734  67.693  1.00  0.00    -0.412 A  
HETATM    8  C   UNL     1     -11.983  12.219  68.954  1.00  0.00    -0.248 A  
HETATM    9  C   UNL     1     -11.561  14.956  68.623  1.00  0.00    -0.342 A  
HETATM   10  C   UNL     1     -11.990  13.063  70.064  1.00  0.00    -0.383 A  
HETATM   11  C   UNL     1     -11.759  14.428  69.900  1.00  0.00    -0.363 A  
ENDROOT
BRANCH   8  12
HETATM   12  O   UNL     1     -12.299  10.898  69.197  1.00  0.00    -0.435 OA 
BRANCH  12  13
HETATM   13  C   UNL     1     -11.470  10.138  69.995  1.00  0.00    -0.277 A  
HETATM   14  C   UNL     1     -12.081   9.483  71.065  1.00  0.00    -0.398 A  
HETATM   15  C   UNL     1     -11.305   8.773  71.985  1.00  0.00    -0.441 A  
HETATM   16  C   UNL     1      -9.919   8.720  71.836  1.00  0.00    -0.401 A  
HETATM   17  C   UNL     1      -9.316   9.312  70.730  1.00  0.00    -0.322 A  
HETATM   18  C   UNL     1     -10.096   9.979  69.786  1.00  0.00    -0.284 A  
ENDBRANCH  12  13
ENDBRANCH   8  12
TORSDOF 2
ENDMDL
MODEL        7
REMARK 921   NORMALIZED FREE ENERGY PREDICTED BY IDOCK:   -6.25 KCAL/MOL
REMARK 922        TOTAL FREE ENERGY PREDICTED BY IDOCK:   -7.40 KCAL/MOL
REMARK 923 INTER-LIGAND FREE ENERGY PREDICTED BY IDOCK:   -6.97 KCAL/MOL
REMARK 924 INTRA-LIGAND FREE ENERGY PREDICTED BY IDOCK:   -0.44 KCAL/MOL
REMARK 927      BINDING AFFINITY PREDICTED BY RF-SCORE:    0.00 PKD
ROOT
HETATM    1  C   UNL     1     -14.129   8.879  71.381  1.00  0.00    -0.278 C  
HETATM    2  C   UNL     1     -12.854   9.544  71.890  1.00  0.00    -0.508 C  
HETATM    3  C   UNL     1     -11.637   8.641  71.673  1.00  0.00    -0.310 C  
HETATM    4  C   UNL     1     -12.705  10.945  71.312  1.00  0.00    -0.542 A  
HETATM    5  O   UNL     1     -10.464   9.206  72.061  1.00  0.00    -0.322 OA 
HETATM    6  O   UNL     1     -11.679   7.496  71.244  1.00  0.00    -0.273 OA 
HETATM    7  C   UNL     1     -12.032  11.175  70.102  1.00  0.00    -0.449 A  
HETATM    8  C   UNL     1     -11.731  12.479  69.691  1.00  0.00    -0.302 A  
HETATM    9  C   UNL     1     -13.229  12.047  72.005  1.00  0.00    -0.481 A  
HETATM   10  C   UNL     1     -12.274  13.562  70.383  1.00  0.00    -0.426 A  
HETATM   11  C   UNL     1     -13.039  13.344  71.527  1.00  0.00    -0.427 A  
ENDROOT
BRANCH   8  12
HETATM   12  O   UNL     1     -10.923  12.790  68.618  1.00  0.00    -0.242 OA 
BRANCH  12  13
HETATM   13  C   UNL     1     -11.462  12.819  67.349  1.00  0.00    -0.340 A  
HETATM   14  C   UNL     1     -11.160  11.731  66.529  1.00  0.00    -0.364 A  
HETATM   15  C   UNL     1     -11.577  11.723  65.196  1.00  0.00    -0.211 A  
HETATM   16  C   UNL     1     -12.294  12.804  64.682  1.00  0.00    -0.524 A  
HETATM   17  C   UNL     1     -12.657  13.857  65.517  1.00  0.00    -0.560 A  
HETATM   18  C   UNL     1     -12.282  13.841  66.859  1.00  0.00    -0.408 A  
ENDBRANCH  12  13
ENDBRANCH   8  12
TORSDOF 2
ENDMDL
MODEL        8
REMARK 921   NORMALIZED FREE ENERGY PREDICTED BY IDOCK:   -6.23 KCAL/MOL
REMARK 922        TOTAL FREE ENERGY PREDICTED BY IDOCK:   -7.39 KCAL/MOL
REMARK 923 INTER-LIGAND FREE ENERGY PREDICTED BY IDOCK:   -6.99 KCAL/MOL
REMARK 924 INTRA-LIGAND FREE ENERGY PREDICTED BY IDOCK:   -0.39 KCAL/MOL
REMARK 927      BINDING AFFINITY PREDICTED BY RF-SCORE:    0.00 PKD
ROOT
HETATM    1  C   UNL     1     -12.137  12.180  63.550  1.00  0.00    -0.649 C  
HETATM    2  C   UNL     1     -11.266  13.064  64.436  1.00  0.00    -0.393 C  
HETATM    3  C   UNL     1     -11.819  14.490  64.506  1.00  0.00    -0.446 C  
HETATM    4  C   UNL     1     -11.039  12.414  65.794  1.00  0.00    -0.351 A  
HETATM    5  O   UNL     1     -11.110  15.309  65.325  1.00  0.00    -0.355 OA 
HETATM    6  O   UNL     1     -12.772  14.906  63.862  1.00  0.00    -0.789 OA 
HETATM    7  C   UNL     1     -11.909  12.637  66.872  1.00  0.00    -0.425 A  
HETATM    8  C   UNL     1     -11.576  12.197  68.159  1.00  0.00    -0.337 A  
HETATM    9  C   UNL     1      -9.925  11.586  65.996  1.00  0.00    -0.258 A  
HETATM   10  C   UNL     1     -10.474  11.362  68.338  1.00  0.00    -0.221 A  
HETATM   11  C   UNL     1      -9.661  11.040  67.253  1.00  0.00    -0.188 A  
ENDROOT
BRANCH   8  12
HETATM   12  O   UNL     1     -12.278  12.526  69.300  1.00  0.00    -0.195 OA 
BRANCH  12  13
HETATM   13  C   UNL     1     -11.981  13.696  69.966  1.00  0.00    -0.343 A  
HETATM   14  C   UNL     1     -12.580  13.860  71.216  1.00  0.00    -0.450 A  
HETATM   15  C   UNL     1     -12.417  15.057  71.917  1.00  0.00    -0.409 A  
HETATM   16  C   UNL     1     -11.658  16.091  71.369  1.00  0.00    -0.520 A  
HETATM   17  C   UNL     1     -11.001  15.902  70.156  1.00  0.00    -0.369 A  
HETATM   18  C   UNL     1     -11.124  14.690  69.479  1.00  0.00    -0.294 A  
ENDBRANCH  12  13
ENDBRANCH   8  12
TORSDOF 2
ENDMDL
MODEL        9
REMARK 921   NORMALIZED FREE ENERGY PREDICTED BY IDOCK:   -6.12 KCAL/MOL
REMARK 922        TOTAL FREE ENERGY PREDICTED BY IDOCK:   -7.26 KCAL/MOL
REMARK 923 INTER-LIGAND FREE ENERGY PREDICTED BY IDOCK:   -6.69 KCAL/MOL
REMARK 924 INTRA-LIGAND FREE ENERGY PREDICTED BY IDOCK:   -0.57 KCAL/MOL
REMARK 927      BINDING AFFINITY PREDICTED BY RF-SCORE:    0.00 PKD
ROOT
HETATM    1  C   UNL     1      -9.052  11.757  68.042  1.00  0.00    -0.180 C  
HETATM    2  C   UNL     1     -10.043  12.471  67.129  1.00  0.00    -0.219 C  
HETATM    3  C   UNL     1     -11.342  11.672  66.992  1.00  0.00    -0.305 C  
HETATM    4  C   UNL     1     -10.240  13.916  67.568  1.00  0.00    -0.245 A  
HETATM    5  O   UNL     1     -12.282  12.288  66.230  1.00  0.00    -0.628 OA 
HETATM    6  O   UNL     1     -11.536  10.560  67.464  1.00  0.00    -0.431 OA 
HETATM    7  C   UNL     1     -11.232  14.276  68.493  1.00  0.00    -0.289 A  
HETATM    8  C   UNL     1     -11.529  15.624  68.729  1.00  0.00    -0.376 A  
HETATM    9  C   UNL     1      -9.433  14.928  67.026  1.00  0.00    -0.239 A  
HETATM   10  C   UNL     1     -10.707  16.615  68.196  1.00  0.00    -0.349 A  
HETATM   11  C   UNL     1      -9.647  16.266  67.362  1.00  0.00    -0.230 A  
ENDROOT
BRANCH   8  12
HETATM   12  O   UNL     1     -12.600  16.064  69.479  1.00  0.00    -0.048 OA 
BRANCH  12  13
HETATM   13  C   UNL     1     -12.764  15.598  70.767  1.00  0.00    -0.431 A  
HETATM   14  C   UNL     1     -11.848  16.066  71.710  1.00  0.00    -0.599 A  
HETATM   15  C   UNL     1     -11.874  15.570  73.016  1.00  0.00    -0.555 A  
HETATM   16  C   UNL     1     -12.814  14.605  73.378  1.00  0.00    -0.526 A  
HETATM   17  C   UNL     1     -13.774  14.190  72.458  1.00  0.00    -0.626 A  
HETATM   18  C   UNL     1     -13.777  14.721  71.169  1.00  0.00    -0.413 A  
ENDBRANCH  12  13
ENDBRANCH   8  12
TORSDOF 2
ENDMDL
MODEL       10
REMARK 921   NORMALIZED FREE ENERGY PREDICTED BY IDOCK:   -6.11 KCAL/MOL
REMARK 922        TOTAL FREE ENERGY PREDICTED BY IDOCK:   -7.24 KCAL/MOL
REMARK 923 INTER-LIGAND FREE ENERGY PREDICTED BY IDOCK:   -6.91 KCAL/MOL
REMARK 924 INTRA-LIGAND FREE ENERGY PREDICTED BY IDOCK:   -0.33 KCAL/MOL
REMARK 927      BINDING AFFINITY PREDICTED BY RF-SCORE:    0.00 PKD
ROOT
HETATM    1  C   UNL     1     -10.551  11.476  64.167  1.00  0.00    -0.420 C  
HETATM    2  C   UNL     1     -11.103  12.799  64.688  1.00  0.00    -0.349 C  
HETATM    3  C   UNL     1     -12.604  12.919  64.407  1.00  0.00    -0.317 C  
HETATM    4  C   UNL     1     -10.721  13.009  66.147  1.00  0.00    -0.288 A  
HETATM    5  O   UNL     1     -13.160  14.057  64.897  1.00  0.00    -0.693 OA 
HETATM    6  O   UNL     1     -13.264  12.116  63.763  1.00  0.00    -0.763 OA 
HETATM    7  C   UNL     1     -11.536  12.555  67.195  1.00  0.00    -0.414 A  
HETATM    8  C   UNL     1     -11.271  12.932  68.517  1.00  0.00    -0.274 A  
HETATM    9  C   UNL     1      -9.538  13.692  66.468  1.00  0.00    -0.294 A  
HETATM   10  C   UNL     1     -10.083  13.596  68.821  1.00  0.00    -0.129 A  
HETATM   11  C   UNL     1      -9.208  13.957  67.798  1.00  0.00    -0.197 A  
ENDROOT
BRANCH   8  12
HETATM   12  O   UNL     1     -12.115  12.684  69.580  1.00  0.00    -0.283 OA 
BRANCH  12  13
HETATM   13  C   UNL     1     -12.038  11.475  70.239  1.00  0.00    -0.359 A  
HETATM   14  C   UNL     1     -12.980  11.265  71.247  1.00  0.00    -0.427 A  
HETATM   15  C   UNL     1     -12.915  10.114  72.035  1.00  0.00    -0.508 A  
HETATM   16  C   UNL     1     -11.908   9.173  71.817  1.00  0.00    -0.453 A  
HETATM   17  C   UNL     1     -11.011   9.346  70.766  1.00  0.00    -0.371 A  
HETATM   18  C   UNL     1     -11.107  10.472  69.950  1.00  0.00    -0.371 A  
ENDBRANCH  12  13
ENDBRANCH   8  12
TORSDOF 2
ENDMDL
MODEL       11
REMARK 921   NORMALIZED FREE ENERGY PREDICTED BY IDOCK:   -6.10 KCAL/MOL
REMARK 922        TOTAL FREE ENERGY PREDICTED BY IDOCK:   -7.24 KCAL/MOL
REMARK 923 INTER-LIGAND FREE ENERGY PREDICTED BY IDOCK:   -6.69 KCAL/MOL
REMARK 924 INTRA-LIGAND FREE ENERGY PREDICTED BY IDOCK:   -0.55 KCAL/MOL
REMARK 927      BINDING AFFINITY PREDICTED BY RF-SCORE:    0.00 PKD
ROOT
HETATM    1  C   UNL     1     -11.448  12.397  68.904  1.00  0.00    -0.355 C  
HETATM    2  C   UNL     1     -12.117  13.728  68.578  1.00  0.00    -0.327 C  
HETATM    3  C   UNL     1     -11.935  14.731  69.721  1.00  0.00    -0.321 C  
HETATM    4  C   UNL     1     -11.666  14.243  67.218  1.00  0.00    -0.422 A  
HETATM    5  O   UNL     1     -12.467  15.954  69.463  1.00  0.00    -0.150 OA 
HETATM    6  O   UNL     1     -11.415  14.480  70.800  1.00  0.00    -0.242 OA 
HETATM    7  C   UNL     1     -10.541  15.070  67.079  1.00  0.00    -0.293 A  
HETATM    8  C   UNL     1     -10.262  15.693  65.856  1.00  0.00    -0.351 A  
HETATM    9  C   UNL     1     -12.396  13.908  66.067  1.00  0.00    -0.511 A  
HETATM   10  C   UNL     1     -10.987  15.337  64.719  1.00  0.00    -0.403 A  
HETATM   11  C   UNL     1     -12.040  14.429  64.822  1.00  0.00    -0.462 A  
ENDROOT
BRANCH   8  12
HETATM   12  O   UNL     1      -9.291  16.656  65.677  1.00  0.00    -0.502 OA 
BRANCH  12  13
HETATM   13  C   UNL     1      -9.331  17.809  66.432  1.00  0.00    -0.249 A  
HETATM   14  C   UNL     1     -10.393  18.676  66.172  1.00  0.00    -0.481 A  
HETATM   15  C   UNL     1     -10.459  19.914  66.815  1.00  0.00    -0.575 A  
HETATM   16  C   UNL     1      -9.461  20.286  67.717  1.00  0.00    -0.453 A  
HETATM   17  C   UNL     1      -8.440  19.394  68.031  1.00  0.00    -0.355 A  
HETATM   18  C   UNL     1      -8.402  18.139  67.425  1.00  0.00    -0.239 A  
ENDBRANCH  12  13
ENDBRANCH   8  12
TORSDOF 2
ENDMDL
MODEL       12
REMARK 921   NORMALIZED FREE ENERGY PREDICTED BY IDOCK:   -6.05 KCAL/MOL
REMARK 922        TOTAL FREE ENERGY PREDICTED BY IDOCK:   -7.19 KCAL/MOL
REMARK 923 INTER-LIGAND FREE ENERGY PREDICTED BY IDOCK:   -6.74 KCAL/MOL
REMARK 924 INTRA-LIGAND FREE ENERGY PREDICTED BY IDOCK:   -0.45 KCAL/MOL
REMARK 927      BINDING AFFINITY PREDICTED BY RF-SCORE:    0.00 PKD
ROOT
HETATM    1  C   UNL     1     -11.182  11.158  67.259  1.00  0.00    -0.347 C  
HETATM    2  C   UNL     1     -11.955  12.454  67.478  1.00  0.00    -0.253 C  
HETATM    3  C   UNL     1     -11.768  12.973  68.906  1.00  0.00    -0.328 C  
HETATM    4  C   UNL     1     -11.624  13.472  66.394  1.00  0.00    -0.381 A  
HETATM    5  O   UNL     1     -12.393  14.156  69.142  1.00  0.00    -0.301 OA 
HETATM    6  O   UNL     1     -11.166  12.386  69.794  1.00  0.00    -0.115 OA 
HETATM    7  C   UNL     1     -10.567  14.383  66.537  1.00  0.00    -0.296 A  
HETATM    8  C   UNL     1     -10.406  15.435  65.627  1.00  0.00    -0.372 A  
HETATM    9  C   UNL     1     -12.401  13.527  65.227  1.00  0.00    -0.506 A  
HETATM   10  C   UNL     1     -11.176  15.466  64.465  1.00  0.00    -0.310 A  
HETATM   11  C   UNL     1     -12.159  14.500  64.256  1.00  0.00    -0.448 A  
ENDROOT
BRANCH   8  12
HETATM   12  O   UNL     1      -9.513  16.473  65.789  1.00  0.00    -0.484 OA 
BRANCH  12  13
HETATM   13  C   UNL     1      -9.833  17.520  66.628  1.00  0.00    -0.306 A  
HETATM   14  C   UNL     1     -10.361  18.658  66.017  1.00  0.00    -0.436 A  
HETATM   15  C   UNL     1     -10.619  19.802  66.774  1.00  0.00    -0.586 A  
HETATM   16  C   UNL     1     -10.346  19.811  68.142  1.00  0.00    -0.561 A  
HETATM   17  C   UNL     1      -9.887  18.654  68.767  1.00  0.00    -0.422 A  
HETATM   18  C   UNL     1      -9.676  17.497  68.018  1.00  0.00    -0.287 A  
ENDBRANCH  12  13
ENDBRANCH   8  12
TORSDOF 2
ENDMDL
MODEL       13
REMARK 921   NORMALIZED FREE ENERGY PREDICTED BY IDOCK:   -5.92 KCAL/MOL
REMARK 922        TOTAL FREE ENERGY PREDICTED BY IDOCK:   -7.04 KCAL/MOL
REMARK 923 INTER-LIGAND FREE ENERGY PREDICTED BY IDOCK:   -6.72 KCAL/MOL
REMARK 924 INTRA-LIGAND FREE ENERGY PREDICTED BY IDOCK:   -0.31 KCAL/MOL
REMARK 927      BINDING AFFINITY PREDICTED BY RF-SCORE:    0.00 PKD
ROOT
HETATM    1  C   UNL     1     -12.998  11.853  63.669  1.00  0.00    -0.317 C  
HETATM    2  C   UNL     1     -11.610  12.401  63.978  1.00  0.00    -0.488 C  
HETATM    3  C   UNL     1     -11.662  13.904  64.270  1.00  0.00    -0.380 C  
HETATM    4  C   UNL     1     -10.930  11.577  65.064  1.00  0.00    -0.305 A  
HETATM    5  O   UNL     1     -10.458  14.436  64.603  1.00  0.00    -0.412 OA 
HETATM    6  O   UNL     1     -12.661  14.604  64.172  1.00  0.00    -0.766 OA 
HETATM    7  C   UNL     1     -11.073  11.891  66.424  1.00  0.00    -0.359 A  
HETATM    8  C   UNL     1     -10.285  11.251  67.389  1.00  0.00    -0.188 A  
HETATM    9  C   UNL     1     -10.121  10.487  64.711  1.00  0.00    -0.406 A  
HETATM   10  C   UNL     1      -9.498  10.159  67.023  1.00  0.00    -0.197 A  
HETATM   11  C   UNL     1      -9.433   9.765  65.688  1.00  0.00    -0.307 A  
ENDROOT
BRANCH   8  12
HETATM   12  O   UNL     1     -10.229  11.619  68.717  1.00  0.00    -0.212 OA 
BRANCH  12  13
HETATM   13  C   UNL     1     -10.962  10.915  69.648  1.00  0.00    -0.252 A  
HETATM   14  C   UNL     1     -12.136  11.524  70.094  1.00  0.00    -0.432 A  
HETATM   15  C   UNL     1     -12.889  10.932  71.110  1.00  0.00    -0.508 A  
HETATM   16  C   UNL     1     -12.468   9.731  71.683  1.00  0.00    -0.500 A  
HETATM   17  C   UNL     1     -11.336   9.086  71.191  1.00  0.00    -0.375 A  
HETATM   18  C   UNL     1     -10.612   9.654  70.144  1.00  0.00    -0.320 A  
ENDBRANCH  12  13
ENDBRANCH   8  12
TORSDOF 2
ENDMDL
MODEL       14
REMARK 921   NORMALIZED FREE ENERGY PREDICTED BY IDOCK:   -5.92 KCAL/MOL
REMARK 922        TOTAL FREE ENERGY PREDICTED BY IDOCK:   -7.03 KCAL/MOL
REMARK 923 INTER-LIGAND FREE ENERGY PREDICTED BY IDOCK:   -6.52 KCAL/MOL
REMARK 924 INTRA-LIGAND FREE ENERGY PREDICTED BY IDOCK:   -0.51 KCAL/MOL
REMARK 927      BINDING AFFINITY PREDICTED BY RF-SCORE:    0.00 PKD
ROOT
HETATM    1  C   UNL     1      -8.294  17.189  68.528  1.00  0.00    -0.262 C  
HETATM    2  C   UNL     1      -9.610  17.072  67.767  1.00  0.00    -0.244 C  
HETATM    3  C   UNL     1      -9.370  17.020  66.255  1.00  0.00    -0.248 C  
HETATM    4  C   UNL     1     -10.449  15.921  68.307  1.00  0.00    -0.257 A  
HETATM    5  O   UNL     1     -10.506  16.864  65.529  1.00  0.00    -0.560 OA 
HETATM    6  O   UNL     1      -8.282  17.156  65.711  1.00  0.00    -0.515 OA 
HETATM    7  C   UNL     1     -10.335  14.622  67.791  1.00  0.00    -0.237 A  
HETATM    8  C   UNL     1     -11.251  13.628  68.158  1.00  0.00    -0.275 A  
HETATM    9  C   UNL     1     -11.379  16.155  69.331  1.00  0.00    -0.323 A  
HETATM   10  C   UNL     1     -12.158  13.872  69.188  1.00  0.00    -0.377 A  
HETATM   11  C   UNL     1     -12.207  15.129  69.788  1.00  0.00    -0.325 A  
ENDROOT
BRANCH   8  12
HETATM   12  O   UNL     1     -11.324  12.383  67.569  1.00  0.00    -0.274 OA 
BRANCH  12  13
HETATM   13  C   UNL     1     -11.434  12.286  66.197  1.00  0.00    -0.374 A  
HETATM   14  C   UNL     1     -10.540  11.418  65.570  1.00  0.00    -0.328 A  
HETATM   15  C   UNL     1     -10.510  11.332  64.176  1.00  0.00    -0.431 A  
HETATM   16  C   UNL     1     -11.372  12.117  63.409  1.00  0.00    -0.495 A  
HETATM   17  C   UNL     1     -12.313  12.930  64.035  1.00  0.00    -0.457 A  
HETATM   18  C   UNL     1     -12.375  12.978  65.427  1.00  0.00    -0.538 A  
ENDBRANCH  12  13
ENDBRANCH   8  12
TORSDOF 2
ENDMDL
MODEL       15
REMARK 921   NORMALIZED FREE ENERGY PREDICTED BY IDOCK:   -5.90 KCAL/MOL
REMARK 922        TOTAL FREE ENERGY PREDICTED BY IDOCK:   -7.01 KCAL/MOL
REMARK 923 INTER-LIGAND FREE ENERGY PREDICTED BY IDOCK:   -6.74 KCAL/MOL
REMARK 924 INTRA-LIGAND FREE ENERGY PREDICTED BY IDOCK:   -0.27 KCAL/MOL
REMARK 927      BINDING AFFINITY PREDICTED BY RF-SCORE:    0.00 PKD
ROOT
HETATM    1  C   UNL     1     -12.402  12.213  63.347  1.00  0.00    -0.648 C  
HETATM    2  C   UNL     1     -11.379  11.968  64.451  1.00  0.00    -0.411 C  
HETATM    3  C   UNL     1     -10.031  11.537  63.867  1.00  0.00    -0.324 C  
HETATM    4  C   UNL     1     -11.300  13.164  65.391  1.00  0.00    -0.323 A  
HETATM    5  O   UNL     1      -9.065  11.356  64.804  1.00  0.00    -0.102 OA 
HETATM    6  O   UNL     1      -9.816  11.316  62.683  1.00  0.00    -0.242 OA 
HETATM    7  C   UNL     1     -10.412  14.225  65.161  1.00  0.00    -0.432 A  
HETATM    8  C   UNL     1     -10.211  15.210  66.136  1.00  0.00    -0.295 A  
HETATM    9  C   UNL     1     -12.113  13.210  66.534  1.00  0.00    -0.423 A  
HETATM   10  C   UNL     1     -11.039  15.250  67.257  1.00  0.00    -0.325 A  
HETATM   11  C   UNL     1     -12.003  14.261  67.445  1.00  0.00    -0.426 A  
ENDROOT
BRANCH   8  12
HETATM   12  O   UNL     1      -9.233  16.181  66.070  1.00  0.00    -0.319 OA 
BRANCH  12  13
HETATM   13  C   UNL     1      -9.474  17.425  66.616  1.00  0.00    -0.274 A  
HETATM   14  C   UNL     1      -8.755  17.739  67.770  1.00  0.00    -0.241 A  
HETATM   15  C   UNL     1      -9.008  18.933  68.448  1.00  0.00    -0.377 A  
HETATM   16  C   UNL     1      -9.982  19.813  67.975  1.00  0.00    -0.553 A  
HETATM   17  C   UNL     1     -10.649  19.535  66.785  1.00  0.00    -0.597 A  
HETATM   18  C   UNL     1     -10.361  18.366  66.082  1.00  0.00    -0.431 A  
ENDBRANCH  12  13
ENDBRANCH   8  12
TORSDOF 2
ENDMDL
MODEL       16
REMARK 921   NORMALIZED FREE ENERGY PREDICTED BY IDOCK:   -5.85 KCAL/MOL
REMARK 922        TOTAL FREE ENERGY PREDICTED BY IDOCK:   -6.96 KCAL/MOL
REMARK 923 INTER-LIGAND FREE ENERGY PREDICTED BY IDOCK:   -6.64 KCAL/MOL
REMARK 924 INTRA-LIGAND FREE ENERGY PREDICTED BY IDOCK:   -0.33 KCAL/MOL
REMARK 927      BINDING AFFINITY PREDICTED BY RF-SCORE:    0.00 PKD
ROOT
HETATM    1  C   UNL     1     -11.907  12.209  67.515  1.00  0.00    -0.307 C  
HETATM    2  C   UNL     1     -10.958  12.362  66.332  1.00  0.00    -0.315 C  
HETATM    3  C   UNL     1     -11.731  12.602  65.032  1.00  0.00    -0.359 C  
HETATM    4  C   UNL     1      -9.888  13.406  66.626  1.00  0.00    -0.278 A  
HETATM    5  O   UNL     1     -10.932  12.798  63.952  1.00  0.00    -0.381 OA 
HETATM    6  O   UNL     1     -12.949  12.577  64.925  1.00  0.00    -0.821 OA 
HETATM    7  C   UNL     1     -10.077  14.761  66.316  1.00  0.00    -0.299 A  
HETATM    8  C   UNL     1      -9.012  15.667  66.406  1.00  0.00    -0.326 A  
HETATM    9  C   UNL     1      -8.669  13.015  67.200  1.00  0.00    -0.204 A  
HETATM   10  C   UNL     1      -7.814  15.266  66.994  1.00  0.00    -0.224 A  
HETATM   11  C   UNL     1      -7.650  13.946  67.410  1.00  0.00    -0.160 A  
ENDROOT
BRANCH   8  12
HETATM   12  O   UNL     1      -9.059  16.969  65.953  1.00  0.00    -0.510 OA 
BRANCH  12  13
HETATM   13  C   UNL     1      -9.511  17.964  66.794  1.00  0.00    -0.287 A  
HETATM   14  C   UNL     1      -9.666  19.228  66.222  1.00  0.00    -0.430 A  
HETATM   15  C   UNL     1     -10.021  20.317  67.020  1.00  0.00    -0.601 A  
HETATM   16  C   UNL     1     -10.220  20.145  68.390  1.00  0.00    -0.438 A  
HETATM   17  C   UNL     1     -10.136  18.873  68.950  1.00  0.00    -0.372 A  
HETATM   18  C   UNL     1      -9.829  17.778  68.143  1.00  0.00    -0.326 A  
ENDBRANCH  12  13
ENDBRANCH   8  12
TORSDOF 2
ENDMDL
MODEL       17
REMARK 921   NORMALIZED FREE ENERGY PREDICTED BY IDOCK:   -5.84 KCAL/MOL
REMARK 922        TOTAL FREE ENERGY PREDICTED BY IDOCK:   -6.95 KCAL/MOL
REMARK 923 INTER-LIGAND FREE ENERGY PREDICTED BY IDOCK:   -6.49 KCAL/MOL
REMARK 924 INTRA-LIGAND FREE ENERGY PREDICTED BY IDOCK:   -0.46 KCAL/MOL
REMARK 927      BINDING AFFINITY PREDICTED BY RF-SCORE:    0.00 PKD
ROOT
HETATM    1  C   UNL     1     -10.057  15.287  69.432  1.00  0.00    -0.266 C  
HETATM    2  C   UNL     1     -11.436  14.790  69.010  1.00  0.00    -0.316 C  
HETATM    3  C   UNL     1     -11.427  14.308  67.556  1.00  0.00    -0.345 C  
HETATM    4  C   UNL     1     -11.973  13.769  70.004  1.00  0.00    -0.407 A  
HETATM    5  O   UNL     1     -12.618  13.806  67.142  1.00  0.00    -0.159 OA 
HETATM    6  O   UNL     1     -10.475  14.397  66.793  1.00  0.00    -0.269 OA 
HETATM    7  C   UNL     1     -11.721  12.397  69.859  1.00  0.00    -0.339 A  
HETATM    8  C   UNL     1     -12.386  11.462  70.662  1.00  0.00    -0.373 A  
HETATM    9  C   UNL     1     -12.760  14.194  71.085  1.00  0.00    -0.431 A  
HETATM   10  C   UNL     1     -13.151  11.901  71.742  1.00  0.00    -0.465 A  
HETATM   11  C   UNL     1     -13.321  13.266  71.965  1.00  0.00    -0.582 A  
ENDROOT
BRANCH   8  12
HETATM   12  O   UNL     1     -12.336  10.097  70.470  1.00  0.00    -0.281 OA 
BRANCH  12  13
HETATM   13  C   UNL     1     -11.424   9.345  71.179  1.00  0.00    -0.352 A  
HETATM   14  C   UNL     1     -11.953   8.483  72.141  1.00  0.00    -0.451 A  
HETATM   15  C   UNL     1     -11.100   7.758  72.976  1.00  0.00    -0.419 A  
HETATM   16  C   UNL     1      -9.717   7.896  72.851  1.00  0.00    -0.339 A  
HETATM   17  C   UNL     1      -9.187   8.700  71.846  1.00  0.00    -0.345 A  
HETATM   18  C   UNL     1     -10.039   9.385  70.981  1.00  0.00    -0.353 A  
ENDBRANCH  12  13
ENDBRANCH   8  12
TORSDOF 2
ENDMDL
MODEL       18
REMARK 921   NORMALIZED FREE ENERGY PREDICTED BY IDOCK:   -5.84 KCAL/MOL
REMARK 922        TOTAL FREE ENERGY PREDICTED BY IDOCK:   -6.95 KCAL/MOL
REMARK 923 INTER-LIGAND FREE ENERGY PREDICTED BY IDOCK:   -6.48 KCAL/MOL
REMARK 924 INTRA-LIGAND FREE ENERGY PREDICTED BY IDOCK:   -0.47 KCAL/MOL
REMARK 927      BINDING AFFINITY PREDICTED BY RF-SCORE:    0.00 PKD
ROOT
HETATM    1  C   UNL     1     -13.118  15.686  71.927  1.00  0.00    -0.545 C  
HETATM    2  C   UNL     1     -12.219  14.562  71.423  1.00  0.00    -0.425 C  
HETATM    3  C   UNL     1     -12.908  13.202  71.560  1.00  0.00    -0.307 C  
HETATM    4  C   UNL     1     -11.706  14.865  70.021  1.00  0.00    -0.338 A  
HETATM    5  O   UNL     1     -12.173  12.167  71.077  1.00  0.00    -0.310 OA 
HETATM    6  O   UNL     1     -13.993  13.014  72.093  1.00  0.00    -0.406 OA 
HETATM    7  C   UNL     1     -12.411  14.464  68.876  1.00  0.00    -0.104 A  
HETATM    8  C   UNL     1     -11.828  14.572  67.607  1.00  0.00    -0.364 A  
HETATM    9  C   UNL     1     -10.489  15.542  69.853  1.00  0.00    -0.323 A  
HETATM   10  C   UNL     1     -10.626  15.261  67.457  1.00  0.00    -0.273 A  
HETATM   11  C   UNL     1      -9.967  15.764  68.578  1.00  0.00    -0.208 A  
ENDROOT
BRANCH   8  12
HETATM   12  O   UNL     1     -12.370  14.041  66.455  1.00  0.00    -0.460 OA 
BRANCH  12  13
HETATM   13  C   UNL     1     -11.681  13.063  65.769  1.00  0.00    -0.382 A  
HETATM   14  C   UNL     1     -11.586  13.234  64.387  1.00  0.00    -0.423 A  
HETATM   15  C   UNL     1     -10.996  12.244  63.599  1.00  0.00    -0.532 A  
HETATM   16  C   UNL     1     -10.502  11.081  64.192  1.00  0.00    -0.434 A  
HETATM   17  C   UNL     1     -10.531  10.941  65.576  1.00  0.00    -0.286 A  
HETATM   18  C   UNL     1     -11.077  11.952  66.366  1.00  0.00    -0.359 A  
ENDBRANCH  12  13
ENDBRANCH   8  12
TORSDOF 2
ENDMDL
MODEL       19
REMARK 921   NORMALIZED FREE ENERGY PREDICTED BY IDOCK:   -5.84 KCAL/MOL
REMARK 922        TOTAL FREE ENERGY PREDICTED BY IDOCK:   -6.95 KCAL/MOL
REMARK 923 INTER-LIGAND FREE ENERGY PREDICTED BY IDOCK:   -6.45 KCAL/MOL
REMARK 924 INTRA-LIGAND FREE ENERGY PREDICTED BY IDOCK:   -0.49 KCAL/MOL
REMARK 927      BINDING AFFINITY PREDICTED BY RF-SCORE:    0.00 PKD
ROOT
HETATM    1  C   UNL     1     -10.474  17.230  65.474  1.00  0.00    -0.135 C  
HETATM    2  C   UNL     1      -9.976  17.113  66.910  1.00  0.00    -0.288 C  
HETATM    3  C   UNL     1     -10.497  18.267  67.770  1.00  0.00    -0.410 C  
HETATM    4  C   UNL     1     -10.271  15.730  67.475  1.00  0.00    -0.265 A  
HETATM    5  O   UNL     1     -10.127  18.185  69.074  1.00  0.00    -0.377 OA 
HETATM    6  O   UNL     1     -11.143  19.219  67.353  1.00  0.00    -0.444 OA 
HETATM    7  C   UNL     1     -11.472  15.447  68.143  1.00  0.00    -0.352 A  
HETATM    8  C   UNL     1     -11.638  14.236  68.827  1.00  0.00    -0.322 A  
HETATM    9  C   UNL     1      -9.318  14.707  67.352  1.00  0.00    -0.196 A  
HETATM   10  C   UNL     1     -10.689  13.225  68.680  1.00  0.00    -0.281 A  
HETATM   11  C   UNL     1      -9.540  13.454  67.926  1.00  0.00    -0.216 A  
ENDROOT
BRANCH   8  12
HETATM   12  O   UNL     1     -12.704  13.951  69.654  1.00  0.00    -0.137 OA 
BRANCH  12  13
HETATM   13  C   UNL     1     -12.791  14.564  70.886  1.00  0.00    -0.360 A  
HETATM   14  C   UNL     1     -14.078  14.871  71.330  1.00  0.00    -0.552 A  
HETATM   15  C   UNL     1     -14.257  15.583  72.518  1.00  0.00    -0.502 A  
HETATM   16  C   UNL     1     -13.149  15.991  73.261  1.00  0.00    -0.658 A  
HETATM   17  C   UNL     1     -11.868  15.625  72.858  1.00  0.00    -0.564 A  
HETATM   18  C   UNL     1     -11.694  14.872  71.697  1.00  0.00    -0.395 A  
ENDBRANCH  12  13
ENDBRANCH   8  12
TORSDOF 2
ENDMDL
MODEL       20
REMARK 921   NORMALIZED FREE ENERGY PREDICTED BY IDOCK:   -5.81 KCAL/MOL
REMARK 922        TOTAL FREE ENERGY PREDICTED BY IDOCK:   -6.91 KCAL/MOL
REMARK 923 INTER-LIGAND FREE ENERGY PREDICTED BY IDOCK:   -6.36 KCAL/MOL
REMARK 924 INTRA-LIGAND FREE ENERGY PREDICTED BY IDOCK:   -0.56 KCAL/MOL
REMARK 927      BINDING AFFINITY PREDICTED BY RF-SCORE:    0.00 PKD
ROOT
HETATM    1  C   UNL     1     -12.814  13.832  65.492  1.00  0.00    -0.464 C  
HETATM    2  C   UNL     1     -11.703  13.230  66.345  1.00  0.00    -0.418 C  
HETATM    3  C   UNL     1     -10.446  12.969  65.510  1.00  0.00    -0.285 C  
HETATM    4  C   UNL     1     -11.461  14.070  67.593  1.00  0.00    -0.362 A  
HETATM    5  O   UNL     1      -9.404  12.480  66.231  1.00  0.00    -0.232 OA 
HETATM    6  O   UNL     1     -10.363  13.123  64.299  1.00  0.00    -0.421 OA 
HETATM    7  C   UNL     1     -10.540  15.127  67.602  1.00  0.00    -0.263 A  
HETATM    8  C   UNL     1     -10.186  15.753  68.804  1.00  0.00    -0.217 A  
HETATM    9  C   UNL     1     -12.154  13.776  68.777  1.00  0.00    -0.344 A  
HETATM   10  C   UNL     1     -10.895  15.461  69.968  1.00  0.00    -0.320 A  
HETATM   11  C   UNL     1     -11.893  14.488  69.949  1.00  0.00    -0.373 A  
ENDROOT
BRANCH   8  12
HETATM   12  O   UNL     1      -9.165  16.672  68.931  1.00  0.00    -0.247 OA 
BRANCH  12  13
HETATM   13  C   UNL     1      -9.207  17.839  68.198  1.00  0.00    -0.277 A  
HETATM   14  C   UNL     1     -10.130  18.797  68.621  1.00  0.00    -0.432 A  
HETATM   15  C   UNL     1     -10.313  19.966  67.880  1.00  0.00    -0.545 A  
HETATM   16  C   UNL     1      -9.576  20.177  66.714  1.00  0.00    -0.559 A  
HETATM   17  C   UNL     1      -8.605  19.257  66.330  1.00  0.00    -0.355 A  
HETATM   18  C   UNL     1      -8.388  18.114  67.097  1.00  0.00    -0.244 A  
ENDBRANCH  12  13
ENDBRANCH   8  12
TORSDOF 2
ENDMDL
MODEL       21
REMARK 921   NORMALIZED FREE ENERGY PREDICTED BY IDOCK:   -5.79 KCAL/MOL
REMARK 922        TOTAL FREE ENERGY PREDICTED BY IDOCK:   -6.90 KCAL/MOL
REMARK 923 INTER-LIGAND FREE ENERGY PREDICTED BY IDOCK:   -6.39 KCAL/MOL
REMARK 924 INTRA-LIGAND FREE ENERGY PREDICTED BY IDOCK:   -0.51 KCAL/MOL
REMARK 927      BINDING AFFINITY PREDICTED BY RF-SCORE:    0.00 PKD
ROOT
HETATM    1  C   UNL     1      -9.066  10.744  65.094  1.00  0.00    -0.225 C  
HETATM    2  C   UNL     1     -10.330  10.561  65.925  1.00  0.00    -0.275 C  
HETATM    3  C   UNL     1     -10.071   9.655  67.132  1.00  0.00    -0.218 C  
HETATM    4  C   UNL     1     -10.948  11.909  66.277  1.00  0.00    -0.345 A  
HETATM    5  O   UNL     1     -11.152   9.499  67.938  1.00  0.00    -0.179 OA 
HETATM    6  O   UNL     1      -9.022   9.067  67.356  1.00  0.00    -0.124 OA 
HETATM    7  C   UNL     1     -10.592  12.600  67.445  1.00  0.00    -0.240 A  
HETATM    8  C   UNL     1     -11.312  13.731  67.851  1.00  0.00    -0.299 A  
HETATM    9  C   UNL     1     -11.915  12.476  65.433  1.00  0.00    -0.492 A  
HETATM   10  C   UNL     1     -12.258  14.290  66.993  1.00  0.00    -0.338 A  
HETATM   11  C   UNL     1     -12.544  13.674  65.776  1.00  0.00    -0.511 A  
ENDROOT
BRANCH   8  12
HETATM   12  O   UNL     1     -11.149  14.361  69.066  1.00  0.00    -0.241 OA 
BRANCH  12  13
HETATM   13  C   UNL     1     -12.084  14.168  70.062  1.00  0.00    -0.346 A  
HETATM   14  C   UNL     1     -12.756  15.309  70.503  1.00  0.00    -0.440 A  
HETATM   15  C   UNL     1     -13.645  15.226  71.576  1.00  0.00    -0.593 A  
HETATM   16  C   UNL     1     -13.862  14.002  72.211  1.00  0.00    -0.655 A  
HETATM   17  C   UNL     1     -13.248  12.850  71.727  1.00  0.00    -0.479 A  
HETATM   18  C   UNL     1     -12.397  12.926  70.625  1.00  0.00    -0.385 A  
ENDBRANCH  12  13
ENDBRANCH   8  12
TORSDOF 2
ENDMDL
MODEL       22
REMARK 921   NORMALIZED FREE ENERGY PREDICTED BY IDOCK:   -5.62 KCAL/MOL
REMARK 922        TOTAL FREE ENERGY PREDICTED BY IDOCK:   -6.70 KCAL/MOL
REMARK 923 INTER-LIGAND FREE ENERGY PREDICTED BY IDOCK:   -6.32 KCAL/MOL
REMARK 924 INTRA-LIGAND FREE ENERGY PREDICTED BY IDOCK:   -0.37 KCAL/MOL
REMARK 927      BINDING AFFINITY PREDICTED BY RF-SCORE:    0.00 PKD
ROOT
HETATM    1  C   UNL     1     -10.279  10.163  66.394  1.00  0.00    -0.288 C  
HETATM    2  C   UNL     1      -9.696  10.972  67.548  1.00  0.00    -0.190 C  
HETATM    3  C   UNL     1      -9.517  12.441  67.155  1.00  0.00    -0.198 C  
HETATM    4  C   UNL     1     -10.503  10.759  68.822  1.00  0.00    -0.221 A  
HETATM    5  O   UNL     1      -9.049  13.221  68.164  1.00  0.00    -0.198 OA 
HETATM    6  O   UNL     1      -9.715  12.899  66.038  1.00  0.00    -0.266 OA 
HETATM    7  C   UNL     1     -11.598  11.574  69.146  1.00  0.00    -0.382 A  
HETATM    8  C   UNL     1     -12.198  11.493  70.409  1.00  0.00    -0.355 A  
HETATM    9  C   UNL     1     -10.141   9.740  69.716  1.00  0.00    -0.268 A  
HETATM   10  C   UNL     1     -11.837  10.464  71.278  1.00  0.00    -0.381 A  
HETATM   11  C   UNL     1     -10.824   9.576  70.923  1.00  0.00    -0.407 A  
ENDROOT
BRANCH   8  12
HETATM   12  O   UNL     1     -13.154  12.371  70.874  1.00  0.00    -0.059 OA 
BRANCH  12  13
HETATM   13  C   UNL     1     -12.760  13.570  71.431  1.00  0.00    -0.336 A  
HETATM   14  C   UNL     1     -13.294  13.868  72.686  1.00  0.00    -0.640 A  
HETATM   15  C   UNL     1     -13.032  15.103  73.281  1.00  0.00    -0.645 A  
HETATM   16  C   UNL     1     -12.239  16.043  72.622  1.00  0.00    -0.619 A  
HETATM   17  C   UNL     1     -11.647  15.720  71.404  1.00  0.00    -0.511 A  
HETATM   18  C   UNL     1     -11.870  14.468  70.833  1.00  0.00    -0.362 A  
ENDBRANCH  12  13
ENDBRANCH   8  12
TORSDOF 2
ENDMDL
MODEL       23
REMARK 921   NORMALIZED FREE ENERGY PREDICTED BY IDOCK:   -5.60 KCAL/MOL
REMARK 922        TOTAL FREE ENERGY PREDICTED BY IDOCK:   -6.68 KCAL/MOL
REMARK 923 INTER-LIGAND FREE ENERGY PREDICTED BY IDOCK:   -6.16 KCAL/MOL
REMARK 924 INTRA-LIGAND FREE ENERGY PREDICTED BY IDOCK:   -0.52 KCAL/MOL
REMARK 927      BINDING AFFINITY PREDICTED BY RF-SCORE:    0.00 PKD
ROOT
HETATM    1  C   UNL     1     -11.992  12.134  70.251  1.00  0.00    -0.389 C  
HETATM    2  C   UNL     1     -12.492  13.497  69.785  1.00  0.00    -0.155 C  
HETATM    3  C   UNL     1     -12.618  14.470  70.960  1.00  0.00    -0.340 C  
HETATM    4  C   UNL     1     -11.648  14.018  68.629  1.00  0.00    -0.360 A  
HETATM    5  O   UNL     1     -13.010  15.718  70.595  1.00  0.00    -0.479 OA 
HETATM    6  O   UNL     1     -12.442  14.179  72.135  1.00  0.00    -0.278 OA 
HETATM    7  C   UNL     1     -10.505  14.802  68.846  1.00  0.00    -0.249 A  
HETATM    8  C   UNL     1      -9.862  15.436  67.776  1.00  0.00    -0.220 A  
HETATM    9  C   UNL     1     -12.022  13.735  67.307  1.00  0.00    -0.436 A  
HETATM   10  C   UNL     1     -10.236  15.130  66.468  1.00  0.00    -0.283 A  
HETATM   11  C   UNL     1     -11.303  14.264  66.234  1.00  0.00    -0.347 A  
ENDROOT
BRANCH   8  12
HETATM   12  O   UNL     1      -8.849  16.362  67.915  1.00  0.00    -0.182 OA 
BRANCH  12  13
HETATM   13  C   UNL     1      -9.068  17.669  67.535  1.00  0.00    -0.239 A  
HETATM   14  C   UNL     1     -10.059  18.356  68.237  1.00  0.00    -0.410 A  
HETATM   15  C   UNL     1     -10.419  19.649  67.855  1.00  0.00    -0.556 A  
HETATM   16  C   UNL     1      -9.789  20.257  66.767  1.00  0.00    -0.586 A  
HETATM   17  C   UNL     1      -8.751  19.602  66.111  1.00  0.00    -0.361 A  
HETATM   18  C   UNL     1      -8.360  18.330  66.525  1.00  0.00    -0.287 A  
ENDBRANCH  12  13
ENDBRANCH   8  12
TORSDOF 2
ENDMDL
MODEL       24
REMARK 921   NORMALIZED FREE ENERGY PREDICTED BY IDOCK:   -5.59 KCAL/MOL
REMARK 922        TOTAL FREE ENERGY PREDICTED BY IDOCK:   -6.66 KCAL/MOL
REMARK 923 INTER-LIGAND FREE ENERGY PREDICTED BY IDOCK:   -6.15 KCAL/MOL
REMARK 924 INTRA-LIGAND FREE ENERGY PREDICTED BY IDOCK:   -0.52 KCAL/MOL
REMARK 927      BINDING AFFINITY PREDICTED BY RF-SCORE:    0.00 PKD
ROOT
HETATM    1  C   UNL     1      -9.347  11.379  63.235  1.00  0.00    -0.267 C  
HETATM    2  C   UNL     1     -10.320  10.832  64.275  1.00  0.00    -0.401 C  
HETATM    3  C   UNL     1      -9.661   9.746  65.130  1.00  0.00    -0.287 C  
HETATM    4  C   UNL     1     -10.948  11.964  65.077  1.00  0.00    -0.365 A  
HETATM    5  O   UNL     1     -10.467   9.260  66.108  1.00  0.00    -0.150 OA 
HETATM    6  O   UNL     1      -8.538   9.295  64.949  1.00  0.00    -0.160 OA 
HETATM    7  C   UNL     1     -10.362  12.444  66.258  1.00  0.00    -0.267 A  
HETATM    8  C   UNL     1     -11.054  13.339  67.084  1.00  0.00    -0.286 A  
HETATM    9  C   UNL     1     -12.156  12.537  64.650  1.00  0.00    -0.496 A  
HETATM   10  C   UNL     1     -12.244  13.911  66.636  1.00  0.00    -0.465 A  
HETATM   11  C   UNL     1     -12.784  13.524  65.411  1.00  0.00    -0.495 A  
ENDROOT
BRANCH   8  12
HETATM   12  O   UNL     1     -10.634  13.720  68.341  1.00  0.00    -0.240 OA 
BRANCH  12  13
HETATM   13  C   UNL     1     -11.382  13.365  69.443  1.00  0.00    -0.226 A  
HETATM   14  C   UNL     1     -11.555  11.997  69.653  1.00  0.00    -0.371 A  
HETATM   15  C   UNL     1     -12.381  11.546  70.685  1.00  0.00    -0.457 A  
HETATM   16  C   UNL     1     -13.038  12.464  71.506  1.00  0.00    -0.362 A  
HETATM   17  C   UNL     1     -12.810  13.828  71.343  1.00  0.00    -0.449 A  
HETATM   18  C   UNL     1     -11.947  14.275  70.344  1.00  0.00    -0.402 A  
ENDBRANCH  12  13
ENDBRANCH   8  12
TORSDOF 2
ENDMDL
MODEL       25
REMARK 921   NORMALIZED FREE ENERGY PREDICTED BY IDOCK:   -5.58 KCAL/MOL
REMARK 922        TOTAL FREE ENERGY PREDICTED BY IDOCK:   -6.66 KCAL/MOL
REMARK 923 INTER-LIGAND FREE ENERGY PREDICTED BY IDOCK:   -6.33 KCAL/MOL
REMARK 924 INTRA-LIGAND FREE ENERGY PREDICTED BY IDOCK:   -0.34 KCAL/MOL
REMARK 927      BINDING AFFINITY PREDICTED BY RF-SCORE:    0.00 PKD
ROOT
HETATM    1  C   UNL     1     -10.629  17.979  65.835  1.00  0.00    -0.225 C  
HETATM    2  C   UNL     1      -9.817  16.689  65.839  1.00  0.00    -0.301 C  
HETATM    3  C   UNL     1      -8.472  16.886  66.543  1.00  0.00    -0.271 C  
HETATM    4  C   UNL     1     -10.642  15.530  66.382  1.00  0.00    -0.312 A  
HETATM    5  O   UNL     1      -7.727  15.754  66.623  1.00  0.00    -0.217 OA 
HETATM    6  O   UNL     1      -8.048  17.955  66.962  1.00  0.00    -0.210 OA 
HETATM    7  C   UNL     1     -10.662  15.216  67.749  1.00  0.00    -0.279 A  
HETATM    8  C   UNL     1     -11.261  14.033  68.199  1.00  0.00    -0.275 A  
HETATM    9  C   UNL     1     -11.390  14.732  65.502  1.00  0.00    -0.343 A  
HETATM   10  C   UNL     1     -12.014  13.261  67.315  1.00  0.00    -0.393 A  
HETATM   11  C   UNL     1     -12.095  13.622  65.972  1.00  0.00    -0.480 A  
ENDROOT
BRANCH   8  12
HETATM   12  O   UNL     1     -11.171  13.559  69.491  1.00  0.00    -0.222 OA 
BRANCH  12  13
HETATM   13  C   UNL     1     -12.210  13.782  70.370  1.00  0.00    -0.363 A  
HETATM   14  C   UNL     1     -12.724  15.079  70.396  1.00  0.00    -0.371 A  
HETATM   15  C   UNL     1     -13.707  15.424  71.326  1.00  0.00    -0.558 A  
HETATM   16  C   UNL     1     -14.176  14.472  72.232  1.00  0.00    -0.563 A  
HETATM   17  C   UNL     1     -13.717  13.159  72.161  1.00  0.00    -0.588 A  
HETATM   18  C   UNL     1     -12.770  12.805  71.200  1.00  0.00    -0.355 A  
ENDBRANCH  12  13
ENDBRANCH   8  12
TORSDOF 2
ENDMDL
MODEL       26
REMARK 921   NORMALIZED FREE ENERGY PREDICTED BY IDOCK:   -5.58 KCAL/MOL
REMARK 922        TOTAL FREE ENERGY PREDICTED BY IDOCK:   -6.66 KCAL/MOL
REMARK 923 INTER-LIGAND FREE ENERGY PREDICTED BY IDOCK:   -6.41 KCAL/MOL
REMARK 924 INTRA-LIGAND FREE ENERGY PREDICTED BY IDOCK:   -0.25 KCAL/MOL
REMARK 927      BINDING AFFINITY PREDICTED BY RF-SCORE:    0.00 PKD
ROOT
HETATM    1  C   UNL     1     -10.334   9.410  66.938  1.00  0.00    -0.308 C  
HETATM    2  C   UNL     1      -9.682  10.154  68.098  1.00  0.00    -0.155 C  
HETATM    3  C   UNL     1      -8.596  11.111  67.599  1.00  0.00    -0.126 C  
HETATM    4  C   UNL     1     -10.736  10.811  68.981  1.00  0.00    -0.265 A  
HETATM    5  O   UNL     1      -8.017  11.840  68.587  1.00  0.00    -0.147 OA 
HETATM    6  O   UNL     1      -8.219  11.202  66.439  1.00  0.00    -0.162 OA 
HETATM    7  C   UNL     1     -11.191  12.115  68.739  1.00  0.00    -0.314 A  
HETATM    8  C   UNL     1     -12.003  12.771  69.673  1.00  0.00    -0.288 A  
HETATM    9  C   UNL     1     -11.258  10.114  70.081  1.00  0.00    -0.377 A  
HETATM   10  C   UNL     1     -12.527  12.059  70.751  1.00  0.00    -0.372 A  
HETATM   11  C   UNL     1     -12.170  10.725  70.943  1.00  0.00    -0.487 A  
ENDROOT
BRANCH   8  12
HETATM   12  O   UNL     1     -12.347  14.105  69.604  1.00  0.00    -0.326 OA 
BRANCH  12  13
HETATM   13  C   UNL     1     -12.670  14.783  70.760  1.00  0.00    -0.362 A  
HETATM   14  C   UNL     1     -11.596  15.262  71.512  1.00  0.00    -0.456 A  
HETATM   15  C   UNL     1     -11.824  15.871  72.748  1.00  0.00    -0.583 A  
HETATM   16  C   UNL     1     -13.125  15.999  73.234  1.00  0.00    -0.658 A  
HETATM   17  C   UNL     1     -14.202  15.588  72.454  1.00  0.00    -0.571 A  
HETATM   18  C   UNL     1     -13.976  15.024  71.199  1.00  0.00    -0.451 A  
ENDBRANCH  12  13
ENDBRANCH   8  12
TORSDOF 2
ENDMDL
MODEL       27
REMARK 921   NORMALIZED FREE ENERGY PREDICTED BY IDOCK:   -5.57 KCAL/MOL
REMARK 922        TOTAL FREE ENERGY PREDICTED BY IDOCK:   -6.64 KCAL/MOL
REMARK 923 INTER-LIGAND FREE ENERGY PREDICTED BY IDOCK:   -6.26 KCAL/MOL
REMARK 924 INTRA-LIGAND FREE ENERGY PREDICTED BY IDOCK:   -0.39 KCAL/MOL
REMARK 927      BINDING AFFINITY PREDICTED BY RF-SCORE:    0.00 PKD
ROOT
HETATM    1  C   UNL     1     -11.727   7.060  70.729  1.00  0.00    -0.394 C  
HETATM    2  C   UNL     1     -10.992   8.180  71.456  1.00  0.00    -0.294 C  
HETATM    3  C   UNL     1      -9.475   8.019  71.327  1.00  0.00    -0.157 C  
HETATM    4  C   UNL     1     -11.515   9.543  71.021  1.00  0.00    -0.420 A  
HETATM    5  O   UNL     1      -8.769   9.021  71.912  1.00  0.00    -0.363 OA 
HETATM    6  O   UNL     1      -8.912   7.068  70.802  1.00  0.00    -0.149 OA 
HETATM    7  C   UNL     1     -10.958  10.234  69.935  1.00  0.00    -0.358 A  
HETATM    8  C   UNL     1     -11.314  11.564  69.677  1.00  0.00    -0.256 A  
HETATM    9  C   UNL     1     -12.566  10.147  71.728  1.00  0.00    -0.500 A  
HETATM   10  C   UNL     1     -12.371  12.142  70.379  1.00  0.00    -0.315 A  
HETATM   11  C   UNL     1     -13.010  11.426  71.389  1.00  0.00    -0.468 A  
ENDROOT
BRANCH   8  12
HETATM   12  O   UNL     1     -10.689  12.371  68.750  1.00  0.00    -0.230 OA 
BRANCH  12  13
HETATM   13  C   UNL     1     -11.301  12.612  67.538  1.00  0.00    -0.308 A  
HETATM   14  C   UNL     1     -11.036  11.692  66.523  1.00  0.00    -0.357 A  
HETATM   15  C   UNL     1     -11.530  11.910  65.235  1.00  0.00    -0.313 A  
HETATM   16  C   UNL     1     -12.287  13.049  64.961  1.00  0.00    -0.526 A  
HETATM   17  C   UNL     1     -12.613  13.931  65.988  1.00  0.00    -0.467 A  
HETATM   18  C   UNL     1     -12.160  13.687  67.283  1.00  0.00    -0.385 A  
ENDBRANCH  12  13
ENDBRANCH   8  12
TORSDOF 2
ENDMDL
MODEL       28
REMARK 921   NORMALIZED FREE ENERGY PREDICTED BY IDOCK:   -5.54 KCAL/MOL
REMARK 922        TOTAL FREE ENERGY PREDICTED BY IDOCK:   -6.61 KCAL/MOL
REMARK 923 INTER-LIGAND FREE ENERGY PREDICTED BY IDOCK:   -6.15 KCAL/MOL
REMARK 924 INTRA-LIGAND FREE ENERGY PREDICTED BY IDOCK:   -0.46 KCAL/MOL
REMARK 927      BINDING AFFINITY PREDICTED BY RF-SCORE:    0.00 PKD
ROOT
HETATM    1  C   UNL     1      -6.386  19.955  69.942  1.00  0.00    -0.395 C  
HETATM    2  C   UNL     1      -6.574  19.274  68.590  1.00  0.00    -0.302 C  
HETATM    3  C   UNL     1      -5.921  17.889  68.575  1.00  0.00    -0.183 C  
HETATM    4  C   UNL     1      -8.040  19.279  68.179  1.00  0.00    -0.349 A  
HETATM    5  O   UNL     1      -6.102  17.215  67.411  1.00  0.00    -0.127 OA 
HETATM    6  O   UNL     1      -5.249  17.420  69.483  1.00  0.00    -0.159 OA 
HETATM    7  C   UNL     1      -8.908  18.235  68.533  1.00  0.00    -0.322 A  
HETATM    8  C   UNL     1     -10.192  18.157  67.979  1.00  0.00    -0.380 A  
HETATM    9  C   UNL     1      -8.546  20.336  67.408  1.00  0.00    -0.420 A  
HETATM   10  C   UNL     1     -10.684  19.224  67.229  1.00  0.00    -0.594 A  
HETATM   11  C   UNL     1      -9.869  20.322  66.961  1.00  0.00    -0.607 A  
ENDROOT
BRANCH   8  12
HETATM   12  O   UNL     1     -11.039  17.080  68.128  1.00  0.00    -0.334 OA 
BRANCH  12  13
HETATM   13  C   UNL     1     -10.851  15.956  67.352  1.00  0.00    -0.291 A  
HETATM   14  C   UNL     1     -11.172  14.736  67.949  1.00  0.00    -0.318 A  
HETATM   15  C   UNL     1     -10.918  13.539  67.276  1.00  0.00    -0.293 A  
HETATM   16  C   UNL     1     -10.342  13.561  66.006  1.00  0.00    -0.303 A  
HETATM   17  C   UNL     1     -10.088  14.778  65.379  1.00  0.00    -0.406 A  
HETATM   18  C   UNL     1     -10.386  15.973  66.033  1.00  0.00    -0.366 A  
ENDBRANCH  12  13
ENDBRANCH   8  12
TORSDOF 2
ENDMDL
MODEL       29
REMARK 921   NORMALIZED FREE ENERGY PREDICTED BY IDOCK:   -5.50 KCAL/MOL
REMARK 922        TOTAL FREE ENERGY PREDICTED BY IDOCK:   -6.57 KCAL/MOL
REMARK 923 INTER-LIGAND FREE ENERGY PREDICTED BY IDOCK:   -6.58 KCAL/MOL
REMARK 924 INTRA-LIGAND FREE ENERGY PREDICTED BY IDOCK:    0.02 KCAL/MOL
REMARK 927      BINDING AFFINITY PREDICTED BY RF-SCORE:    0.00 PKD
ROOT
HETATM    1  C   UNL     1     -10.246   9.200  71.829  1.00  0.00    -0.305 C  
HETATM    2  C   UNL     1     -11.500   9.307  70.968  1.00  0.00    -0.387 C  
HETATM    3  C   UNL     1     -12.759   9.401  71.835  1.00  0.00    -0.401 C  
HETATM    4  C   UNL     1     -11.361  10.426  69.944  1.00  0.00    -0.370 A  
HETATM    5  O   UNL     1     -13.903   9.550  71.119  1.00  0.00    -0.266 OA 
HETATM    6  O   UNL     1     -12.781   9.302  73.054  1.00  0.00    -0.063 OA 
HETATM    7  C   UNL     1     -11.761  11.740  70.231  1.00  0.00    -0.317 A  
HETATM    8  C   UNL     1     -11.813  12.705  69.217  1.00  0.00    -0.302 A  
HETATM    9  C   UNL     1     -10.842  10.148  68.671  1.00  0.00    -0.272 A  
HETATM   10  C   UNL     1     -11.278  12.417  67.962  1.00  0.00    -0.317 A  
HETATM   11  C   UNL     1     -10.775  11.145  67.696  1.00  0.00    -0.273 A  
ENDROOT
BRANCH   8  12
HETATM   12  O   UNL     1     -12.360  13.962  69.368  1.00  0.00    -0.329 OA 
BRANCH  12  13
HETATM   13  C   UNL     1     -12.470  14.508  70.629  1.00  0.00    -0.343 A  
HETATM   14  C   UNL     1     -11.861  15.749  70.817  1.00  0.00    -0.438 A  
HETATM   15  C   UNL     1     -11.833  16.331  72.086  1.00  0.00    -0.585 A  
HETATM   16  C   UNL     1     -12.412  15.669  73.170  1.00  0.00    -0.588 A  
HETATM   17  C   UNL     1     -13.082  14.465  72.972  1.00  0.00    -0.581 A  
HETATM   18  C   UNL     1     -13.151  13.910  71.695  1.00  0.00    -0.446 A  
ENDBRANCH  12  13
ENDBRANCH   8  12
TORSDOF 2
ENDMDL
MODEL       30
REMARK 921   NORMALIZED FREE ENERGY PREDICTED BY IDOCK:   -5.49 KCAL/MOL
REMARK 922        TOTAL FREE ENERGY PREDICTED BY IDOCK:   -6.56 KCAL/MOL
REMARK 923 INTER-LIGAND FREE ENERGY PREDICTED BY IDOCK:   -6.16 KCAL/MOL
REMARK 924 INTRA-LIGAND FREE ENERGY PREDICTED BY IDOCK:   -0.40 KCAL/MOL
REMARK 927      BINDING AFFINITY PREDICTED BY RF-SCORE:    0.00 PKD
ROOT
HETATM    1  C   UNL     1     -12.035  12.558  65.843  1.00  0.00    -0.472 C  
HETATM    2  C   UNL     1     -10.976  13.610  65.529  1.00  0.00    -0.297 C  
HETATM    3  C   UNL     1     -11.536  14.698  64.609  1.00  0.00    -0.402 C  
HETATM    4  C   UNL     1     -10.341  14.138  66.808  1.00  0.00    -0.274 A  
HETATM    5  O   UNL     1     -10.650  15.691  64.337  1.00  0.00    -0.246 OA 
HETATM    6  O   UNL     1     -12.650  14.686  64.103  1.00  0.00    -0.766 OA 
HETATM    7  C   UNL     1     -10.866  15.247  67.488  1.00  0.00    -0.304 A  
HETATM    8  C   UNL     1     -10.157  15.838  68.541  1.00  0.00    -0.215 A  
HETATM    9  C   UNL     1      -9.186  13.526  67.319  1.00  0.00    -0.233 A  
HETATM   10  C   UNL     1      -9.021  15.207  69.047  1.00  0.00    -0.219 A  
HETATM   11  C   UNL     1      -8.548  14.041  68.449  1.00  0.00    -0.174 A  
ENDROOT
BRANCH   8  12
HETATM   12  O   UNL     1     -10.508  17.028  69.144  1.00  0.00    -0.320 OA 
BRANCH  12  13
HETATM   13  C   UNL     1     -10.154  18.220  68.549  1.00  0.00    -0.398 A  
HETATM   14  C   UNL     1     -10.977  18.657  67.510  1.00  0.00    -0.238 A  
HETATM   15  C   UNL     1     -10.639  19.800  66.783  1.00  0.00    -0.586 A  
HETATM   16  C   UNL     1      -9.476  20.506  67.092  1.00  0.00    -0.544 A  
HETATM   17  C   UNL     1      -8.691  20.114  68.173  1.00  0.00    -0.152 A  
HETATM   18  C   UNL     1      -9.056  19.000  68.929  1.00  0.00    -0.321 A  
ENDBRANCH  12  13
ENDBRANCH   8  12
TORSDOF 2
ENDMDL
MODEL       31
REMARK 921   NORMALIZED FREE ENERGY PREDICTED BY IDOCK:   -5.49 KCAL/MOL
REMARK 922        TOTAL FREE ENERGY PREDICTED BY IDOCK:   -6.55 KCAL/MOL
REMARK 923 INTER-LIGAND FREE ENERGY PREDICTED BY IDOCK:   -6.11 KCAL/MOL
REMARK 924 INTRA-LIGAND FREE ENERGY PREDICTED BY IDOCK:   -0.44 KCAL/MOL
REMARK 927      BINDING AFFINITY PREDICTED BY RF-SCORE:    0.00 PKD
ROOT
HETATM    1  C   UNL     1      -7.859  16.757  66.229  1.00  0.00    -0.334 C  
HETATM    2  C   UNL     1      -7.999  15.825  67.428  1.00  0.00    -0.194 C  
HETATM    3  C   UNL     1      -7.516  16.503  68.712  1.00  0.00    -0.216 C  
HETATM    4  C   UNL     1      -9.411  15.259  67.512  1.00  0.00    -0.204 A  
HETATM    5  O   UNL     1      -7.666  15.735  69.823  1.00  0.00    -0.136 OA 
HETATM    6  O   UNL     1      -6.990  17.606  68.770  1.00  0.00    -0.226 OA 
HETATM    7  C   UNL     1     -10.424  15.911  68.230  1.00  0.00    -0.257 A  
HETATM    8  C   UNL     1     -11.652  15.279  68.464  1.00  0.00    -0.352 A  
HETATM    9  C   UNL     1      -9.716  14.044  66.880  1.00  0.00    -0.272 A  
HETATM   10  C   UNL     1     -11.944  14.080  67.815  1.00  0.00    -0.392 A  
HETATM   11  C   UNL     1     -10.983  13.474  67.007  1.00  0.00    -0.297 A  
ENDROOT
BRANCH   8  12
HETATM   12  O   UNL     1     -12.630  15.766  69.304  1.00  0.00    -0.010 OA 
BRANCH  12  13
HETATM   13  C   UNL     1     -12.576  15.475  70.651  1.00  0.00    -0.443 A  
HETATM   14  C   UNL     1     -13.308  14.362  71.068  1.00  0.00    -0.359 A  
HETATM   15  C   UNL     1     -13.394  14.051  72.427  1.00  0.00    -0.617 A  
HETATM   16  C   UNL     1     -12.750  14.853  73.369  1.00  0.00    -0.636 A  
HETATM   17  C   UNL     1     -11.961  15.921  72.950  1.00  0.00    -0.609 A  
HETATM   18  C   UNL     1     -11.837  16.201  71.590  1.00  0.00    -0.557 A  
ENDBRANCH  12  13
ENDBRANCH   8  12
TORSDOF 2
ENDMDL
MODEL       32
REMARK 921   NORMALIZED FREE ENERGY PREDICTED BY IDOCK:   -5.48 KCAL/MOL
REMARK 922        TOTAL FREE ENERGY PREDICTED BY IDOCK:   -6.55 KCAL/MOL
REMARK 923 INTER-LIGAND FREE ENERGY PREDICTED BY IDOCK:   -6.13 KCAL/MOL
REMARK 924 INTRA-LIGAND FREE ENERGY PREDICTED BY IDOCK:   -0.42 KCAL/MOL
REMARK 927      BINDING AFFINITY PREDICTED BY RF-SCORE:    0.00 PKD
ROOT
HETATM    1  C   UNL     1     -12.626  12.588  64.595  1.00  0.00    -0.507 C  
HETATM    2  C   UNL     1     -11.141  12.679  64.929  1.00  0.00    -0.331 C  
HETATM    3  C   UNL     1     -10.785  14.060  65.487  1.00  0.00    -0.313 C  
HETATM    4  C   UNL     1     -10.713  11.517  65.816  1.00  0.00    -0.325 A  
HETATM    5  O   UNL     1      -9.483  14.180  65.852  1.00  0.00    -0.219 OA 
HETATM    6  O   UNL     1     -11.557  15.006  65.565  1.00  0.00    -0.311 OA 
HETATM    7  C   UNL     1     -10.767  11.599  67.215  1.00  0.00    -0.281 A  
HETATM    8  C   UNL     1     -10.184  10.604  68.010  1.00  0.00    -0.175 A  
HETATM    9  C   UNL     1     -10.228  10.336  65.234  1.00  0.00    -0.308 A  
HETATM   10  C   UNL     1      -9.722   9.430  67.416  1.00  0.00    -0.205 A  
HETATM   11  C   UNL     1      -9.763   9.288  66.031  1.00  0.00    -0.359 A  
ENDROOT
BRANCH   8  12
HETATM   12  O   UNL     1     -10.032  10.691  69.378  1.00  0.00    -0.216 OA 
BRANCH  12  13
HETATM   13  C   UNL     1     -11.066  10.298  70.202  1.00  0.00    -0.319 A  
HETATM   14  C   UNL     1     -12.007  11.278  70.517  1.00  0.00    -0.467 A  
HETATM   15  C   UNL     1     -13.031  10.999  71.425  1.00  0.00    -0.517 A  
HETATM   16  C   UNL     1     -13.113   9.740  72.020  1.00  0.00    -0.546 A  
HETATM   17  C   UNL     1     -12.219   8.738  71.652  1.00  0.00    -0.399 A  
HETATM   18  C   UNL     1     -11.227   9.004  70.709  1.00  0.00    -0.329 A  
ENDBRANCH  12  13
ENDBRANCH   8  12
TORSDOF 2
ENDMDL
MODEL       33
REMARK 921   NORMALIZED FREE ENERGY PREDICTED BY IDOCK:   -5.48 KCAL/MOL
REMARK 922        TOTAL FREE ENERGY PREDICTED BY IDOCK:   -6.54 KCAL/MOL
REMARK 923 INTER-LIGAND FREE ENERGY PREDICTED BY IDOCK:   -6.41 KCAL/MOL
REMARK 924 INTRA-LIGAND FREE ENERGY PREDICTED BY IDOCK:   -0.13 KCAL/MOL
REMARK 927      BINDING AFFINITY PREDICTED BY RF-SCORE:    0.00 PKD
ROOT
HETATM    1  C   UNL     1      -7.643  17.165  67.483  1.00  0.00    -0.187 C  
HETATM    2  C   UNL     1      -9.059  17.598  67.847  1.00  0.00    -0.260 C  
HETATM    3  C   UNL     1      -9.608  18.601  66.828  1.00  0.00    -0.318 C  
HETATM    4  C   UNL     1      -9.954  16.388  68.078  1.00  0.00    -0.242 A  
HETATM    5  O   UNL     1     -10.887  18.982  67.075  1.00  0.00    -0.445 OA 
HETATM    6  O   UNL     1      -8.971  19.078  65.899  1.00  0.00    -0.448 OA 
HETATM    7  C   UNL     1     -10.681  15.800  67.032  1.00  0.00    -0.306 A  
HETATM    8  C   UNL     1     -11.648  14.822  67.299  1.00  0.00    -0.369 A  
HETATM    9  C   UNL     1     -10.083  15.849  69.367  1.00  0.00    -0.267 A  
HETATM   10  C   UNL     1     -11.751  14.286  68.582  1.00  0.00    -0.380 A  
HETATM   11  C   UNL     1     -10.954  14.786  69.611  1.00  0.00    -0.285 A  
ENDROOT
BRANCH   8  12
HETATM   12  O   UNL     1     -12.529  14.323  66.362  1.00  0.00    -0.441 OA 
BRANCH  12  13
HETATM   13  C   UNL     1     -12.052  13.542  65.331  1.00  0.00    -0.415 A  
HETATM   14  C   UNL     1     -13.000  12.777  64.650  1.00  0.00    -0.231 A  
HETATM   15  C   UNL     1     -12.596  11.881  63.659  1.00  0.00    -0.555 A  
HETATM   16  C   UNL     1     -11.242  11.746  63.350  1.00  0.00    -0.440 A  
HETATM   17  C   UNL     1     -10.302  12.559  63.976  1.00  0.00    -0.429 A  
HETATM   18  C   UNL     1     -10.712  13.488  64.931  1.00  0.00    -0.391 A  
ENDBRANCH  12  13
ENDBRANCH   8  12
TORSDOF 2
ENDMDL
MODEL       34
REMARK 921   NORMALIZED FREE ENERGY PREDICTED BY IDOCK:   -5.42 KCAL/MOL
REMARK 922        TOTAL FREE ENERGY PREDICTED BY IDOCK:   -6.48 KCAL/MOL
REMARK 923 INTER-LIGAND FREE ENERGY PREDICTED BY IDOCK:   -6.03 KCAL/MOL
REMARK 924 INTRA-LIGAND FREE ENERGY PREDICTED BY IDOCK:   -0.45 KCAL/MOL
REMARK 927      BINDING AFFINITY PREDICTED BY RF-SCORE:    0.00 PKD
ROOT
HETATM    1  C   UNL     1     -10.257  14.616  65.203  1.00  0.00    -0.414 C  
HETATM    2  C   UNL     1     -11.631  14.049  65.543  1.00  0.00    -0.333 C  
HETATM    3  C   UNL     1     -12.099  13.059  64.472  1.00  0.00    -0.410 C  
HETATM    4  C   UNL     1     -11.652  13.493  66.961  1.00  0.00    -0.394 A  
HETATM    5  O   UNL     1     -13.296  12.482  64.751  1.00  0.00    -0.773 OA 
HETATM    6  O   UNL     1     -11.507  12.822  63.428  1.00  0.00    -0.490 OA 
HETATM    7  C   UNL     1     -11.320  12.158  67.234  1.00  0.00    -0.398 A  
HETATM    8  C   UNL     1     -11.540  11.615  68.506  1.00  0.00    -0.317 A  
HETATM    9  C   UNL     1     -12.033  14.319  68.029  1.00  0.00    -0.353 A  
HETATM   10  C   UNL     1     -11.902  12.453  69.560  1.00  0.00    -0.368 A  
HETATM   11  C   UNL     1     -12.129  13.808  69.325  1.00  0.00    -0.374 A  
ENDROOT
BRANCH   8  12
HETATM   12  O   UNL     1     -11.413  10.277  68.813  1.00  0.00    -0.207 OA 
BRANCH  12  13
HETATM   13  C   UNL     1     -10.317   9.576  68.355  1.00  0.00    -0.206 A  
HETATM   14  C   UNL     1     -10.523   8.787  67.222  1.00  0.00    -0.353 A  
HETATM   15  C   UNL     1      -9.499   7.964  66.747  1.00  0.00    -0.257 A  
HETATM   16  C   UNL     1      -8.270   7.929  67.406  1.00  0.00    -0.123 A  
HETATM   17  C   UNL     1      -8.039   8.768  68.493  1.00  0.00    -0.116 A  
HETATM   18  C   UNL     1      -9.046   9.624  68.936  1.00  0.00    -0.144 A  
ENDBRANCH  12  13
ENDBRANCH   8  12
TORSDOF 2
ENDMDL
MODEL       35
REMARK 921   NORMALIZED FREE ENERGY PREDICTED BY IDOCK:   -5.41 KCAL/MOL
REMARK 922        TOTAL FREE ENERGY PREDICTED BY IDOCK:   -6.46 KCAL/MOL
REMARK 923 INTER-LIGAND FREE ENERGY PREDICTED BY IDOCK:   -6.13 KCAL/MOL
REMARK 924 INTRA-LIGAND FREE ENERGY PREDICTED BY IDOCK:   -0.33 KCAL/MOL
REMARK 927      BINDING AFFINITY PREDICTED BY RF-SCORE:    0.00 PKD
ROOT
HETATM    1  C   UNL     1     -11.549   6.650  71.133  1.00  0.00    -0.384 C  
HETATM    2  C   UNL     1     -10.956   7.834  71.889  1.00  0.00    -0.294 C  
HETATM    3  C   UNL     1      -9.432   7.718  71.987  1.00  0.00    -0.163 C  
HETATM    4  C   UNL     1     -11.447   9.152  71.305  1.00  0.00    -0.405 A  
HETATM    5  O   UNL     1      -8.845   8.774  72.607  1.00  0.00    -0.394 OA 
HETATM    6  O   UNL     1      -8.775   6.760  71.604  1.00  0.00    -0.126 OA 
HETATM    7  C   UNL     1     -10.757   9.801  70.270  1.00  0.00    -0.358 A  
HETATM    8  C   UNL     1     -11.108  11.102  69.887  1.00  0.00    -0.162 A  
HETATM    9  C   UNL     1     -12.604   9.756  71.819  1.00  0.00    -0.506 A  
HETATM   10  C   UNL     1     -12.270  11.681  70.396  1.00  0.00    -0.434 A  
HETATM   11  C   UNL     1     -13.028  10.999  71.346  1.00  0.00    -0.517 A  
ENDROOT
BRANCH   8  12
HETATM   12  O   UNL     1     -10.377  11.878  69.012  1.00  0.00    -0.150 OA 
BRANCH  12  13
HETATM   13  C   UNL     1     -11.001  12.434  67.915  1.00  0.00    -0.228 A  
HETATM   14  C   UNL     1     -11.311  13.792  68.007  1.00  0.00    -0.318 A  
HETATM   15  C   UNL     1     -12.033  14.416  66.988  1.00  0.00    -0.424 A  
HETATM   16  C   UNL     1     -12.448  13.682  65.876  1.00  0.00    -0.502 A  
HETATM   17  C   UNL     1     -12.079  12.346  65.748  1.00  0.00    -0.381 A  
HETATM   18  C   UNL     1     -11.317  11.737  66.744  1.00  0.00    -0.385 A  
ENDBRANCH  12  13
ENDBRANCH   8  12
TORSDOF 2
ENDMDL
MODEL       36
REMARK 921   NORMALIZED FREE ENERGY PREDICTED BY IDOCK:   -5.38 KCAL/MOL
REMARK 922        TOTAL FREE ENERGY PREDICTED BY IDOCK:   -6.43 KCAL/MOL
REMARK 923 INTER-LIGAND FREE ENERGY PREDICTED BY IDOCK:   -6.39 KCAL/MOL
REMARK 924 INTRA-LIGAND FREE ENERGY PREDICTED BY IDOCK:   -0.04 KCAL/MOL
REMARK 927      BINDING AFFINITY PREDICTED BY RF-SCORE:    0.00 PKD
ROOT
HETATM    1  C   UNL     1     -14.265  15.590  71.047  1.00  0.00    -0.027 C  
HETATM    2  C   UNL     1     -12.943  15.046  71.579  1.00  0.00    -0.434 C  
HETATM    3  C   UNL     1     -12.831  15.252  73.092  1.00  0.00    -0.494 C  
HETATM    4  C   UNL     1     -12.727  13.609  71.125  1.00  0.00    -0.432 A  
HETATM    5  O   UNL     1     -11.694  14.738  73.628  1.00  0.00    -0.169 OA 
HETATM    6  O   UNL     1     -13.639  15.860  73.780  1.00  0.00    -0.342 OA 
HETATM    7  C   UNL     1     -13.181  12.520  71.884  1.00  0.00    -0.495 A  
HETATM    8  C   UNL     1     -12.799  11.213  71.556  1.00  0.00    -0.437 A  
HETATM    9  C   UNL     1     -12.038  13.349  69.931  1.00  0.00    -0.389 A  
HETATM   10  C   UNL     1     -12.128  10.972  70.357  1.00  0.00    -0.463 A  
HETATM   11  C   UNL     1     -11.766  12.038  69.535  1.00  0.00    -0.408 A  
ENDROOT
BRANCH   8  12
HETATM   12  O   UNL     1     -13.048  10.109  72.343  1.00  0.00    -0.329 OA 
BRANCH  12  13
HETATM   13  C   UNL     1     -12.429   8.912  72.049  1.00  0.00    -0.392 A  
HETATM   14  C   UNL     1     -13.263   7.877  71.626  1.00  0.00    -0.367 A  
HETATM   15  C   UNL     1     -12.738   6.602  71.404  1.00  0.00    -0.211 A  
HETATM   16  C   UNL     1     -11.379   6.361  71.608  1.00  0.00    -0.339 A  
HETATM   17  C   UNL     1     -10.533   7.408  71.961  1.00  0.00    -0.230 A  
HETATM   18  C   UNL     1     -11.050   8.691  72.135  1.00  0.00    -0.434 A  
ENDBRANCH  12  13
ENDBRANCH   8  12
TORSDOF 2
ENDMDL
MODEL       37
REMARK 921   NORMALIZED FREE ENERGY PREDICTED BY IDOCK:   -5.37 KCAL/MOL
REMARK 922        TOTAL FREE ENERGY PREDICTED BY IDOCK:   -6.43 KCAL/MOL
REMARK 923 INTER-LIGAND FREE ENERGY PREDICTED BY IDOCK:   -5.95 KCAL/MOL
REMARK 924 INTRA-LIGAND FREE ENERGY PREDICTED BY IDOCK:   -0.48 KCAL/MOL
REMARK 927      BINDING AFFINITY PREDICTED BY RF-SCORE:    0.00 PKD
ROOT
HETATM    1  C   UNL     1      -8.876  11.043  62.462  1.00  0.00    -0.358 C  
HETATM    2  C   UNL     1      -9.765  10.476  63.564  1.00  0.00    -0.374 C  
HETATM    3  C   UNL     1      -8.947   9.664  64.570  1.00  0.00    -0.235 C  
HETATM    4  C   UNL     1     -10.617  11.573  64.191  1.00  0.00    -0.420 A  
HETATM    5  O   UNL     1      -9.681   9.178  65.604  1.00  0.00    -0.270 OA 
HETATM    6  O   UNL     1      -7.755   9.408  64.463  1.00  0.00    -0.110 OA 
HETATM    7  C   UNL     1     -10.167  12.315  65.293  1.00  0.00    -0.305 A  
HETATM    8  C   UNL     1     -11.038  13.173  65.977  1.00  0.00    -0.280 A  
HETATM    9  C   UNL     1     -11.894  11.845  63.678  1.00  0.00    -0.573 A  
HETATM   10  C   UNL     1     -12.297  13.444  65.444  1.00  0.00    -0.522 A  
HETATM   11  C   UNL     1     -12.717  12.796  64.284  1.00  0.00    -0.338 A  
ENDROOT
BRANCH   8  12
HETATM   12  O   UNL     1     -10.736  13.799  67.168  1.00  0.00    -0.278 OA 
BRANCH  12  13
HETATM   13  C   UNL     1     -10.355  15.124  67.161  1.00  0.00    -0.263 A  
HETATM   14  C   UNL     1     -11.028  15.962  68.051  1.00  0.00    -0.336 A  
HETATM   15  C   UNL     1     -10.779  17.336  68.042  1.00  0.00    -0.367 A  
HETATM   16  C   UNL     1      -9.860  17.874  67.141  1.00  0.00    -0.308 A  
HETATM   17  C   UNL     1      -9.135  17.032  66.302  1.00  0.00    -0.279 A  
HETATM   18  C   UNL     1      -9.349  15.655  66.346  1.00  0.00    -0.332 A  
ENDBRANCH  12  13
ENDBRANCH   8  12
TORSDOF 2
ENDMDL
MODEL       38
REMARK 921   NORMALIZED FREE ENERGY PREDICTED BY IDOCK:   -5.34 KCAL/MOL
REMARK 922        TOTAL FREE ENERGY PREDICTED BY IDOCK:   -6.39 KCAL/MOL
REMARK 923 INTER-LIGAND FREE ENERGY PREDICTED BY IDOCK:   -6.28 KCAL/MOL
REMARK 924 INTRA-LIGAND FREE ENERGY PREDICTED BY IDOCK:   -0.11 KCAL/MOL
REMARK 927      BINDING AFFINITY PREDICTED BY RF-SCORE:    0.00 PKD
ROOT
HETATM    1  C   UNL     1     -10.271  11.197  64.454  1.00  0.00    -0.390 C  
HETATM    2  C   UNL     1     -11.215  11.964  65.374  1.00  0.00    -0.351 C  
HETATM    3  C   UNL     1     -11.137  11.436  66.809  1.00  0.00    -0.281 C  
HETATM    4  C   UNL     1     -10.995  13.466  65.247  1.00  0.00    -0.306 A  
HETATM    5  O   UNL     1     -11.920  12.118  67.684  1.00  0.00    -0.529 OA 
HETATM    6  O   UNL     1     -10.485  10.464  67.165  1.00  0.00    -0.228 OA 
HETATM    7  C   UNL     1     -10.073  14.146  66.056  1.00  0.00    -0.330 A  
HETATM    8  C   UNL     1     -10.030  15.546  66.065  1.00  0.00    -0.330 A  
HETATM    9  C   UNL     1     -11.742  14.206  64.318  1.00  0.00    -0.365 A  
HETATM   10  C   UNL     1     -10.767  16.264  65.124  1.00  0.00    -0.350 A  
HETATM   11  C   UNL     1     -11.606  15.592  64.238  1.00  0.00    -0.191 A  
ENDROOT
BRANCH   8  12
HETATM   12  O   UNL     1      -9.287  16.295  66.953  1.00  0.00    -0.211 OA 
BRANCH  12  13
HETATM   13  C   UNL     1      -9.521  17.650  67.060  1.00  0.00    -0.266 A  
HETATM   14  C   UNL     1      -8.657  18.480  66.345  1.00  0.00    -0.272 A  
HETATM   15  C   UNL     1      -8.754  19.867  66.474  1.00  0.00    -0.406 A  
HETATM   16  C   UNL     1      -9.714  20.425  67.319  1.00  0.00    -0.602 A  
HETATM   17  C   UNL     1     -10.623  19.602  67.976  1.00  0.00    -0.458 A  
HETATM   18  C   UNL     1     -10.556  18.219  67.809  1.00  0.00    -0.415 A  
ENDBRANCH  12  13
ENDBRANCH   8  12
TORSDOF 2
ENDMDL
MODEL       39
REMARK 921   NORMALIZED FREE ENERGY PREDICTED BY IDOCK:   -5.33 KCAL/MOL
REMARK 922        TOTAL FREE ENERGY PREDICTED BY IDOCK:   -6.38 KCAL/MOL
REMARK 923 INTER-LIGAND FREE ENERGY PREDICTED BY IDOCK:   -5.89 KCAL/MOL
REMARK 924 INTRA-LIGAND FREE ENERGY PREDICTED BY IDOCK:   -0.49 KCAL/MOL
REMARK 927      BINDING AFFINITY PREDICTED BY RF-SCORE:    0.00 PKD
ROOT
HETATM    1  C   UNL     1     -11.069  11.299  67.749  1.00  0.00    -0.328 C  
HETATM    2  C   UNL     1     -10.458  12.368  66.851  1.00  0.00    -0.243 C  
HETATM    3  C   UNL     1     -11.504  12.952  65.897  1.00  0.00    -0.346 C  
HETATM    4  C   UNL     1      -9.714  13.410  67.676  1.00  0.00    -0.222 A  
HETATM    5  O   UNL     1     -11.026  13.948  65.108  1.00  0.00    -0.319 OA 
HETATM    6  O   UNL     1     -12.656  12.553  65.789  1.00  0.00    -0.569 OA 
HETATM    7  C   UNL     1     -10.356  14.557  68.166  1.00  0.00    -0.232 A  
HETATM    8  C   UNL     1      -9.615  15.595  68.745  1.00  0.00    -0.215 A  
HETATM    9  C   UNL     1      -8.347  13.243  67.944  1.00  0.00    -0.163 A  
HETATM   10  C   UNL     1      -8.261  15.406  69.019  1.00  0.00    -0.217 A  
HETATM   11  C   UNL     1      -7.632  14.222  68.636  1.00  0.00    -0.126 A  
ENDROOT
BRANCH   8  12
HETATM   12  O   UNL     1     -10.136  16.825  69.087  1.00  0.00    -0.274 OA 
BRANCH  12  13
HETATM   13  C   UNL     1     -10.009  17.883  68.211  1.00  0.00    -0.360 A  
HETATM   14  C   UNL     1      -9.291  18.984  68.678  1.00  0.00    -0.428 A  
HETATM   15  C   UNL     1      -9.198  20.140  67.900  1.00  0.00    -0.380 A  
HETATM   16  C   UNL     1      -9.826  20.196  66.655  1.00  0.00    -0.588 A  
HETATM   17  C   UNL     1     -10.482  19.074  66.157  1.00  0.00    -0.541 A  
HETATM   18  C   UNL     1     -10.533  17.905  66.914  1.00  0.00    -0.334 A  
ENDBRANCH  12  13
ENDBRANCH   8  12
TORSDOF 2
ENDMDL
MODEL       40
REMARK 921   NORMALIZED FREE ENERGY PREDICTED BY IDOCK:   -5.31 KCAL/MOL
REMARK 922        TOTAL FREE ENERGY PREDICTED BY IDOCK:   -6.35 KCAL/MOL
REMARK 923 INTER-LIGAND FREE ENERGY PREDICTED BY IDOCK:   -5.88 KCAL/MOL
REMARK 924 INTRA-LIGAND FREE ENERGY PREDICTED BY IDOCK:   -0.47 KCAL/MOL
REMARK 927      BINDING AFFINITY PREDICTED BY RF-SCORE:    0.00 PKD
ROOT
HETATM    1  C   UNL     1     -10.392  11.357  68.515  1.00  0.00    -0.219 C  
HETATM    2  C   UNL     1      -9.953  12.409  67.503  1.00  0.00    -0.196 C  
HETATM    3  C   UNL     1     -11.064  12.697  66.490  1.00  0.00    -0.280 C  
HETATM    4  C   UNL     1      -9.412  13.647  68.207  1.00  0.00    -0.213 A  
HETATM    5  O   UNL     1     -10.746  13.667  65.594  1.00  0.00    -0.274 OA 
HETATM    6  O   UNL     1     -12.129  12.098  66.426  1.00  0.00    -0.630 OA 
HETATM    7  C   UNL     1     -10.249  14.715  68.565  1.00  0.00    -0.240 A  
HETATM    8  C   UNL     1      -9.706  15.921  69.025  1.00  0.00    -0.243 A  
HETATM    9  C   UNL     1      -8.042  13.746  68.493  1.00  0.00    -0.128 A  
HETATM   10  C   UNL     1      -8.345  15.997  69.319  1.00  0.00    -0.217 A  
HETATM   11  C   UNL     1      -7.518  14.903  69.072  1.00  0.00    -0.144 A  
ENDROOT
BRANCH   8  12
HETATM   12  O   UNL     1     -10.434  17.075  69.227  1.00  0.00    -0.323 OA 
BRANCH  12  13
HETATM   13  C   UNL     1     -10.348  18.101  68.310  1.00  0.00    -0.363 A  
HETATM   14  C   UNL     1     -10.643  17.769  66.987  1.00  0.00    -0.266 A  
HETATM   15  C   UNL     1     -10.483  18.718  65.976  1.00  0.00    -0.483 A  
HETATM   16  C   UNL     1     -10.026  20.000  66.286  1.00  0.00    -0.597 A  
HETATM   17  C   UNL     1      -9.800  20.355  67.613  1.00  0.00    -0.538 A  
HETATM   18  C   UNL     1     -10.006  19.420  68.627  1.00  0.00    -0.527 A  
ENDBRANCH  12  13
ENDBRANCH   8  12
TORSDOF 2
ENDMDL
MODEL       41
REMARK 921   NORMALIZED FREE ENERGY PREDICTED BY IDOCK:   -5.23 KCAL/MOL
REMARK 922        TOTAL FREE ENERGY PREDICTED BY IDOCK:   -6.26 KCAL/MOL
REMARK 923 INTER-LIGAND FREE ENERGY PREDICTED BY IDOCK:   -5.82 KCAL/MOL
REMARK 924 INTRA-LIGAND FREE ENERGY PREDICTED BY IDOCK:   -0.45 KCAL/MOL
REMARK 927      BINDING AFFINITY PREDICTED BY RF-SCORE:    0.00 PKD
ROOT
HETATM    1  C   UNL     1      -7.755  19.707  65.845  1.00  0.00    -0.307 C  
HETATM    2  C   UNL     1      -8.169  19.096  67.179  1.00  0.00    -0.290 C  
HETATM    3  C   UNL     1      -9.383  19.822  67.765  1.00  0.00    -0.344 C  
HETATM    4  C   UNL     1      -8.343  17.588  67.054  1.00  0.00    -0.239 A  
HETATM    5  O   UNL     1      -9.829  19.286  68.930  1.00  0.00    -0.422 OA 
HETATM    6  O   UNL     1      -9.900  20.824  67.289  1.00  0.00    -0.474 OA 
HETATM    7  C   UNL     1      -9.575  17.015  66.705  1.00  0.00    -0.279 A  
HETATM    8  C   UNL     1      -9.766  15.630  66.792  1.00  0.00    -0.241 A  
HETATM    9  C   UNL     1      -7.259  16.736  67.313  1.00  0.00    -0.204 A  
HETATM   10  C   UNL     1      -8.674  14.797  67.034  1.00  0.00    -0.258 A  
HETATM   11  C   UNL     1      -7.418  15.350  67.274  1.00  0.00    -0.242 A  
ENDROOT
BRANCH   8  12
HETATM   12  O   UNL     1     -10.985  15.003  66.644  1.00  0.00    -0.318 OA 
BRANCH  12  13
HETATM   13  C   UNL     1     -11.384  14.065  67.573  1.00  0.00    -0.321 A  
HETATM   14  C   UNL     1     -11.631  14.543  68.860  1.00  0.00    -0.341 A  
HETATM   15  C   UNL     1     -11.940  13.652  69.890  1.00  0.00    -0.415 A  
HETATM   16  C   UNL     1     -12.000  12.282  69.634  1.00  0.00    -0.347 A  
HETATM   17  C   UNL     1     -11.824  11.809  68.336  1.00  0.00    -0.347 A  
HETATM   18  C   UNL     1     -11.564  12.705  67.300  1.00  0.00    -0.428 A  
ENDBRANCH  12  13
ENDBRANCH   8  12
TORSDOF 2
ENDMDL
MODEL       42
REMARK 921   NORMALIZED FREE ENERGY PREDICTED BY IDOCK:   -5.21 KCAL/MOL
REMARK 922        TOTAL FREE ENERGY PREDICTED BY IDOCK:   -6.24 KCAL/MOL
REMARK 923 INTER-LIGAND FREE ENERGY PREDICTED BY IDOCK:   -5.82 KCAL/MOL
REMARK 924 INTRA-LIGAND FREE ENERGY PREDICTED BY IDOCK:   -0.42 KCAL/MOL
REMARK 927      BINDING AFFINITY PREDICTED BY RF-SCORE:    0.00 PKD
ROOT
HETATM    1  C   UNL     1      -8.113   9.771  66.198  1.00  0.00    -0.109 C  
HETATM    2  C   UNL     1      -9.570   9.361  66.385  1.00  0.00    -0.285 C  
HETATM    3  C   UNL     1      -9.686   7.868  66.701  1.00  0.00    -0.235 C  
HETATM    4  C   UNL     1     -10.264  10.269  67.391  1.00  0.00    -0.265 A  
HETATM    5  O   UNL     1     -10.960   7.457  66.929  1.00  0.00    -0.324 OA 
HETATM    6  O   UNL     1      -8.753   7.076  66.706  1.00  0.00    -0.115 OA 
HETATM    7  C   UNL     1     -10.276   9.976  68.763  1.00  0.00    -0.201 A  
HETATM    8  C   UNL     1     -11.085  10.708  69.641  1.00  0.00    -0.284 A  
HETATM    9  C   UNL     1     -10.932  11.421  66.948  1.00  0.00    -0.355 A  
HETATM   10  C   UNL     1     -11.729  11.859  69.187  1.00  0.00    -0.380 A  
HETATM   11  C   UNL     1     -11.635  12.226  67.846  1.00  0.00    -0.416 A  
ENDROOT
BRANCH   8  12
HETATM   12  O   UNL     1     -11.296  10.377  70.963  1.00  0.00    -0.306 OA 
BRANCH  12  13
HETATM   13  C   UNL     1     -12.196   9.381  71.278  1.00  0.00    -0.345 A  
HETATM   14  C   UNL     1     -11.700   8.077  71.260  1.00  0.00    -0.311 A  
HETATM   15  C   UNL     1     -12.562   6.998  71.467  1.00  0.00    -0.426 A  
HETATM   16  C   UNL     1     -13.921   7.222  71.688  1.00  0.00    -0.488 A  
HETATM   17  C   UNL     1     -14.405   8.524  71.777  1.00  0.00    -0.522 A  
HETATM   18  C   UNL     1     -13.535   9.601  71.619  1.00  0.00    -0.455 A  
ENDBRANCH  12  13
ENDBRANCH   8  12
TORSDOF 2
ENDMDL
MODEL       43
REMARK 921   NORMALIZED FREE ENERGY PREDICTED BY IDOCK:   -5.20 KCAL/MOL
REMARK 922        TOTAL FREE ENERGY PREDICTED BY IDOCK:   -6.24 KCAL/MOL
REMARK 923 INTER-LIGAND FREE ENERGY PREDICTED BY IDOCK:   -5.84 KCAL/MOL
REMARK 924 INTRA-LIGAND FREE ENERGY PREDICTED BY IDOCK:   -0.40 KCAL/MOL
REMARK 927      BINDING AFFINITY PREDICTED BY RF-SCORE:    0.00 PKD
ROOT
HETATM    1  C   UNL     1     -10.582  10.995  64.559  1.00  0.00    -0.383 C  
HETATM    2  C   UNL     1     -10.669  11.989  65.712  1.00  0.00    -0.319 C  
HETATM    3  C   UNL     1     -12.047  12.655  65.763  1.00  0.00    -0.423 C  
HETATM    4  C   UNL     1     -10.239  11.340  67.021  1.00  0.00    -0.250 A  
HETATM    5  O   UNL     1     -12.198  13.513  66.805  1.00  0.00    -0.390 OA 
HETATM    6  O   UNL     1     -12.935  12.497  64.936  1.00  0.00    -0.821 OA 
HETATM    7  C   UNL     1     -11.158  10.688  67.856  1.00  0.00    -0.371 A  
HETATM    8  C   UNL     1     -10.784  10.277  69.142  1.00  0.00    -0.228 A  
HETATM    9  C   UNL     1      -8.897  11.407  67.427  1.00  0.00    -0.150 A  
HETATM   10  C   UNL     1      -9.444  10.336  69.523  1.00  0.00    -0.207 A  
HETATM   11  C   UNL     1      -8.498  10.882  68.657  1.00  0.00    -0.152 A  
ENDROOT
BRANCH   8  12
HETATM   12  O   UNL     1     -11.662   9.795  70.090  1.00  0.00    -0.221 OA 
BRANCH  12  13
HETATM   13  C   UNL     1     -11.399   8.591  70.709  1.00  0.00    -0.266 A  
HETATM   14  C   UNL     1     -11.438   8.596  72.104  1.00  0.00    -0.443 A  
HETATM   15  C   UNL     1     -11.086   7.448  72.817  1.00  0.00    -0.394 A  
HETATM   16  C   UNL     1     -10.692   6.296  72.137  1.00  0.00    -0.269 A  
HETATM   17  C   UNL     1     -10.720   6.266  70.745  1.00  0.00    -0.312 A  
HETATM   18  C   UNL     1     -11.119   7.397  70.034  1.00  0.00    -0.238 A  
ENDBRANCH  12  13
ENDBRANCH   8  12
TORSDOF 2
ENDMDL
MODEL       44
REMARK 921   NORMALIZED FREE ENERGY PREDICTED BY IDOCK:   -5.20 KCAL/MOL
REMARK 922        TOTAL FREE ENERGY PREDICTED BY IDOCK:   -6.23 KCAL/MOL
REMARK 923 INTER-LIGAND FREE ENERGY PREDICTED BY IDOCK:   -5.70 KCAL/MOL
REMARK 924 INTRA-LIGAND FREE ENERGY PREDICTED BY IDOCK:   -0.54 KCAL/MOL
REMARK 927      BINDING AFFINITY PREDICTED BY RF-SCORE:    0.00 PKD
ROOT
HETATM    1  C   UNL     1      -9.645  16.865  66.790  1.00  0.00    -0.273 C  
HETATM    2  C   UNL     1      -9.101  15.489  66.420  1.00  0.00    -0.351 C  
HETATM    3  C   UNL     1      -8.145  14.966  67.495  1.00  0.00    -0.182 C  
HETATM    4  C   UNL     1     -10.235  14.533  66.073  1.00  0.00    -0.329 A  
HETATM    5  O   UNL     1      -7.670  13.720  67.241  1.00  0.00    -0.157 OA 
HETATM    6  O   UNL     1      -7.777  15.599  68.476  1.00  0.00    -0.122 OA 
HETATM    7  C   UNL     1     -10.854  13.739  67.050  1.00  0.00    -0.288 A  
HETATM    8  C   UNL     1     -11.749  12.726  66.682  1.00  0.00    -0.393 A  
HETATM    9  C   UNL     1     -10.669  14.417  64.744  1.00  0.00    -0.423 A  
HETATM   10  C   UNL     1     -12.181  12.635  65.360  1.00  0.00    -0.517 A  
HETATM   11  C   UNL     1     -11.657  13.494  64.395  1.00  0.00    -0.429 A  
ENDROOT
BRANCH   8  12
HETATM   12  O   UNL     1     -12.261  11.787  67.553  1.00  0.00    -0.526 OA 
BRANCH  12  13
HETATM   13  C   UNL     1     -11.406  10.910  68.185  1.00  0.00    -0.315 A  
HETATM   14  C   UNL     1     -10.754   9.989  67.365  1.00  0.00    -0.336 A  
HETATM   15  C   UNL     1      -9.948   8.998  67.929  1.00  0.00    -0.220 A  
HETATM   16  C   UNL     1      -9.795   8.925  69.314  1.00  0.00    -0.176 A  
HETATM   17  C   UNL     1     -10.386   9.887  70.129  1.00  0.00    -0.336 A  
HETATM   18  C   UNL     1     -11.151  10.905  69.561  1.00  0.00    -0.326 A  
ENDBRANCH  12  13
ENDBRANCH   8  12
TORSDOF 2
ENDMDL
MODEL       45
REMARK 921   NORMALIZED FREE ENERGY PREDICTED BY IDOCK:   -5.18 KCAL/MOL
REMARK 922        TOTAL FREE ENERGY PREDICTED BY IDOCK:   -6.22 KCAL/MOL
REMARK 923 INTER-LIGAND FREE ENERGY PREDICTED BY IDOCK:   -5.79 KCAL/MOL
REMARK 924 INTRA-LIGAND FREE ENERGY PREDICTED BY IDOCK:   -0.42 KCAL/MOL
REMARK 927      BINDING AFFINITY PREDICTED BY RF-SCORE:    0.00 PKD
ROOT
HETATM    1  C   UNL     1     -10.150  10.598  64.371  1.00  0.00    -0.418 C  
HETATM    2  C   UNL     1      -9.840  11.648  65.433  1.00  0.00    -0.268 C  
HETATM    3  C   UNL     1     -10.650  12.926  65.198  1.00  0.00    -0.302 C  
HETATM    4  C   UNL     1      -9.986  11.063  66.832  1.00  0.00    -0.231 A  
HETATM    5  O   UNL     1     -10.452  13.878  66.146  1.00  0.00    -0.286 OA 
HETATM    6  O   UNL     1     -11.376  13.130  64.235  1.00  0.00    -0.355 OA 
HETATM    7  C   UNL     1     -11.206  11.101  67.523  1.00  0.00    -0.369 A  
HETATM    8  C   UNL     1     -11.270  10.744  68.876  1.00  0.00    -0.268 A  
HETATM    9  C   UNL     1      -8.875  10.489  67.469  1.00  0.00    -0.131 A  
HETATM   10  C   UNL     1     -10.162  10.160  69.488  1.00  0.00    -0.258 A  
HETATM   11  C   UNL     1      -8.971  10.014  68.778  1.00  0.00    -0.145 A  
ENDROOT
BRANCH   8  12
HETATM   12  O   UNL     1     -12.380  10.921  69.675  1.00  0.00    -0.328 OA 
BRANCH  12  13
HETATM   13  C   UNL     1     -12.535  12.102  70.369  1.00  0.00    -0.144 A  
HETATM   14  C   UNL     1     -13.144  12.004  71.621  1.00  0.00    -0.422 A  
HETATM   15  C   UNL     1     -13.434  13.158  72.350  1.00  0.00    -0.643 A  
HETATM   16  C   UNL     1     -13.119  14.413  71.827  1.00  0.00    -0.428 A  
HETATM   17  C   UNL     1     -12.448  14.510  70.612  1.00  0.00    -0.409 A  
HETATM   18  C   UNL     1     -12.115  13.354  69.907  1.00  0.00    -0.389 A  
ENDBRANCH  12  13
ENDBRANCH   8  12
TORSDOF 2
ENDMDL
MODEL       46
REMARK 921   NORMALIZED FREE ENERGY PREDICTED BY IDOCK:   -5.17 KCAL/MOL
REMARK 922        TOTAL FREE ENERGY PREDICTED BY IDOCK:   -6.20 KCAL/MOL
REMARK 923 INTER-LIGAND FREE ENERGY PREDICTED BY IDOCK:   -5.85 KCAL/MOL
REMARK 924 INTRA-LIGAND FREE ENERGY PREDICTED BY IDOCK:   -0.35 KCAL/MOL
REMARK 927      BINDING AFFINITY PREDICTED BY RF-SCORE:    0.00 PKD
ROOT
HETATM    1  C   UNL     1     -10.338  14.509  68.883  1.00  0.00    -0.237 C  
HETATM    2  C   UNL     1     -11.439  13.566  68.410  1.00  0.00    -0.346 C  
HETATM    3  C   UNL     1     -11.162  13.062  66.991  1.00  0.00    -0.289 C  
HETATM    4  C   UNL     1     -11.682  12.460  69.430  1.00  0.00    -0.384 A  
HETATM    5  O   UNL     1     -12.086  12.176  66.538  1.00  0.00    -0.627 OA 
HETATM    6  O   UNL     1     -10.239  13.436  66.280  1.00  0.00    -0.283 OA 
HETATM    7  C   UNL     1     -10.980  11.247  69.381  1.00  0.00    -0.282 A  
HETATM    8  C   UNL     1     -11.357  10.173  70.198  1.00  0.00    -0.303 A  
HETATM    9  C   UNL     1     -12.643  12.636  70.436  1.00  0.00    -0.115 A  
HETATM   10  C   UNL     1     -12.303  10.370  71.203  1.00  0.00    -0.505 A  
HETATM   11  C   UNL     1     -12.931  11.607  71.334  1.00  0.00    -0.426 A  
ENDROOT
BRANCH   8  12
HETATM   12  O   UNL     1     -10.844   8.897  70.090  1.00  0.00    -0.227 OA 
BRANCH  12  13
HETATM   13  C   UNL     1     -10.522   8.196  71.233  1.00  0.00    -0.209 A  
HETATM   14  C   UNL     1     -11.216   7.003  71.438  1.00  0.00    -0.283 A  
HETATM   15  C   UNL     1     -11.029   6.279  72.617  1.00  0.00    -0.285 A  
HETATM   16  C   UNL     1     -10.150   6.749  73.594  1.00  0.00    -0.324 A  
HETATM   17  C   UNL     1      -9.404   7.901  73.361  1.00  0.00    -0.348 A  
HETATM   18  C   UNL     1      -9.556   8.596  72.162  1.00  0.00    -0.378 A  
ENDBRANCH  12  13
ENDBRANCH   8  12
TORSDOF 2
ENDMDL
MODEL       47
REMARK 921   NORMALIZED FREE ENERGY PREDICTED BY IDOCK:   -5.16 KCAL/MOL
REMARK 922        TOTAL FREE ENERGY PREDICTED BY IDOCK:   -6.19 KCAL/MOL
REMARK 923 INTER-LIGAND FREE ENERGY PREDICTED BY IDOCK:   -5.80 KCAL/MOL
REMARK 924 INTRA-LIGAND FREE ENERGY PREDICTED BY IDOCK:   -0.39 KCAL/MOL
REMARK 927      BINDING AFFINITY PREDICTED BY RF-SCORE:    0.00 PKD
ROOT
HETATM    1  C   UNL     1     -10.223  18.274  66.207  1.00  0.00    -0.414 C  
HETATM    2  C   UNL     1      -9.584  16.902  66.028  1.00  0.00    -0.238 C  
HETATM    3  C   UNL     1      -8.489  16.663  67.072  1.00  0.00    -0.198 C  
HETATM    4  C   UNL     1     -10.646  15.811  65.975  1.00  0.00    -0.334 A  
HETATM    5  O   UNL     1      -7.920  15.433  66.993  1.00  0.00    -0.203 OA 
HETATM    6  O   UNL     1      -8.099  17.492  67.883  1.00  0.00    -0.219 OA 
HETATM    7  C   UNL     1     -11.095  15.164  67.136  1.00  0.00    -0.335 A  
HETATM    8  C   UNL     1     -11.917  14.033  67.048  1.00  0.00    -0.438 A  
HETATM    9  C   UNL     1     -11.182  15.418  64.740  1.00  0.00    -0.404 A  
HETATM   10  C   UNL     1     -12.454  13.666  65.814  1.00  0.00    -0.524 A  
HETATM   11  C   UNL     1     -12.103  14.371  64.665  1.00  0.00    -0.485 A  
ENDROOT
BRANCH   8  12
HETATM   12  O   UNL     1     -12.256  13.233  68.118  1.00  0.00    -0.266 OA 
BRANCH  12  13
HETATM   13  C   UNL     1     -11.413  12.209  68.495  1.00  0.00    -0.300 A  
HETATM   14  C   UNL     1     -11.888  11.357  69.493  1.00  0.00    -0.426 A  
HETATM   15  C   UNL     1     -11.063  10.355  70.008  1.00  0.00    -0.379 A  
HETATM   16  C   UNL     1      -9.762  10.206  69.528  1.00  0.00    -0.251 A  
HETATM   17  C   UNL     1      -9.310  11.007  68.483  1.00  0.00    -0.188 A  
HETATM   18  C   UNL     1     -10.152  11.975  67.936  1.00  0.00    -0.199 A  
ENDBRANCH  12  13
ENDBRANCH   8  12
TORSDOF 2
ENDMDL
MODEL       48
REMARK 921   NORMALIZED FREE ENERGY PREDICTED BY IDOCK:   -5.15 KCAL/MOL
REMARK 922        TOTAL FREE ENERGY PREDICTED BY IDOCK:   -6.18 KCAL/MOL
REMARK 923 INTER-LIGAND FREE ENERGY PREDICTED BY IDOCK:   -6.13 KCAL/MOL
REMARK 924 INTRA-LIGAND FREE ENERGY PREDICTED BY IDOCK:   -0.05 KCAL/MOL
REMARK 927      BINDING AFFINITY PREDICTED BY RF-SCORE:    0.00 PKD
ROOT
HETATM    1  C   UNL     1     -14.401  15.220  71.066  1.00  0.00    -0.232 C  
HETATM    2  C   UNL     1     -12.885  15.262  70.906  1.00  0.00    -0.511 C  
HETATM    3  C   UNL     1     -12.188  15.281  72.269  1.00  0.00    -0.383 C  
HETATM    4  C   UNL     1     -12.407  14.156  69.975  1.00  0.00    -0.403 A  
HETATM    5  O   UNL     1     -10.832  15.266  72.187  1.00  0.00    -0.097 OA 
HETATM    6  O   UNL     1     -12.758  15.356  73.349  1.00  0.00    -0.430 OA 
HETATM    7  C   UNL     1     -12.061  12.885  70.457  1.00  0.00    -0.364 A  
HETATM    8  C   UNL     1     -11.436  11.952  69.620  1.00  0.00    -0.266 A  
HETATM    9  C   UNL     1     -12.284  14.405  68.600  1.00  0.00    -0.185 A  
HETATM   10  C   UNL     1     -11.336  12.209  68.254  1.00  0.00    -0.343 A  
HETATM   11  C   UNL     1     -11.779  13.428  67.741  1.00  0.00    -0.394 A  
ENDROOT
BRANCH   8  12
HETATM   12  O   UNL     1     -10.902  10.755  70.051  1.00  0.00    -0.252 OA 
BRANCH  12  13
HETATM   13  C   UNL     1     -11.637   9.950  70.896  1.00  0.00    -0.373 A  
HETATM   14  C   UNL     1     -10.929   8.943  71.553  1.00  0.00    -0.398 A  
HETATM   15  C   UNL     1     -11.607   8.017  72.349  1.00  0.00    -0.450 A  
HETATM   16  C   UNL     1     -12.993   8.095  72.485  1.00  0.00    -0.072 A  
HETATM   17  C   UNL     1     -13.692   9.141  71.889  1.00  0.00    -0.485 A  
HETATM   18  C   UNL     1     -13.008  10.093  71.135  1.00  0.00    -0.488 A  
ENDBRANCH  12  13
ENDBRANCH   8  12
TORSDOF 2
ENDMDL
MODEL       49
REMARK 921   NORMALIZED FREE ENERGY PREDICTED BY IDOCK:   -5.15 KCAL/MOL
REMARK 922        TOTAL FREE ENERGY PREDICTED BY IDOCK:   -6.17 KCAL/MOL
REMARK 923 INTER-LIGAND FREE ENERGY PREDICTED BY IDOCK:   -5.69 KCAL/MOL
REMARK 924 INTRA-LIGAND FREE ENERGY PREDICTED BY IDOCK:   -0.48 KCAL/MOL
REMARK 927      BINDING AFFINITY PREDICTED BY RF-SCORE:    0.00 PKD
ROOT
HETATM    1  C   UNL     1      -7.757  19.376  66.092  1.00  0.00    -0.314 C  
HETATM    2  C   UNL     1      -8.369  19.278  67.485  1.00  0.00    -0.322 C  
HETATM    3  C   UNL     1      -9.751  19.936  67.527  1.00  0.00    -0.392 C  
HETATM    4  C   UNL     1      -8.345  17.841  67.989  1.00  0.00    -0.249 A  
HETATM    5  O   UNL     1     -10.367  19.832  68.733  1.00  0.00    -0.415 OA 
HETATM    6  O   UNL     1     -10.265  20.551  66.603  1.00  0.00    -0.357 OA 
HETATM    7  C   UNL     1      -9.406  16.957  67.743  1.00  0.00    -0.235 A  
HETATM    8  C   UNL     1      -9.457  15.711  68.382  1.00  0.00    -0.196 A  
HETATM    9  C   UNL     1      -7.251  17.381  68.737  1.00  0.00    -0.249 A  
HETATM   10  C   UNL     1      -8.355  15.263  69.108  1.00  0.00    -0.233 A  
HETATM   11  C   UNL     1      -7.244  16.090  69.268  1.00  0.00    -0.226 A  
ENDROOT
BRANCH   8  12
HETATM   12  O   UNL     1     -10.542  14.860  68.341  1.00  0.00    -0.235 OA 
BRANCH  12  13
HETATM   13  C   UNL     1     -10.812  14.160  67.183  1.00  0.00    -0.290 A  
HETATM   14  C   UNL     1     -12.142  14.163  66.761  1.00  0.00    -0.474 A  
HETATM   15  C   UNL     1     -12.527  13.399  65.658  1.00  0.00    -0.519 A  
HETATM   16  C   UNL     1     -11.583  12.629  64.978  1.00  0.00    -0.384 A  
HETATM   17  C   UNL     1     -10.243  12.680  65.353  1.00  0.00    -0.301 A  
HETATM   18  C   UNL     1      -9.852  13.482  66.425  1.00  0.00    -0.299 A  
ENDBRANCH  12  13
ENDBRANCH   8  12
TORSDOF 2
ENDMDL
MODEL       50
REMARK 921   NORMALIZED FREE ENERGY PREDICTED BY IDOCK:   -5.14 KCAL/MOL
REMARK 922        TOTAL FREE ENERGY PREDICTED BY IDOCK:   -6.16 KCAL/MOL
REMARK 923 INTER-LIGAND FREE ENERGY PREDICTED BY IDOCK:   -5.68 KCAL/MOL
REMARK 924 INTRA-LIGAND FREE ENERGY PREDICTED BY IDOCK:   -0.48 KCAL/MOL
REMARK 927      BINDING AFFINITY PREDICTED BY RF-SCORE:    0.00 PKD
ROOT
HETATM    1  C   UNL     1      -7.756  16.799  68.326  1.00  0.00    -0.187 C  
HETATM    2  C   UNL     1      -9.163  17.204  67.901  1.00  0.00    -0.241 C  
HETATM    3  C   UNL     1      -9.240  17.421  66.387  1.00  0.00    -0.249 C  
HETATM    4  C   UNL     1     -10.197  16.229  68.447  1.00  0.00    -0.249 A  
HETATM    5  O   UNL     1     -10.485  17.734  65.945  1.00  0.00    -0.491 OA 
HETATM    6  O   UNL     1      -8.287  17.377  65.622  1.00  0.00    -0.487 OA 
HETATM    7  C   UNL     1     -10.588  15.090  67.726  1.00  0.00    -0.264 A  
HETATM    8  C   UNL     1     -11.679  14.320  68.149  1.00  0.00    -0.350 A  
HETATM    9  C   UNL     1     -10.800  16.472  69.690  1.00  0.00    -0.322 A  
HETATM   10  C   UNL     1     -12.255  14.566  69.394  1.00  0.00    -0.285 A  
HETATM   11  C   UNL     1     -11.802  15.629  70.173  1.00  0.00    -0.381 A  
ENDROOT
BRANCH   8  12
HETATM   12  O   UNL     1     -12.241  13.299  67.412  1.00  0.00    -0.312 OA 
BRANCH  12  13
HETATM   13  C   UNL     1     -11.554  12.113  67.261  1.00  0.00    -0.334 A  
HETATM   14  C   UNL     1     -11.644  11.211  68.323  1.00  0.00    -0.359 A  
HETATM   15  C   UNL     1     -10.900  10.030  68.302  1.00  0.00    -0.286 A  
HETATM   16  C   UNL     1     -10.064   9.750  67.221  1.00  0.00    -0.261 A  
HETATM   17  C   UNL     1     -10.028  10.612  66.129  1.00  0.00    -0.283 A  
HETATM   18  C   UNL     1     -10.808  11.768  66.129  1.00  0.00    -0.336 A  
ENDBRANCH  12  13
ENDBRANCH   8  12
TORSDOF 2
ENDMDL
MODEL       51
REMARK 921   NORMALIZED FREE ENERGY PREDICTED BY IDOCK:   -5.11 KCAL/MOL
REMARK 922        TOTAL FREE ENERGY PREDICTED BY IDOCK:   -6.14 KCAL/MOL
REMARK 923 INTER-LIGAND FREE ENERGY PREDICTED BY IDOCK:   -5.70 KCAL/MOL
REMARK 924 INTRA-LIGAND FREE ENERGY PREDICTED BY IDOCK:   -0.43 KCAL/MOL
REMARK 927      BINDING AFFINITY PREDICTED BY RF-SCORE:    0.00 PKD
ROOT
HETATM    1  C   UNL     1      -9.777  10.130  67.002  1.00  0.00    -0.224 C  
HETATM    2  C   UNL     1     -11.120  10.666  67.486  1.00  0.00    -0.367 C  
HETATM    3  C   UNL     1     -11.264  10.502  69.002  1.00  0.00    -0.259 C  
HETATM    4  C   UNL     1     -11.350  12.086  66.986  1.00  0.00    -0.396 A  
HETATM    5  O   UNL     1     -12.421  11.011  69.497  1.00  0.00    -0.293 OA 
HETATM    6  O   UNL     1     -10.461   9.929  69.726  1.00  0.00    -0.224 OA 
HETATM    7  C   UNL     1     -10.932  13.204  67.723  1.00  0.00    -0.272 A  
HETATM    8  C   UNL     1     -11.329  14.493  67.348  1.00  0.00    -0.356 A  
HETATM    9  C   UNL     1     -12.015  12.298  65.769  1.00  0.00    -0.362 A  
HETATM   10  C   UNL     1     -11.975  14.688  66.128  1.00  0.00    -0.250 A  
HETATM   11  C   UNL     1     -12.300  13.592  65.330  1.00  0.00    -0.498 A  
ENDROOT
BRANCH   8  12
HETATM   12  O   UNL     1     -11.117  15.624  68.108  1.00  0.00    -0.303 OA 
BRANCH  12  13
HETATM   13  C   UNL     1     -10.260  16.601  67.648  1.00  0.00    -0.285 A  
HETATM   14  C   UNL     1     -10.654  17.920  67.873  1.00  0.00    -0.387 A  
HETATM   15  C   UNL     1      -9.900  18.974  67.353  1.00  0.00    -0.386 A  
HETATM   16  C   UNL     1      -8.752  18.709  66.605  1.00  0.00    -0.307 A  
HETATM   17  C   UNL     1      -8.318  17.397  66.440  1.00  0.00    -0.302 A  
HETATM   18  C   UNL     1      -9.045  16.348  67.001  1.00  0.00    -0.232 A  
ENDBRANCH  12  13
ENDBRANCH   8  12
TORSDOF 2
ENDMDL
MODEL       52
REMARK 921   NORMALIZED FREE ENERGY PREDICTED BY IDOCK:   -5.09 KCAL/MOL
REMARK 922        TOTAL FREE ENERGY PREDICTED BY IDOCK:   -6.11 KCAL/MOL
REMARK 923 INTER-LIGAND FREE ENERGY PREDICTED BY IDOCK:   -5.62 KCAL/MOL
REMARK 924 INTRA-LIGAND FREE ENERGY PREDICTED BY IDOCK:   -0.50 KCAL/MOL
REMARK 927      BINDING AFFINITY PREDICTED BY RF-SCORE:    0.00 PKD
ROOT
HETATM    1  C   UNL     1     -11.110  14.618  68.864  1.00  0.00    -0.268 C  
HETATM    2  C   UNL     1     -11.851  13.393  68.339  1.00  0.00    -0.401 C  
HETATM    3  C   UNL     1     -11.677  13.251  66.824  1.00  0.00    -0.385 C  
HETATM    4  C   UNL     1     -11.472  12.149  69.131  1.00  0.00    -0.352 A  
HETATM    5  O   UNL     1     -12.273  12.145  66.309  1.00  0.00    -0.604 OA 
HETATM    6  O   UNL     1     -11.107  14.059  66.104  1.00  0.00    -0.297 OA 
HETATM    7  C   UNL     1     -10.393  11.336  68.755  1.00  0.00    -0.223 A  
HETATM    8  C   UNL     1     -10.186  10.095  69.372  1.00  0.00    -0.227 A  
HETATM    9  C   UNL     1     -12.225  11.781  70.257  1.00  0.00    -0.381 A  
HETATM   10  C   UNL     1     -10.933   9.753  70.498  1.00  0.00    -0.384 A  
HETATM   11  C   UNL     1     -11.938  10.605  70.952  1.00  0.00    -0.469 A  
ENDROOT
BRANCH   8  12
HETATM   12  O   UNL     1      -9.268   9.159  68.947  1.00  0.00    -0.138 OA 
BRANCH  12  13
HETATM   13  C   UNL     1      -9.710   7.948  68.457  1.00  0.00    -0.161 A  
HETATM   14  C   UNL     1      -9.298   6.814  69.159  1.00  0.00    -0.135 A  
HETATM   15  C   UNL     1      -9.613   5.542  68.678  1.00  0.00    -0.172 A  
HETATM   16  C   UNL     1     -10.337   5.402  67.493  1.00  0.00    -0.246 A  
HETATM   17  C   UNL     1     -10.810   6.530  66.831  1.00  0.00    -0.427 A  
HETATM   18  C   UNL     1     -10.537   7.800  67.338  1.00  0.00    -0.345 A  
ENDBRANCH  12  13
ENDBRANCH   8  12
TORSDOF 2
ENDMDL
MODEL       53
REMARK 921   NORMALIZED FREE ENERGY PREDICTED BY IDOCK:   -5.08 KCAL/MOL
REMARK 922        TOTAL FREE ENERGY PREDICTED BY IDOCK:   -6.10 KCAL/MOL
REMARK 923 INTER-LIGAND FREE ENERGY PREDICTED BY IDOCK:   -5.65 KCAL/MOL
REMARK 924 INTRA-LIGAND FREE ENERGY PREDICTED BY IDOCK:   -0.45 KCAL/MOL
REMARK 927      BINDING AFFINITY PREDICTED BY RF-SCORE:    0.00 PKD
ROOT
HETATM    1  C   UNL     1     -10.427   7.906  73.077  1.00  0.00    -0.410 C  
HETATM    2  C   UNL     1     -10.395   7.477  71.614  1.00  0.00    -0.217 C  
HETATM    3  C   UNL     1     -11.644   6.671  71.248  1.00  0.00    -0.323 C  
HETATM    4  C   UNL     1     -10.131   8.670  70.705  1.00  0.00    -0.237 A  
HETATM    5  O   UNL     1     -11.693   6.306  69.941  1.00  0.00    -0.408 OA 
HETATM    6  O   UNL     1     -12.512   6.322  72.037  1.00  0.00    -0.306 OA 
HETATM    7  C   UNL     1     -11.179   9.445  70.184  1.00  0.00    -0.253 A  
HETATM    8  C   UNL     1     -10.931  10.405  69.195  1.00  0.00    -0.241 A  
HETATM    9  C   UNL     1      -8.815   9.002  70.351  1.00  0.00    -0.228 A  
HETATM   10  C   UNL     1      -9.616  10.734  68.868  1.00  0.00    -0.204 A  
HETATM   11  C   UNL     1      -8.558  10.047  69.461  1.00  0.00    -0.197 A  
ENDROOT
BRANCH   8  12
HETATM   12  O   UNL     1     -11.914  11.081  68.503  1.00  0.00    -0.535 OA 
BRANCH  12  13
HETATM   13  C   UNL     1     -11.925  12.460  68.512  1.00  0.00    -0.223 A  
HETATM   14  C   UNL     1     -11.913  13.082  67.263  1.00  0.00    -0.379 A  
HETATM   15  C   UNL     1     -11.820  14.472  67.175  1.00  0.00    -0.412 A  
HETATM   16  C   UNL     1     -11.736  15.242  68.336  1.00  0.00    -0.340 A  
HETATM   17  C   UNL     1     -11.820  14.629  69.583  1.00  0.00    -0.367 A  
HETATM   18  C   UNL     1     -11.962  13.245  69.669  1.00  0.00    -0.376 A  
ENDBRANCH  12  13
ENDBRANCH   8  12
TORSDOF 2
ENDMDL
MODEL       54
REMARK 921   NORMALIZED FREE ENERGY PREDICTED BY IDOCK:   -5.04 KCAL/MOL
REMARK 922        TOTAL FREE ENERGY PREDICTED BY IDOCK:   -6.06 KCAL/MOL
REMARK 923 INTER-LIGAND FREE ENERGY PREDICTED BY IDOCK:   -5.58 KCAL/MOL
REMARK 924 INTRA-LIGAND FREE ENERGY PREDICTED BY IDOCK:   -0.47 KCAL/MOL
REMARK 927      BINDING AFFINITY PREDICTED BY RF-SCORE:    0.00 PKD
ROOT
HETATM    1  C   UNL     1      -8.353   9.196  70.854  1.00  0.00    -0.231 C  
HETATM    2  C   UNL     1      -9.563   8.556  70.181  1.00  0.00    -0.174 C  
HETATM    3  C   UNL     1     -10.772   8.540  71.121  1.00  0.00    -0.234 C  
HETATM    4  C   UNL     1      -9.833   9.199  68.827  1.00  0.00    -0.175 A  
HETATM    5  O   UNL     1     -11.895   8.028  70.554  1.00  0.00    -0.166 OA 
HETATM    6  O   UNL     1     -10.756   8.895  72.291  1.00  0.00    -0.320 OA 
HETATM    7  C   UNL     1     -10.674  10.314  68.695  1.00  0.00    -0.255 A  
HETATM    8  C   UNL     1     -11.068  10.763  67.428  1.00  0.00    -0.296 A  
HETATM    9  C   UNL     1      -9.250   8.661  67.669  1.00  0.00    -0.148 A  
HETATM   10  C   UNL     1     -10.467  10.228  66.289  1.00  0.00    -0.214 A  
HETATM   11  C   UNL     1      -9.543   9.192  66.412  1.00  0.00    -0.309 A  
ENDROOT
BRANCH   8  12
HETATM   12  O   UNL     1     -12.027  11.729  67.209  1.00  0.00    -0.618 OA 
BRANCH  12  13
HETATM   13  C   UNL     1     -11.685  12.885  66.539  1.00  0.00    -0.393 A  
HETATM   14  C   UNL     1     -12.385  13.141  65.359  1.00  0.00    -0.532 A  
HETATM   15  C   UNL     1     -12.037  14.234  64.562  1.00  0.00    -0.499 A  
HETATM   16  C   UNL     1     -10.987  15.070  64.944  1.00  0.00    -0.427 A  
HETATM   17  C   UNL     1     -10.335  14.858  66.155  1.00  0.00    -0.312 A  
HETATM   18  C   UNL     1     -10.716  13.796  66.973  1.00  0.00    -0.283 A  
ENDBRANCH  12  13
ENDBRANCH   8  12
TORSDOF 2
ENDMDL
MODEL       55
REMARK 921   NORMALIZED FREE ENERGY PREDICTED BY IDOCK:   -5.04 KCAL/MOL
REMARK 922        TOTAL FREE ENERGY PREDICTED BY IDOCK:   -6.05 KCAL/MOL
REMARK 923 INTER-LIGAND FREE ENERGY PREDICTED BY IDOCK:   -5.86 KCAL/MOL
REMARK 924 INTRA-LIGAND FREE ENERGY PREDICTED BY IDOCK:   -0.19 KCAL/MOL
REMARK 927      BINDING AFFINITY PREDICTED BY RF-SCORE:    0.00 PKD
ROOT
HETATM    1  C   UNL     1      -6.782  19.763  68.960  1.00  0.00    -0.372 C  
HETATM    2  C   UNL     1      -7.575  19.670  67.661  1.00  0.00    -0.311 C  
HETATM    3  C   UNL     1      -6.643  19.568  66.452  1.00  0.00    -0.189 C  
HETATM    4  C   UNL     1      -8.619  18.564  67.741  1.00  0.00    -0.286 A  
HETATM    5  O   UNL     1      -7.297  19.431  65.270  1.00  0.00    -0.414 OA 
HETATM    6  O   UNL     1      -5.423  19.651  66.496  1.00  0.00    -0.163 OA 
HETATM    7  C   UNL     1      -8.329  17.248  67.353  1.00  0.00    -0.211 A  
HETATM    8  C   UNL     1      -9.350  16.296  67.243  1.00  0.00    -0.224 A  
HETATM    9  C   UNL     1      -9.916  18.858  68.191  1.00  0.00    -0.431 A  
HETATM   10  C   UNL     1     -10.629  16.599  67.709  1.00  0.00    -0.342 A  
HETATM   11  C   UNL     1     -10.905  17.874  68.202  1.00  0.00    -0.178 A  
ENDROOT
BRANCH   8  12
HETATM   12  O   UNL     1      -9.186  15.038  66.701  1.00  0.00    -0.241 OA 
BRANCH  12  13
HETATM   13  C   UNL     1     -10.274  14.384  66.162  1.00  0.00    -0.306 A  
HETATM   14  C   UNL     1     -10.835  13.377  66.946  1.00  0.00    -0.282 A  
HETATM   15  C   UNL     1     -11.875  12.593  66.440  1.00  0.00    -0.466 A  
HETATM   16  C   UNL     1     -12.351  12.815  65.147  1.00  0.00    -0.555 A  
HETATM   17  C   UNL     1     -11.841  13.866  64.390  1.00  0.00    -0.456 A  
HETATM   18  C   UNL     1     -10.837  14.679  64.915  1.00  0.00    -0.436 A  
ENDBRANCH  12  13
ENDBRANCH   8  12
TORSDOF 2
ENDMDL
MODEL       56
REMARK 921   NORMALIZED FREE ENERGY PREDICTED BY IDOCK:   -4.96 KCAL/MOL
REMARK 922        TOTAL FREE ENERGY PREDICTED BY IDOCK:   -5.97 KCAL/MOL
REMARK 923 INTER-LIGAND FREE ENERGY PREDICTED BY IDOCK:   -6.04 KCAL/MOL
REMARK 924 INTRA-LIGAND FREE ENERGY PREDICTED BY IDOCK:    0.07 KCAL/MOL
REMARK 927      BINDING AFFINITY PREDICTED BY RF-SCORE:    0.00 PKD
ROOT
HETATM    1  C   UNL     1     -11.257  16.124  64.676  1.00  0.00    -0.307 C  
HETATM    2  C   UNL     1     -10.158  15.251  65.272  1.00  0.00    -0.362 C  
HETATM    3  C   UNL     1      -9.187  16.085  66.113  1.00  0.00    -0.352 C  
HETATM    4  C   UNL     1     -10.752  14.056  66.005  1.00  0.00    -0.294 A  
HETATM    5  O   UNL     1      -8.215  15.350  66.712  1.00  0.00    -0.232 OA 
HETATM    6  O   UNL     1      -9.217  17.304  66.218  1.00  0.00    -0.329 OA 
HETATM    7  C   UNL     1     -11.083  14.117  67.367  1.00  0.00    -0.318 A  
HETATM    8  C   UNL     1     -11.436  12.956  68.067  1.00  0.00    -0.319 A  
HETATM    9  C   UNL     1     -10.959  12.849  65.320  1.00  0.00    -0.310 A  
HETATM   10  C   UNL     1     -11.653  11.769  67.368  1.00  0.00    -0.352 A  
HETATM   11  C   UNL     1     -11.435  11.721  65.993  1.00  0.00    -0.281 A  
ENDROOT
BRANCH   8  12
HETATM   12  O   UNL     1     -11.601  12.892  69.434  1.00  0.00    -0.285 OA 
BRANCH  12  13
HETATM   13  C   UNL     1     -11.655  11.662  70.055  1.00  0.00    -0.255 A  
HETATM   14  C   UNL     1     -12.777  11.425  70.850  1.00  0.00    -0.397 A  
HETATM   15  C   UNL     1     -12.869  10.248  71.597  1.00  0.00    -0.568 A  
HETATM   16  C   UNL     1     -11.838   9.310  71.551  1.00  0.00    -0.444 A  
HETATM   17  C   UNL     1     -10.752   9.511  70.704  1.00  0.00    -0.375 A  
HETATM   18  C   UNL     1     -10.684  10.664  69.922  1.00  0.00    -0.260 A  
ENDBRANCH  12  13
ENDBRANCH   8  12
TORSDOF 2
ENDMDL
MODEL       57
REMARK 921   NORMALIZED FREE ENERGY PREDICTED BY IDOCK:   -4.96 KCAL/MOL
REMARK 922        TOTAL FREE ENERGY PREDICTED BY IDOCK:   -5.97 KCAL/MOL
REMARK 923 INTER-LIGAND FREE ENERGY PREDICTED BY IDOCK:   -5.51 KCAL/MOL
REMARK 924 INTRA-LIGAND FREE ENERGY PREDICTED BY IDOCK:   -0.46 KCAL/MOL
REMARK 927      BINDING AFFINITY PREDICTED BY RF-SCORE:    0.00 PKD
ROOT
HETATM    1  C   UNL     1      -9.915   5.564  71.442  1.00  0.00    -0.241 C  
HETATM    2  C   UNL     1     -11.017   6.465  70.895  1.00  0.00    -0.335 C  
HETATM    3  C   UNL     1     -11.323   7.611  71.863  1.00  0.00    -0.266 C  
HETATM    4  C   UNL     1     -10.696   6.914  69.475  1.00  0.00    -0.276 A  
HETATM    5  O   UNL     1     -12.262   8.477  71.402  1.00  0.00    -0.296 OA 
HETATM    6  O   UNL     1     -10.829   7.743  72.975  1.00  0.00    -0.373 OA 
HETATM    7  C   UNL     1      -9.969   8.086  69.220  1.00  0.00    -0.191 A  
HETATM    8  C   UNL     1      -9.859   8.585  67.916  1.00  0.00    -0.170 A  
HETATM    9  C   UNL     1     -11.151   6.158  68.384  1.00  0.00    -0.343 A  
HETATM   10  C   UNL     1     -10.302   7.814  66.842  1.00  0.00    -0.396 A  
HETATM   11  C   UNL     1     -10.929   6.592  67.076  1.00  0.00    -0.466 A  
ENDROOT
BRANCH   8  12
HETATM   12  O   UNL     1      -9.322   9.815  67.597  1.00  0.00    -0.139 OA 
BRANCH  12  13
HETATM   13  C   UNL     1     -10.148  10.817  67.132  1.00  0.00    -0.204 A  
HETATM   14  C   UNL     1     -10.834  11.547  68.103  1.00  0.00    -0.259 A  
HETATM   15  C   UNL     1     -11.769  12.512  67.722  1.00  0.00    -0.419 A  
HETATM   16  C   UNL     1     -12.020  12.745  66.369  1.00  0.00    -0.443 A  
HETATM   17  C   UNL     1     -11.286  12.068  65.399  1.00  0.00    -0.374 A  
HETATM   18  C   UNL     1     -10.318  11.140  65.782  1.00  0.00    -0.316 A  
ENDBRANCH  12  13
ENDBRANCH   8  12
TORSDOF 2
ENDMDL
MODEL       58
REMARK 921   NORMALIZED FREE ENERGY PREDICTED BY IDOCK:   -4.96 KCAL/MOL
REMARK 922        TOTAL FREE ENERGY PREDICTED BY IDOCK:   -5.96 KCAL/MOL
REMARK 923 INTER-LIGAND FREE ENERGY PREDICTED BY IDOCK:   -5.58 KCAL/MOL
REMARK 924 INTRA-LIGAND FREE ENERGY PREDICTED BY IDOCK:   -0.39 KCAL/MOL
REMARK 927      BINDING AFFINITY PREDICTED BY RF-SCORE:    0.00 PKD
ROOT
HETATM    1  C   UNL     1      -5.792  19.565  67.688  1.00  0.00    -0.199 C  
HETATM    2  C   UNL     1      -6.720  20.159  66.634  1.00  0.00    -0.254 C  
HETATM    3  C   UNL     1      -6.196  19.886  65.221  1.00  0.00    -0.246 C  
HETATM    4  C   UNL     1      -8.158  19.712  66.865  1.00  0.00    -0.315 A  
HETATM    5  O   UNL     1      -7.013  20.348  64.239  1.00  0.00    -0.148 OA 
HETATM    6  O   UNL     1      -5.126  19.354  64.959  1.00  0.00    -0.147 OA 
HETATM    7  C   UNL     1      -8.669  18.543  66.282  1.00  0.00    -0.219 A  
HETATM    8  C   UNL     1     -10.039  18.258  66.340  1.00  0.00    -0.396 A  
HETATM    9  C   UNL     1      -9.013  20.491  67.660  1.00  0.00    -0.315 A  
HETATM   10  C   UNL     1     -10.871  19.033  67.148  1.00  0.00    -0.473 A  
HETATM   11  C   UNL     1     -10.353  20.137  67.823  1.00  0.00    -0.460 A  
ENDROOT
BRANCH   8  12
HETATM   12  O   UNL     1     -10.651  17.234  65.647  1.00  0.00    -0.516 OA 
BRANCH  12  13
HETATM   13  C   UNL     1     -10.646  15.960  66.175  1.00  0.00    -0.305 A  
HETATM   14  C   UNL     1     -10.163  14.952  65.341  1.00  0.00    -0.409 A  
HETATM   15  C   UNL     1     -10.215  13.619  65.753  1.00  0.00    -0.317 A  
HETATM   16  C   UNL     1     -10.753  13.293  66.998  1.00  0.00    -0.263 A  
HETATM   17  C   UNL     1     -11.170  14.302  67.861  1.00  0.00    -0.305 A  
HETATM   18  C   UNL     1     -11.072  15.637  67.468  1.00  0.00    -0.289 A  
ENDBRANCH  12  13
ENDBRANCH   8  12
TORSDOF 2
ENDMDL
MODEL       59
REMARK 921   NORMALIZED FREE ENERGY PREDICTED BY IDOCK:   -4.95 KCAL/MOL
REMARK 922        TOTAL FREE ENERGY PREDICTED BY IDOCK:   -5.96 KCAL/MOL
REMARK 923 INTER-LIGAND FREE ENERGY PREDICTED BY IDOCK:   -5.82 KCAL/MOL
REMARK 924 INTRA-LIGAND FREE ENERGY PREDICTED BY IDOCK:   -0.14 KCAL/MOL
REMARK 927      BINDING AFFINITY PREDICTED BY RF-SCORE:    0.00 PKD
ROOT
HETATM    1  C   UNL     1     -10.304   8.481  72.006  1.00  0.00    -0.408 C  
HETATM    2  C   UNL     1     -10.033   8.185  70.535  1.00  0.00    -0.195 C  
HETATM    3  C   UNL     1     -11.061   7.202  69.971  1.00  0.00    -0.258 C  
HETATM    4  C   UNL     1      -9.900   9.477  69.738  1.00  0.00    -0.236 A  
HETATM    5  O   UNL     1     -10.899   6.942  68.648  1.00  0.00    -0.219 OA 
HETATM    6  O   UNL     1     -11.929   6.641  70.626  1.00  0.00    -0.395 OA 
HETATM    7  C   UNL     1     -11.011  10.091  69.142  1.00  0.00    -0.256 A  
HETATM    8  C   UNL     1     -10.841  11.159  68.250  1.00  0.00    -0.212 A  
HETATM    9  C   UNL     1      -8.638  10.067  69.569  1.00  0.00    -0.197 A  
HETATM   10  C   UNL     1      -9.583  11.743  68.107  1.00  0.00    -0.193 A  
HETATM   11  C   UNL     1      -8.487  11.209  68.782  1.00  0.00    -0.134 A  
ENDROOT
BRANCH   8  12
HETATM   12  O   UNL     1     -11.852  11.702  67.486  1.00  0.00    -0.591 OA 
BRANCH  12  13
HETATM   13  C   UNL     1     -11.619  11.989  66.157  1.00  0.00    -0.304 A  
HETATM   14  C   UNL     1     -12.239  13.135  65.659  1.00  0.00    -0.521 A  
HETATM   15  C   UNL     1     -12.142  13.449  64.302  1.00  0.00    -0.479 A  
HETATM   16  C   UNL     1     -11.428  12.614  63.441  1.00  0.00    -0.499 A  
HETATM   17  C   UNL     1     -10.750  11.510  63.948  1.00  0.00    -0.458 A  
HETATM   18  C   UNL     1     -10.807  11.225  65.312  1.00  0.00    -0.261 A  
ENDBRANCH  12  13
ENDBRANCH   8  12
TORSDOF 2
ENDMDL
MODEL       60
REMARK 921   NORMALIZED FREE ENERGY PREDICTED BY IDOCK:   -4.95 KCAL/MOL
REMARK 922        TOTAL FREE ENERGY PREDICTED BY IDOCK:   -5.95 KCAL/MOL
REMARK 923 INTER-LIGAND FREE ENERGY PREDICTED BY IDOCK:   -5.43 KCAL/MOL
REMARK 924 INTRA-LIGAND FREE ENERGY PREDICTED BY IDOCK:   -0.52 KCAL/MOL
REMARK 927      BINDING AFFINITY PREDICTED BY RF-SCORE:    0.00 PKD
ROOT
HETATM    1  C   UNL     1     -11.916  12.841  70.092  1.00  0.00    -0.371 C  
HETATM    2  C   UNL     1     -12.106  11.450  69.497  1.00  0.00    -0.370 C  
HETATM    3  C   UNL     1     -11.147  11.215  68.327  1.00  0.00    -0.251 C  
HETATM    4  C   UNL     1     -12.041  10.383  70.582  1.00  0.00    -0.443 A  
HETATM    5  O   UNL     1     -11.236   9.971  67.791  1.00  0.00    -0.256 OA 
HETATM    6  O   UNL     1     -10.394  12.057  67.855  1.00  0.00    -0.189 OA 
HETATM    7  C   UNL     1     -10.830   9.777  70.949  1.00  0.00    -0.399 A  
HETATM    8  C   UNL     1     -10.819   8.663  71.798  1.00  0.00    -0.325 A  
HETATM    9  C   UNL     1     -13.217   9.968  71.225  1.00  0.00    -0.469 A  
HETATM   10  C   UNL     1     -11.994   8.275  72.441  1.00  0.00    -0.447 A  
HETATM   11  C   UNL     1     -13.188   8.941  72.170  1.00  0.00    -0.478 A  
ENDROOT
BRANCH   8  12
HETATM   12  O   UNL     1      -9.702   7.901  72.066  1.00  0.00    -0.167 OA 
BRANCH  12  13
HETATM   13  C   UNL     1      -9.668   6.582  71.664  1.00  0.00    -0.163 A  
HETATM   14  C   UNL     1      -9.753   6.357  70.289  1.00  0.00    -0.186 A  
HETATM   15  C   UNL     1      -9.829   5.052  69.798  1.00  0.00    -0.286 A  
HETATM   16  C   UNL     1      -9.822   3.971  70.680  1.00  0.00    -0.229 A  
HETATM   17  C   UNL     1      -9.665   4.191  72.046  1.00  0.00    -0.231 A  
HETATM   18  C   UNL     1      -9.541   5.492  72.531  1.00  0.00    -0.167 A  
ENDBRANCH  12  13
ENDBRANCH   8  12
TORSDOF 2
ENDMDL
MODEL       61
REMARK 921   NORMALIZED FREE ENERGY PREDICTED BY IDOCK:   -4.90 KCAL/MOL
REMARK 922        TOTAL FREE ENERGY PREDICTED BY IDOCK:   -5.90 KCAL/MOL
REMARK 923 INTER-LIGAND FREE ENERGY PREDICTED BY IDOCK:   -5.46 KCAL/MOL
REMARK 924 INTRA-LIGAND FREE ENERGY PREDICTED BY IDOCK:   -0.45 KCAL/MOL
REMARK 927      BINDING AFFINITY PREDICTED BY RF-SCORE:    0.00 PKD
ROOT
HETATM    1  C   UNL     1     -10.235   7.657  66.620  1.00  0.00    -0.272 C  
HETATM    2  C   UNL     1      -9.455   8.878  67.096  1.00  0.00    -0.202 C  
HETATM    3  C   UNL     1      -8.841   9.635  65.915  1.00  0.00    -0.153 C  
HETATM    4  C   UNL     1     -10.307   9.740  68.017  1.00  0.00    -0.250 A  
HETATM    5  O   UNL     1      -8.178  10.763  66.277  1.00  0.00    -0.150 OA 
HETATM    6  O   UNL     1      -8.878   9.266  64.749  1.00  0.00    -0.191 OA 
HETATM    7  C   UNL     1     -11.115  10.774  67.520  1.00  0.00    -0.374 A  
HETATM    8  C   UNL     1     -11.730  11.680  68.393  1.00  0.00    -0.307 A  
HETATM    9  C   UNL     1     -10.278   9.523  69.403  1.00  0.00    -0.215 A  
HETATM   10  C   UNL     1     -11.704  11.440  69.766  1.00  0.00    -0.418 A  
HETATM   11  C   UNL     1     -10.995  10.350  70.269  1.00  0.00    -0.353 A  
ENDROOT
BRANCH   8  12
HETATM   12  O   UNL     1     -12.388  12.823  67.990  1.00  0.00    -0.138 OA 
BRANCH  12  13
HETATM   13  C   UNL     1     -11.917  13.532  66.905  1.00  0.00    -0.399 A  
HETATM   14  C   UNL     1     -10.892  14.443  67.165  1.00  0.00    -0.292 A  
HETATM   15  C   UNL     1     -10.423  15.276  66.148  1.00  0.00    -0.318 A  
HETATM   16  C   UNL     1     -10.979  15.201  64.871  1.00  0.00    -0.434 A  
HETATM   17  C   UNL     1     -11.950  14.244  64.591  1.00  0.00    -0.468 A  
HETATM   18  C   UNL     1     -12.384  13.379  65.596  1.00  0.00    -0.521 A  
ENDBRANCH  12  13
ENDBRANCH   8  12
TORSDOF 2
ENDMDL
MODEL       62
REMARK 921   NORMALIZED FREE ENERGY PREDICTED BY IDOCK:   -4.89 KCAL/MOL
REMARK 922        TOTAL FREE ENERGY PREDICTED BY IDOCK:   -5.89 KCAL/MOL
REMARK 923 INTER-LIGAND FREE ENERGY PREDICTED BY IDOCK:   -5.54 KCAL/MOL
REMARK 924 INTRA-LIGAND FREE ENERGY PREDICTED BY IDOCK:   -0.35 KCAL/MOL
REMARK 927      BINDING AFFINITY PREDICTED BY RF-SCORE:    0.00 PKD
ROOT
HETATM    1  C   UNL     1     -12.680  13.816  65.231  1.00  0.00    -0.481 C  
HETATM    2  C   UNL     1     -11.157  13.874  65.205  1.00  0.00    -0.318 C  
HETATM    3  C   UNL     1     -10.606  14.496  66.491  1.00  0.00    -0.297 C  
HETATM    4  C   UNL     1     -10.568  12.510  64.869  1.00  0.00    -0.330 A  
HETATM    5  O   UNL     1      -9.250  14.525  66.545  1.00  0.00    -0.265 OA 
HETATM    6  O   UNL     1     -11.287  14.980  67.385  1.00  0.00    -0.329 OA 
HETATM    7  C   UNL     1     -10.256  11.575  65.867  1.00  0.00    -0.286 A  
HETATM    8  C   UNL     1      -9.533  10.416  65.557  1.00  0.00    -0.215 A  
HETATM    9  C   UNL     1     -10.304  12.173  63.532  1.00  0.00    -0.473 A  
HETATM   10  C   UNL     1      -9.294  10.089  64.223  1.00  0.00    -0.345 A  
HETATM   11  C   UNL     1      -9.697  10.958  63.211  1.00  0.00    -0.398 A  
ENDROOT
BRANCH   8  12
HETATM   12  O   UNL     1      -9.030   9.539  66.496  1.00  0.00    -0.142 OA 
BRANCH  12  13
HETATM   13  C   UNL     1      -9.402   8.212  66.452  1.00  0.00    -0.210 A  
HETATM   14  C   UNL     1     -10.623   7.896  67.050  1.00  0.00    -0.381 A  
HETATM   15  C   UNL     1     -11.032   6.565  67.143  1.00  0.00    -0.480 A  
HETATM   16  C   UNL     1     -10.220   5.547  66.640  1.00  0.00    -0.279 A  
HETATM   17  C   UNL     1      -9.037   5.865  65.980  1.00  0.00    -0.154 A  
HETATM   18  C   UNL     1      -8.653   7.199  65.845  1.00  0.00    -0.157 A  
ENDBRANCH  12  13
ENDBRANCH   8  12
TORSDOF 2
ENDMDL
MODEL       63
REMARK 921   NORMALIZED FREE ENERGY PREDICTED BY IDOCK:   -4.89 KCAL/MOL
REMARK 922        TOTAL FREE ENERGY PREDICTED BY IDOCK:   -5.89 KCAL/MOL
REMARK 923 INTER-LIGAND FREE ENERGY PREDICTED BY IDOCK:   -5.32 KCAL/MOL
REMARK 924 INTRA-LIGAND FREE ENERGY PREDICTED BY IDOCK:   -0.57 KCAL/MOL
REMARK 927      BINDING AFFINITY PREDICTED BY RF-SCORE:    0.00 PKD
ROOT
HETATM    1  C   UNL     1      -7.805   8.923  67.930  1.00  0.00    -0.102 C  
HETATM    2  C   UNL     1      -8.833   8.241  67.034  1.00  0.00    -0.146 C  
HETATM    3  C   UNL     1     -10.154   8.024  67.776  1.00  0.00    -0.195 C  
HETATM    4  C   UNL     1      -8.974   8.981  65.710  1.00  0.00    -0.242 A  
HETATM    5  O   UNL     1     -11.125   7.467  67.008  1.00  0.00    -0.268 OA 
HETATM    6  O   UNL     1     -10.342   8.267  68.961  1.00  0.00    -0.218 OA 
HETATM    7  C   UNL     1      -9.901  10.021  65.542  1.00  0.00    -0.373 A  
HETATM    8  C   UNL     1     -10.156  10.549  64.270  1.00  0.00    -0.310 A  
HETATM    9  C   UNL     1      -8.179   8.611  64.614  1.00  0.00    -0.167 A  
HETATM   10  C   UNL     1      -9.346  10.182  63.196  1.00  0.00    -0.333 A  
HETATM   11  C   UNL     1      -8.345   9.229  63.373  1.00  0.00    -0.193 A  
ENDROOT
BRANCH   8  12
HETATM   12  O   UNL     1     -11.171  11.439  63.987  1.00  0.00    -0.368 OA 
BRANCH  12  13
HETATM   13  C   UNL     1     -11.280  12.600  64.724  1.00  0.00    -0.302 A  
HETATM   14  C   UNL     1     -10.304  13.570  64.490  1.00  0.00    -0.381 A  
HETATM   15  C   UNL     1     -10.276  14.734  65.261  1.00  0.00    -0.415 A  
HETATM   16  C   UNL     1     -11.223  14.928  66.268  1.00  0.00    -0.331 A  
HETATM   17  C   UNL     1     -12.239  13.996  66.455  1.00  0.00    -0.492 A  
HETATM   18  C   UNL     1     -12.295  12.857  65.652  1.00  0.00    -0.482 A  
ENDBRANCH  12  13
ENDBRANCH   8  12
TORSDOF 2
ENDMDL
MODEL       64
REMARK 921   NORMALIZED FREE ENERGY PREDICTED BY IDOCK:   -4.88 KCAL/MOL
REMARK 922        TOTAL FREE ENERGY PREDICTED BY IDOCK:   -5.87 KCAL/MOL
REMARK 923 INTER-LIGAND FREE ENERGY PREDICTED BY IDOCK:   -5.36 KCAL/MOL
REMARK 924 INTRA-LIGAND FREE ENERGY PREDICTED BY IDOCK:   -0.51 KCAL/MOL
REMARK 927      BINDING AFFINITY PREDICTED BY RF-SCORE:    0.00 PKD
ROOT
HETATM    1  C   UNL     1      -9.239  10.494  65.143  1.00  0.00    -0.243 C  
HETATM    2  C   UNL     1     -10.573  10.855  65.788  1.00  0.00    -0.230 C  
HETATM    3  C   UNL     1     -10.542  10.606  67.298  1.00  0.00    -0.263 C  
HETATM    4  C   UNL     1     -11.001  12.264  65.396  1.00  0.00    -0.341 A  
HETATM    5  O   UNL     1     -11.688  10.961  67.933  1.00  0.00    -0.557 OA 
HETATM    6  O   UNL     1      -9.613  10.090  67.906  1.00  0.00    -0.144 OA 
HETATM    7  C   UNL     1     -10.627  13.385  66.152  1.00  0.00    -0.294 A  
HETATM    8  C   UNL     1     -11.193  14.639  65.893  1.00  0.00    -0.336 A  
HETATM    9  C   UNL     1     -11.807  12.460  64.264  1.00  0.00    -0.473 A  
HETATM   10  C   UNL     1     -11.979  14.820  64.756  1.00  0.00    -0.408 A  
HETATM   11  C   UNL     1     -12.268  13.734  63.931  1.00  0.00    -0.402 A  
ENDROOT
BRANCH   8  12
HETATM   12  O   UNL     1     -11.022  15.749  66.693  1.00  0.00    -0.286 OA 
BRANCH  12  13
HETATM   13  C   UNL     1     -11.117  15.620  68.063  1.00  0.00    -0.335 A  
HETATM   14  C   UNL     1      -9.994  16.008  68.796  1.00  0.00    -0.224 A  
HETATM   15  C   UNL     1      -9.962  15.817  70.178  1.00  0.00     0.005 A  
HETATM   16  C   UNL     1     -11.050  15.235  70.830  1.00  0.00    -0.340 A  
HETATM   17  C   UNL     1     -12.198  14.913  70.111  1.00  0.00    -0.387 A  
HETATM   18  C   UNL     1     -12.248  15.149  68.738  1.00  0.00    -0.104 A  
ENDBRANCH  12  13
ENDBRANCH   8  12
TORSDOF 2
ENDMDL
MODEL       65
REMARK 921   NORMALIZED FREE ENERGY PREDICTED BY IDOCK:   -4.87 KCAL/MOL
REMARK 922        TOTAL FREE ENERGY PREDICTED BY IDOCK:   -5.87 KCAL/MOL
REMARK 923 INTER-LIGAND FREE ENERGY PREDICTED BY IDOCK:   -5.33 KCAL/MOL
REMARK 924 INTRA-LIGAND FREE ENERGY PREDICTED BY IDOCK:   -0.54 KCAL/MOL
REMARK 927      BINDING AFFINITY PREDICTED BY RF-SCORE:    0.00 PKD
ROOT
HETATM    1  C   UNL     1     -10.042   7.046  67.288  1.00  0.00    -0.265 C  
HETATM    2  C   UNL     1      -9.304   8.346  67.590  1.00  0.00    -0.158 C  
HETATM    3  C   UNL     1      -8.692   8.940  66.318  1.00  0.00    -0.141 C  
HETATM    4  C   UNL     1     -10.196   9.308  68.363  1.00  0.00    -0.231 A  
HETATM    5  O   UNL     1      -8.067  10.129  66.519  1.00  0.00    -0.117 OA 
HETATM    6  O   UNL     1      -8.698   8.404  65.219  1.00  0.00    -0.170 OA 
HETATM    7  C   UNL     1     -11.024  10.233  67.709  1.00  0.00    -0.360 A  
HETATM    8  C   UNL     1     -11.679  11.238  68.431  1.00  0.00    -0.294 A  
HETATM    9  C   UNL     1     -10.185   9.298  69.766  1.00  0.00    -0.225 A  
HETATM   10  C   UNL     1     -11.671  11.203  69.825  1.00  0.00    -0.419 A  
HETATM   11  C   UNL     1     -10.940  10.220  70.491  1.00  0.00    -0.343 A  
ENDROOT
BRANCH   8  12
HETATM   12  O   UNL     1     -12.362  12.289  67.856  1.00  0.00    -0.283 OA 
BRANCH  12  13
HETATM   13  C   UNL     1     -11.776  12.999  66.830  1.00  0.00    -0.382 A  
HETATM   14  C   UNL     1     -12.411  12.922  65.589  1.00  0.00    -0.482 A  
HETATM   15  C   UNL     1     -11.834  13.525  64.470  1.00  0.00    -0.442 A  
HETATM   16  C   UNL     1     -10.620  14.203  64.589  1.00  0.00    -0.391 A  
HETATM   17  C   UNL     1     -10.022  14.342  65.838  1.00  0.00    -0.350 A  
HETATM   18  C   UNL     1     -10.624  13.782  66.964  1.00  0.00    -0.278 A  
ENDBRANCH  12  13
ENDBRANCH   8  12
TORSDOF 2
ENDMDL
MODEL       66
REMARK 921   NORMALIZED FREE ENERGY PREDICTED BY IDOCK:   -4.86 KCAL/MOL
REMARK 922        TOTAL FREE ENERGY PREDICTED BY IDOCK:   -5.85 KCAL/MOL
REMARK 923 INTER-LIGAND FREE ENERGY PREDICTED BY IDOCK:   -5.32 KCAL/MOL
REMARK 924 INTRA-LIGAND FREE ENERGY PREDICTED BY IDOCK:   -0.54 KCAL/MOL
REMARK 927      BINDING AFFINITY PREDICTED BY RF-SCORE:    0.00 PKD
ROOT
HETATM    1  C   UNL     1      -8.669   9.317  66.034  1.00  0.00    -0.175 C  
HETATM    2  C   UNL     1     -10.082   8.940  66.468  1.00  0.00    -0.356 C  
HETATM    3  C   UNL     1     -10.179   7.448  66.796  1.00  0.00    -0.242 C  
HETATM    4  C   UNL     1     -10.570   9.858  67.581  1.00  0.00    -0.325 A  
HETATM    5  O   UNL     1     -11.404   7.066  67.239  1.00  0.00    -0.207 OA 
HETATM    6  O   UNL     1      -9.278   6.634  66.638  1.00  0.00    -0.148 OA 
HETATM    7  C   UNL     1     -10.353   9.555  68.934  1.00  0.00    -0.225 A  
HETATM    8  C   UNL     1     -10.980  10.301  69.940  1.00  0.00    -0.303 A  
HETATM    9  C   UNL     1     -11.275  11.028  67.263  1.00  0.00    -0.330 A  
HETATM   10  C   UNL     1     -11.663  11.470  69.607  1.00  0.00    -0.419 A  
HETATM   11  C   UNL     1     -11.793  11.844  68.271  1.00  0.00    -0.343 A  
ENDROOT
BRANCH   8  12
HETATM   12  O   UNL     1     -10.968   9.966  71.278  1.00  0.00    -0.320 OA 
BRANCH  12  13
HETATM   13  C   UNL     1     -11.311   8.686  71.660  1.00  0.00    -0.307 A  
HETATM   14  C   UNL     1     -10.353   7.988  72.396  1.00  0.00    -0.355 A  
HETATM   15  C   UNL     1     -10.571   6.652  72.739  1.00  0.00    -0.260 A  
HETATM   16  C   UNL     1     -11.747   6.013  72.344  1.00  0.00    -0.322 A  
HETATM   17  C   UNL     1     -12.734   6.727  71.672  1.00  0.00    -0.360 A  
HETATM   18  C   UNL     1     -12.536   8.074  71.373  1.00  0.00    -0.320 A  
ENDBRANCH  12  13
ENDBRANCH   8  12
TORSDOF 2
ENDMDL
MODEL       67
REMARK 921   NORMALIZED FREE ENERGY PREDICTED BY IDOCK:   -4.86 KCAL/MOL
REMARK 922        TOTAL FREE ENERGY PREDICTED BY IDOCK:   -5.85 KCAL/MOL
REMARK 923 INTER-LIGAND FREE ENERGY PREDICTED BY IDOCK:   -5.35 KCAL/MOL
REMARK 924 INTRA-LIGAND FREE ENERGY PREDICTED BY IDOCK:   -0.50 KCAL/MOL
REMARK 927      BINDING AFFINITY PREDICTED BY RF-SCORE:    0.00 PKD
ROOT
HETATM    1  C   UNL     1      -9.901   4.251  69.587  1.00  0.00    -0.244 C  
HETATM    2  C   UNL     1      -9.421   5.698  69.562  1.00  0.00    -0.174 C  
HETATM    3  C   UNL     1      -9.563   6.302  68.162  1.00  0.00    -0.115 C  
HETATM    4  C   UNL     1     -10.089   6.510  70.664  1.00  0.00    -0.212 A  
HETATM    5  O   UNL     1      -9.198   7.608  68.094  1.00  0.00    -0.138 OA 
HETATM    6  O   UNL     1      -9.916   5.688  67.165  1.00  0.00    -0.135 OA 
HETATM    7  C   UNL     1     -11.302   7.182  70.452  1.00  0.00    -0.325 A  
HETATM    8  C   UNL     1     -11.794   8.082  71.406  1.00  0.00    -0.295 A  
HETATM    9  C   UNL     1      -9.477   6.617  71.922  1.00  0.00    -0.150 A  
HETATM   10  C   UNL     1     -11.182   8.164  72.657  1.00  0.00    -0.447 A  
HETATM   11  C   UNL     1     -10.036   7.416  72.921  1.00  0.00    -0.293 A  
ENDROOT
BRANCH   8  12
HETATM   12  O   UNL     1     -12.875   8.914  71.205  1.00  0.00    -0.306 OA 
BRANCH  12  13
HETATM   13  C   UNL     1     -12.672  10.272  71.079  1.00  0.00    -0.396 A  
HETATM   14  C   UNL     1     -13.282  11.077  72.042  1.00  0.00    -0.447 A  
HETATM   15  C   UNL     1     -13.216  12.467  71.936  1.00  0.00    -0.495 A  
HETATM   16  C   UNL     1     -12.541  13.055  70.865  1.00  0.00    -0.364 A  
HETATM   17  C   UNL     1     -11.871  12.256  69.944  1.00  0.00    -0.383 A  
HETATM   18  C   UNL     1     -11.897  10.868  70.078  1.00  0.00    -0.428 A  
ENDBRANCH  12  13
ENDBRANCH   8  12
TORSDOF 2
ENDMDL
MODEL       68
REMARK 921   NORMALIZED FREE ENERGY PREDICTED BY IDOCK:   -4.85 KCAL/MOL
REMARK 922        TOTAL FREE ENERGY PREDICTED BY IDOCK:   -5.84 KCAL/MOL
REMARK 923 INTER-LIGAND FREE ENERGY PREDICTED BY IDOCK:   -5.71 KCAL/MOL
REMARK 924 INTRA-LIGAND FREE ENERGY PREDICTED BY IDOCK:   -0.13 KCAL/MOL
REMARK 927      BINDING AFFINITY PREDICTED BY RF-SCORE:    0.00 PKD
ROOT
HETATM    1  C   UNL     1     -12.663  12.036  63.725  1.00  0.00    -0.516 C  
HETATM    2  C   UNL     1     -11.258  12.509  64.081  1.00  0.00    -0.437 C  
HETATM    3  C   UNL     1     -11.256  13.992  64.462  1.00  0.00    -0.350 C  
HETATM    4  C   UNL     1     -10.625  11.596  65.122  1.00  0.00    -0.343 A  
HETATM    5  O   UNL     1     -10.037  14.456  64.840  1.00  0.00    -0.379 OA 
HETATM    6  O   UNL     1     -12.225  14.736  64.396  1.00  0.00    -0.491 OA 
HETATM    7  C   UNL     1     -10.772  11.832  66.497  1.00  0.00    -0.304 A  
HETATM    8  C   UNL     1     -10.021  11.105  67.429  1.00  0.00    -0.179 A  
HETATM    9  C   UNL     1      -9.853  10.498  64.712  1.00  0.00    -0.387 A  
HETATM   10  C   UNL     1      -9.273  10.007  67.006  1.00  0.00    -0.167 A  
HETATM   11  C   UNL     1      -9.206   9.692  65.650  1.00  0.00    -0.270 A  
ENDROOT
BRANCH   8  12
HETATM   12  O   UNL     1      -9.967  11.390  68.777  1.00  0.00    -0.206 OA 
BRANCH  12  13
HETATM   13  C   UNL     1     -10.181  10.382  69.694  1.00  0.00    -0.209 A  
HETATM   14  C   UNL     1      -9.050   9.673  70.100  1.00  0.00    -0.280 A  
HETATM   15  C   UNL     1      -9.182   8.570  70.947  1.00  0.00    -0.213 A  
HETATM   16  C   UNL     1     -10.447   8.174  71.385  1.00  0.00    -0.261 A  
HETATM   17  C   UNL     1     -11.568   8.923  71.039  1.00  0.00    -0.347 A  
HETATM   18  C   UNL     1     -11.428  10.052  70.233  1.00  0.00    -0.372 A  
ENDBRANCH  12  13
ENDBRANCH   8  12
TORSDOF 2
ENDMDL
MODEL       69
REMARK 921   NORMALIZED FREE ENERGY PREDICTED BY IDOCK:   -4.84 KCAL/MOL
REMARK 922        TOTAL FREE ENERGY PREDICTED BY IDOCK:   -5.84 KCAL/MOL
REMARK 923 INTER-LIGAND FREE ENERGY PREDICTED BY IDOCK:   -5.28 KCAL/MOL
REMARK 924 INTRA-LIGAND FREE ENERGY PREDICTED BY IDOCK:   -0.56 KCAL/MOL
REMARK 927      BINDING AFFINITY PREDICTED BY RF-SCORE:    0.00 PKD
ROOT
HETATM    1  C   UNL     1     -11.122  15.134  65.141  1.00  0.00    -0.410 C  
HETATM    2  C   UNL     1     -12.172  14.079  65.473  1.00  0.00    -0.455 C  
HETATM    3  C   UNL     1     -12.597  13.309  64.220  1.00  0.00    -0.182 C  
HETATM    4  C   UNL     1     -11.707  13.195  66.623  1.00  0.00    -0.427 A  
HETATM    5  O   UNL     1     -13.494  12.320  64.466  1.00  0.00    -0.686 OA 
HETATM    6  O   UNL     1     -12.227  13.563  63.081  1.00  0.00    -0.608 OA 
HETATM    7  C   UNL     1     -10.974  12.020  66.398  1.00  0.00    -0.337 A  
HETATM    8  C   UNL     1     -10.732  11.121  67.445  1.00  0.00    -0.250 A  
HETATM    9  C   UNL     1     -12.032  13.538  67.944  1.00  0.00    -0.372 A  
HETATM   10  C   UNL     1     -11.047  11.485  68.753  1.00  0.00    -0.288 A  
HETATM   11  C   UNL     1     -11.677  12.702  69.004  1.00  0.00    -0.367 A  
ENDROOT
BRANCH   8  12
HETATM   12  O   UNL     1     -10.182   9.867  67.281  1.00  0.00    -0.195 OA 
BRANCH  12  13
HETATM   13  C   UNL     1      -8.931   9.743  66.715  1.00  0.00    -0.138 A  
HETATM   14  C   UNL     1      -7.864  10.233  67.471  1.00  0.00    -0.102 A  
HETATM   15  C   UNL     1      -6.575  10.243  66.935  1.00  0.00    -0.076 A  
HETATM   16  C   UNL     1      -6.351   9.766  65.643  1.00  0.00    -0.074 A  
HETATM   17  C   UNL     1      -7.400   9.212  64.916  1.00  0.00    -0.101 A  
HETATM   18  C   UNL     1      -8.678   9.158  65.470  1.00  0.00    -0.210 A  
ENDBRANCH  12  13
ENDBRANCH   8  12
TORSDOF 2
ENDMDL
MODEL       70
REMARK 921   NORMALIZED FREE ENERGY PREDICTED BY IDOCK:   -4.82 KCAL/MOL
REMARK 922        TOTAL FREE ENERGY PREDICTED BY IDOCK:   -5.81 KCAL/MOL
REMARK 923 INTER-LIGAND FREE ENERGY PREDICTED BY IDOCK:   -5.25 KCAL/MOL
REMARK 924 INTRA-LIGAND FREE ENERGY PREDICTED BY IDOCK:   -0.56 KCAL/MOL
REMARK 927      BINDING AFFINITY PREDICTED BY RF-SCORE:    0.00 PKD
ROOT
HETATM    1  C   UNL     1     -12.087  15.747  70.713  1.00  0.00    -0.448 C  
HETATM    2  C   UNL     1     -11.142  14.822  69.954  1.00  0.00    -0.266 C  
HETATM    3  C   UNL     1     -11.796  13.464  69.687  1.00  0.00    -0.331 C  
HETATM    4  C   UNL     1     -10.596  15.509  68.709  1.00  0.00    -0.242 A  
HETATM    5  O   UNL     1     -11.016  12.617  68.966  1.00  0.00    -0.238 OA 
HETATM    6  O   UNL     1     -12.890  13.116  70.108  1.00  0.00     0.053 OA 
HETATM    7  C   UNL     1     -11.253  15.425  67.473  1.00  0.00    -0.302 A  
HETATM    8  C   UNL     1     -10.636  15.889  66.304  1.00  0.00    -0.298 A  
HETATM    9  C   UNL     1      -9.394  16.229  68.779  1.00  0.00    -0.235 A  
HETATM   10  C   UNL     1      -9.450  16.617  66.394  1.00  0.00    -0.305 A  
HETATM   11  C   UNL     1      -8.840  16.804  67.633  1.00  0.00    -0.207 A  
ENDROOT
BRANCH   8  12
HETATM   12  O   UNL     1     -11.127  15.686  65.032  1.00  0.00    -0.395 OA 
BRANCH  12  13
HETATM   13  C   UNL     1     -11.259  14.400  64.553  1.00  0.00    -0.306 A  
HETATM   14  C   UNL     1     -12.530  14.039  64.104  1.00  0.00    -0.279 A  
HETATM   15  C   UNL     1     -12.782  12.727  63.697  1.00  0.00    -0.259 A  
HETATM   16  C   UNL     1     -11.764  11.774  63.740  1.00  0.00    -0.499 A  
HETATM   17  C   UNL     1     -10.478  12.149  64.119  1.00  0.00    -0.395 A  
HETATM   18  C   UNL     1     -10.216  13.470  64.479  1.00  0.00    -0.296 A  
ENDBRANCH  12  13
ENDBRANCH   8  12
TORSDOF 2
ENDMDL
MODEL       71
REMARK 921   NORMALIZED FREE ENERGY PREDICTED BY IDOCK:   -4.82 KCAL/MOL
REMARK 922        TOTAL FREE ENERGY PREDICTED BY IDOCK:   -5.81 KCAL/MOL
REMARK 923 INTER-LIGAND FREE ENERGY PREDICTED BY IDOCK:   -5.51 KCAL/MOL
REMARK 924 INTRA-LIGAND FREE ENERGY PREDICTED BY IDOCK:   -0.30 KCAL/MOL
REMARK 927      BINDING AFFINITY PREDICTED BY RF-SCORE:    0.00 PKD
ROOT
HETATM    1  C   UNL     1     -10.929  17.080  68.420  1.00  0.00    -0.263 C  
HETATM    2  C   UNL     1     -10.147  16.259  67.401  1.00  0.00    -0.260 C  
HETATM    3  C   UNL     1      -8.652  16.253  67.728  1.00  0.00    -0.171 C  
HETATM    4  C   UNL     1     -10.757  14.872  67.238  1.00  0.00    -0.294 A  
HETATM    5  O   UNL     1      -7.912  15.492  66.881  1.00  0.00    -0.224 OA 
HETATM    6  O   UNL     1      -8.126  16.899  68.625  1.00  0.00    -0.233 OA 
HETATM    7  C   UNL     1     -10.351  13.791  68.034  1.00  0.00    -0.246 A  
HETATM    8  C   UNL     1     -10.774  12.489  67.736  1.00  0.00    -0.219 A  
HETATM    9  C   UNL     1     -11.735  14.650  66.257  1.00  0.00    -0.325 A  
HETATM   10  C   UNL     1     -11.758  12.288  66.770  1.00  0.00    -0.411 A  
HETATM   11  C   UNL     1     -12.253  13.371  66.045  1.00  0.00    -0.491 A  
ENDROOT
BRANCH   8  12
HETATM   12  O   UNL     1     -10.285  11.354  68.348  1.00  0.00    -0.185 OA 
BRANCH  12  13
HETATM   13  C   UNL     1     -10.995  10.783  69.384  1.00  0.00    -0.254 A  
HETATM   14  C   UNL     1     -10.488   9.584  69.887  1.00  0.00    -0.269 A  
HETATM   15  C   UNL     1     -11.195   8.882  70.866  1.00  0.00    -0.334 A  
HETATM   16  C   UNL     1     -12.410   9.378  71.341  1.00  0.00    -0.439 A  
HETATM   17  C   UNL     1     -12.881  10.609  70.893  1.00  0.00    -0.473 A  
HETATM   18  C   UNL     1     -12.150  11.332  69.951  1.00  0.00    -0.414 A  
ENDBRANCH  12  13
ENDBRANCH   8  12
TORSDOF 2
ENDMDL
MODEL       72
REMARK 921   NORMALIZED FREE ENERGY PREDICTED BY IDOCK:   -4.81 KCAL/MOL
REMARK 922        TOTAL FREE ENERGY PREDICTED BY IDOCK:   -5.80 KCAL/MOL
REMARK 923 INTER-LIGAND FREE ENERGY PREDICTED BY IDOCK:   -5.30 KCAL/MOL
REMARK 924 INTRA-LIGAND FREE ENERGY PREDICTED BY IDOCK:   -0.50 KCAL/MOL
REMARK 927      BINDING AFFINITY PREDICTED BY RF-SCORE:    0.00 PKD
ROOT
HETATM    1  C   UNL     1     -12.907  11.907  63.344  1.00  0.00    -0.393 C  
HETATM    2  C   UNL     1     -11.611  12.639  63.673  1.00  0.00    -0.575 C  
HETATM    3  C   UNL     1     -11.847  13.741  64.710  1.00  0.00    -0.391 C  
HETATM    4  C   UNL     1     -10.512  11.653  64.049  1.00  0.00    -0.418 A  
HETATM    5  O   UNL     1     -10.715  14.392  65.081  1.00  0.00    -0.347 OA 
HETATM    6  O   UNL     1     -12.941  14.070  65.148  1.00  0.00    -0.744 OA 
HETATM    7  C   UNL     1     -10.313  11.241  65.375  1.00  0.00    -0.328 A  
HETATM    8  C   UNL     1      -9.180  10.497  65.728  1.00  0.00    -0.182 A  
HETATM    9  C   UNL     1      -9.655  11.151  63.058  1.00  0.00    -0.389 A  
HETATM   10  C   UNL     1      -8.348   9.993  64.729  1.00  0.00    -0.166 A  
HETATM   11  C   UNL     1      -8.598  10.303  63.393  1.00  0.00    -0.194 A  
ENDROOT
BRANCH   8  12
HETATM   12  O   UNL     1      -8.814  10.206  67.025  1.00  0.00    -0.135 OA 
BRANCH  12  13
HETATM   13  C   UNL     1      -9.004   8.931  67.514  1.00  0.00    -0.133 A  
HETATM   14  C   UNL     1      -7.872   8.294  68.025  1.00  0.00    -0.118 A  
HETATM   15  C   UNL     1      -7.948   6.966  68.448  1.00  0.00    -0.122 A  
HETATM   16  C   UNL     1      -9.155   6.272  68.358  1.00  0.00    -0.114 A  
HETATM   17  C   UNL     1     -10.301   6.926  67.915  1.00  0.00    -0.239 A  
HETATM   18  C   UNL     1     -10.235   8.267  67.539  1.00  0.00    -0.309 A  
ENDBRANCH  12  13
ENDBRANCH   8  12
TORSDOF 2
ENDMDL
MODEL       73
REMARK 921   NORMALIZED FREE ENERGY PREDICTED BY IDOCK:   -4.81 KCAL/MOL
REMARK 922        TOTAL FREE ENERGY PREDICTED BY IDOCK:   -5.80 KCAL/MOL
REMARK 923 INTER-LIGAND FREE ENERGY PREDICTED BY IDOCK:   -5.58 KCAL/MOL
REMARK 924 INTRA-LIGAND FREE ENERGY PREDICTED BY IDOCK:   -0.22 KCAL/MOL
REMARK 927      BINDING AFFINITY PREDICTED BY RF-SCORE:    0.00 PKD
ROOT
HETATM    1  C   UNL     1      -8.896  17.733  66.567  1.00  0.00    -0.283 C  
HETATM    2  C   UNL     1      -8.687  16.247  66.297  1.00  0.00    -0.370 C  
HETATM    3  C   UNL     1      -7.686  15.642  67.285  1.00  0.00    -0.206 C  
HETATM    4  C   UNL     1     -10.021  15.515  66.233  1.00  0.00    -0.313 A  
HETATM    5  O   UNL     1      -7.501  14.307  67.125  1.00  0.00    -0.117 OA 
HETATM    6  O   UNL     1      -7.053  16.275  68.119  1.00  0.00    -0.129 OA 
HETATM    7  C   UNL     1     -10.613  14.959  67.377  1.00  0.00    -0.263 A  
HETATM    8  C   UNL     1     -11.730  14.121  67.266  1.00  0.00    -0.392 A  
HETATM    9  C   UNL     1     -10.678  15.365  65.002  1.00  0.00    -0.460 A  
HETATM   10  C   UNL     1     -12.379  13.996  66.038  1.00  0.00    -0.504 A  
HETATM   11  C   UNL     1     -11.864  14.635  64.911  1.00  0.00    -0.403 A  
ENDROOT
BRANCH   8  12
HETATM   12  O   UNL     1     -12.262  13.393  68.309  1.00  0.00    -0.286 OA 
BRANCH  12  13
HETATM   13  C   UNL     1     -11.761  12.139  68.587  1.00  0.00    -0.330 A  
HETATM   14  C   UNL     1     -11.394  11.366  67.485  1.00  0.00    -0.362 A  
HETATM   15  C   UNL     1     -10.972  10.047  67.664  1.00  0.00    -0.297 A  
HETATM   16  C   UNL     1     -10.920   9.499  68.946  1.00  0.00    -0.116 A  
HETATM   17  C   UNL     1     -11.217  10.289  70.053  1.00  0.00    -0.376 A  
HETATM   18  C   UNL     1     -11.591  11.621  69.876  1.00  0.00    -0.366 A  
ENDBRANCH  12  13
ENDBRANCH   8  12
TORSDOF 2
ENDMDL
MODEL       74
REMARK 921   NORMALIZED FREE ENERGY PREDICTED BY IDOCK:   -4.77 KCAL/MOL
REMARK 922        TOTAL FREE ENERGY PREDICTED BY IDOCK:   -5.76 KCAL/MOL
REMARK 923 INTER-LIGAND FREE ENERGY PREDICTED BY IDOCK:   -5.46 KCAL/MOL
REMARK 924 INTRA-LIGAND FREE ENERGY PREDICTED BY IDOCK:   -0.29 KCAL/MOL
REMARK 927      BINDING AFFINITY PREDICTED BY RF-SCORE:    0.00 PKD
ROOT
HETATM    1  C   UNL     1     -12.859  13.505  65.294  1.00  0.00    -0.410 C  
HETATM    2  C   UNL     1     -11.526  13.472  66.035  1.00  0.00    -0.345 C  
HETATM    3  C   UNL     1     -10.414  12.915  65.142  1.00  0.00    -0.309 C  
HETATM    4  C   UNL     1     -11.214  14.829  66.651  1.00  0.00    -0.346 A  
HETATM    5  O   UNL     1      -9.192  12.911  65.734  1.00  0.00     0.026 OA 
HETATM    6  O   UNL     1     -10.577  12.460  64.018  1.00  0.00    -0.349 OA 
HETATM    7  C   UNL     1     -10.502  15.811  65.946  1.00  0.00    -0.366 A  
HETATM    8  C   UNL     1     -10.051  16.968  66.596  1.00  0.00    -0.306 A  
HETATM    9  C   UNL     1     -11.622  15.112  67.963  1.00  0.00    -0.345 A  
HETATM   10  C   UNL     1     -10.480  17.240  67.894  1.00  0.00    -0.382 A  
HETATM   11  C   UNL     1     -11.282  16.322  68.569  1.00  0.00    -0.359 A  
ENDROOT
BRANCH   8  12
HETATM   12  O   UNL     1      -9.198  17.893  66.033  1.00  0.00    -0.509 OA 
BRANCH  12  13
HETATM   13  C   UNL     1      -8.002  18.181  66.656  1.00  0.00    -0.251 A  
HETATM   14  C   UNL     1      -7.984  19.327  67.452  1.00  0.00    -0.292 A  
HETATM   15  C   UNL     1      -6.791  19.751  68.040  1.00  0.00    -0.297 A  
HETATM   16  C   UNL     1      -5.614  19.032  67.830  1.00  0.00    -0.179 A  
HETATM   17  C   UNL     1      -5.643  17.850  67.096  1.00  0.00    -0.155 A  
HETATM   18  C   UNL     1      -6.845  17.401  66.550  1.00  0.00    -0.289 A  
ENDBRANCH  12  13
ENDBRANCH   8  12
TORSDOF 2
ENDMDL
MODEL       75
REMARK 921   NORMALIZED FREE ENERGY PREDICTED BY IDOCK:   -4.76 KCAL/MOL
REMARK 922        TOTAL FREE ENERGY PREDICTED BY IDOCK:   -5.75 KCAL/MOL
REMARK 923 INTER-LIGAND FREE ENERGY PREDICTED BY IDOCK:   -5.24 KCAL/MOL
REMARK 924 INTRA-LIGAND FREE ENERGY PREDICTED BY IDOCK:   -0.51 KCAL/MOL
REMARK 927      BINDING AFFINITY PREDICTED BY RF-SCORE:    0.00 PKD
ROOT
HETATM    1  C   UNL     1      -8.836  18.039  65.973  1.00  0.00     0.001 C  
HETATM    2  C   UNL     1      -8.968  17.535  67.406  1.00  0.00    -0.230 C  
HETATM    3  C   UNL     1     -10.172  18.172  68.106  1.00  0.00    -0.388 C  
HETATM    4  C   UNL     1      -8.954  16.012  67.449  1.00  0.00    -0.202 A  
HETATM    5  O   UNL     1     -10.369  17.719  69.371  1.00  0.00    -0.253 OA 
HETATM    6  O   UNL     1     -10.881  19.046  67.627  1.00  0.00    -0.438 OA 
HETATM    7  C   UNL     1     -10.135  15.261  67.352  1.00  0.00    -0.232 A  
HETATM    8  C   UNL     1     -10.123  13.882  67.594  1.00  0.00    -0.241 A  
HETATM    9  C   UNL     1      -7.739  15.329  67.613  1.00  0.00    -0.185 A  
HETATM   10  C   UNL     1      -8.906  13.217  67.739  1.00  0.00    -0.197 A  
HETATM   11  C   UNL     1      -7.714  13.938  67.727  1.00  0.00    -0.177 A  
ENDROOT
BRANCH   8  12
HETATM   12  O   UNL     1     -11.256  13.101  67.697  1.00  0.00    -0.259 OA 
BRANCH  12  13
HETATM   13  C   UNL     1     -11.714  12.730  68.943  1.00  0.00    -0.326 A  
HETATM   14  C   UNL     1     -11.812  11.358  69.178  1.00  0.00    -0.413 A  
HETATM   15  C   UNL     1     -12.361  10.890  70.373  1.00  0.00    -0.436 A  
HETATM   16  C   UNL     1     -12.815  11.795  71.335  1.00  0.00    -0.440 A  
HETATM   17  C   UNL     1     -12.652  13.162  71.133  1.00  0.00    -0.403 A  
HETATM   18  C   UNL     1     -12.059  13.627  69.960  1.00  0.00    -0.417 A  
ENDBRANCH  12  13
ENDBRANCH   8  12
TORSDOF 2
ENDMDL
MODEL       76
REMARK 921   NORMALIZED FREE ENERGY PREDICTED BY IDOCK:   -4.74 KCAL/MOL
REMARK 922        TOTAL FREE ENERGY PREDICTED BY IDOCK:   -5.72 KCAL/MOL
REMARK 923 INTER-LIGAND FREE ENERGY PREDICTED BY IDOCK:   -5.61 KCAL/MOL
REMARK 924 INTRA-LIGAND FREE ENERGY PREDICTED BY IDOCK:   -0.11 KCAL/MOL
REMARK 927      BINDING AFFINITY PREDICTED BY RF-SCORE:    0.00 PKD
ROOT
HETATM    1  C   UNL     1      -9.261  15.972  68.043  1.00  0.00    -0.193 C  
HETATM    2  C   UNL     1     -10.735  15.670  67.794  1.00  0.00    -0.297 C  
HETATM    3  C   UNL     1     -10.926  14.895  66.488  1.00  0.00    -0.327 C  
HETATM    4  C   UNL     1     -11.366  15.007  69.012  1.00  0.00    -0.306 A  
HETATM    5  O   UNL     1     -12.217  14.553  66.241  1.00  0.00    -0.359 OA 
HETATM    6  O   UNL     1     -10.036  14.635  65.689  1.00  0.00    -0.323 OA 
HETATM    7  C   UNL     1     -11.374  13.613  69.170  1.00  0.00    -0.335 A  
HETATM    8  C   UNL     1     -12.131  13.017  70.187  1.00  0.00    -0.307 A  
HETATM    9  C   UNL     1     -11.977  15.796  69.998  1.00  0.00    -0.352 A  
HETATM   10  C   UNL     1     -12.718  13.815  71.168  1.00  0.00    -0.438 A  
HETATM   11  C   UNL     1     -12.624  15.203  71.084  1.00  0.00    -0.433 A  
ENDROOT
BRANCH   8  12
HETATM   12  O   UNL     1     -12.341  11.659  70.306  1.00  0.00    -0.301 OA 
BRANCH  12  13
HETATM   13  C   UNL     1     -11.455  10.781  69.716  1.00  0.00    -0.311 A  
HETATM   14  C   UNL     1     -11.531  10.673  68.327  1.00  0.00    -0.318 A  
HETATM   15  C   UNL     1     -10.744   9.735  67.655  1.00  0.00    -0.334 A  
HETATM   16  C   UNL     1      -9.883   8.904  68.372  1.00  0.00    -0.191 A  
HETATM   17  C   UNL     1      -9.753   9.059  69.749  1.00  0.00    -0.183 A  
HETATM   18  C   UNL     1     -10.503  10.029  70.413  1.00  0.00    -0.304 A  
ENDBRANCH  12  13
ENDBRANCH   8  12
TORSDOF 2
ENDMDL
MODEL       77
REMARK 921   NORMALIZED FREE ENERGY PREDICTED BY IDOCK:   -4.73 KCAL/MOL
REMARK 922        TOTAL FREE ENERGY PREDICTED BY IDOCK:   -5.71 KCAL/MOL
REMARK 923 INTER-LIGAND FREE ENERGY PREDICTED BY IDOCK:   -5.25 KCAL/MOL
REMARK 924 INTRA-LIGAND FREE ENERGY PREDICTED BY IDOCK:   -0.45 KCAL/MOL
REMARK 927      BINDING AFFINITY PREDICTED BY RF-SCORE:    0.00 PKD
ROOT
HETATM    1  C   UNL     1     -10.479  11.308  64.006  1.00  0.00    -0.440 C  
HETATM    2  C   UNL     1     -10.341  11.626  65.491  1.00  0.00    -0.309 C  
HETATM    3  C   UNL     1     -11.655  12.165  66.063  1.00  0.00    -0.358 C  
HETATM    4  C   UNL     1      -9.770  10.435  66.249  1.00  0.00    -0.256 A  
HETATM    5  O   UNL     1     -11.605  12.416  67.397  1.00  0.00    -0.328 OA 
HETATM    6  O   UNL     1     -12.659  12.409  65.408  1.00  0.00    -0.637 OA 
HETATM    7  C   UNL     1     -10.599   9.448  66.803  1.00  0.00    -0.210 A  
HETATM    8  C   UNL     1     -10.073   8.477  67.664  1.00  0.00    -0.213 A  
HETATM    9  C   UNL     1      -8.383  10.319  66.426  1.00  0.00    -0.132 A  
HETATM   10  C   UNL     1      -8.691   8.366  67.816  1.00  0.00    -0.137 A  
HETATM   11  C   UNL     1      -7.847   9.274  67.180  1.00  0.00    -0.099 A  
ENDROOT
BRANCH   8  12
HETATM   12  O   UNL     1     -10.835   7.586  68.390  1.00  0.00    -0.114 OA 
BRANCH  12  13
HETATM   13  C   UNL     1     -10.998   7.780  69.746  1.00  0.00    -0.158 A  
HETATM   14  C   UNL     1     -11.124   6.626  70.521  1.00  0.00    -0.359 A  
HETATM   15  C   UNL     1     -11.394   6.727  71.887  1.00  0.00    -0.306 A  
HETATM   16  C   UNL     1     -11.541   7.982  72.479  1.00  0.00    -0.464 A  
HETATM   17  C   UNL     1     -11.346   9.134  71.723  1.00  0.00    -0.451 A  
HETATM   18  C   UNL     1     -11.028   9.032  70.370  1.00  0.00    -0.283 A  
ENDBRANCH  12  13
ENDBRANCH   8  12
TORSDOF 2
ENDMDL
MODEL       78
REMARK 921   NORMALIZED FREE ENERGY PREDICTED BY IDOCK:   -4.73 KCAL/MOL
REMARK 922        TOTAL FREE ENERGY PREDICTED BY IDOCK:   -5.70 KCAL/MOL
REMARK 923 INTER-LIGAND FREE ENERGY PREDICTED BY IDOCK:   -5.73 KCAL/MOL
REMARK 924 INTRA-LIGAND FREE ENERGY PREDICTED BY IDOCK:    0.03 KCAL/MOL
REMARK 927      BINDING AFFINITY PREDICTED BY RF-SCORE:    0.00 PKD
ROOT
HETATM    1  C   UNL     1     -12.455  12.155  63.605  1.00  0.00    -0.658 C  
HETATM    2  C   UNL     1     -11.062  12.504  64.121  1.00  0.00    -0.426 C  
HETATM    3  C   UNL     1     -11.093  13.774  64.976  1.00  0.00    -0.346 C  
HETATM    4  C   UNL     1     -10.421  11.304  64.806  1.00  0.00    -0.384 A  
HETATM    5  O   UNL     1      -9.887  14.103  65.505  1.00  0.00    -0.300 OA 
HETATM    6  O   UNL     1     -12.076  14.482  65.147  1.00  0.00    -0.383 OA 
HETATM    7  C   UNL     1     -10.586  11.065  66.179  1.00  0.00    -0.288 A  
HETATM    8  C   UNL     1      -9.830  10.079  66.825  1.00  0.00    -0.198 A  
HETATM    9  C   UNL     1      -9.625  10.419  64.064  1.00  0.00    -0.376 A  
HETATM   10  C   UNL     1      -9.057   9.198  66.071  1.00  0.00    -0.245 A  
HETATM   11  C   UNL     1      -8.971   9.356  64.689  1.00  0.00    -0.233 A  
ENDROOT
BRANCH   8  12
HETATM   12  O   UNL     1      -9.795   9.898  68.192  1.00  0.00    -0.143 OA 
BRANCH  12  13
HETATM   13  C   UNL     1     -10.407   8.794  68.746  1.00  0.00    -0.213 A  
HETATM   14  C   UNL     1     -11.003   8.984  69.994  1.00  0.00    -0.230 A  
HETATM   15  C   UNL     1     -11.557   7.899  70.677  1.00  0.00    -0.215 A  
HETATM   16  C   UNL     1     -11.514   6.623  70.113  1.00  0.00    -0.444 A  
HETATM   17  C   UNL     1     -10.985   6.444  68.838  1.00  0.00    -0.412 A  
HETATM   18  C   UNL     1     -10.476   7.536  68.137  1.00  0.00    -0.233 A  
ENDBRANCH  12  13
ENDBRANCH   8  12
TORSDOF 2
ENDMDL
MODEL       79
REMARK 921   NORMALIZED FREE ENERGY PREDICTED BY IDOCK:   -4.71 KCAL/MOL
REMARK 922        TOTAL FREE ENERGY PREDICTED BY IDOCK:   -5.69 KCAL/MOL
REMARK 923 INTER-LIGAND FREE ENERGY PREDICTED BY IDOCK:   -5.18 KCAL/MOL
REMARK 924 INTRA-LIGAND FREE ENERGY PREDICTED BY IDOCK:   -0.51 KCAL/MOL
REMARK 927      BINDING AFFINITY PREDICTED BY RF-SCORE:    0.00 PKD
ROOT
HETATM    1  C   UNL     1     -12.256  12.712  70.481  1.00  0.00    -0.383 C  
HETATM    2  C   UNL     1     -12.249  14.107  69.864  1.00  0.00    -0.416 C  
HETATM    3  C   UNL     1     -11.737  15.149  70.862  1.00  0.00    -0.332 C  
HETATM    4  C   UNL     1     -11.516  14.106  68.529  1.00  0.00    -0.333 A  
HETATM    5  O   UNL     1     -11.660  16.403  70.348  1.00  0.00    -0.256 OA 
HETATM    6  O   UNL     1     -11.462  14.924  72.033  1.00  0.00    -0.335 OA 
HETATM    7  C   UNL     1     -10.136  14.345  68.446  1.00  0.00    -0.244 A  
HETATM    8  C   UNL     1      -9.520  14.540  67.204  1.00  0.00    -0.231 A  
HETATM    9  C   UNL     1     -12.227  13.883  67.340  1.00  0.00    -0.291 A  
HETATM   10  C   UNL     1     -10.238  14.298  66.033  1.00  0.00    -0.327 A  
HETATM   11  C   UNL     1     -11.585  13.950  66.103  1.00  0.00    -0.371 A  
ENDROOT
BRANCH   8  12
HETATM   12  O   UNL     1      -8.215  14.955  67.039  1.00  0.00    -0.206 OA 
BRANCH  12  13
HETATM   13  C   UNL     1      -7.903  16.289  67.195  1.00  0.00    -0.191 A  
HETATM   14  C   UNL     1      -7.211  16.626  68.360  1.00  0.00    -0.173 A  
HETATM   15  C   UNL     1      -6.942  17.965  68.651  1.00  0.00    -0.252 A  
HETATM   16  C   UNL     1      -7.367  18.968  67.780  1.00  0.00    -0.261 A  
HETATM   17  C   UNL     1      -7.994  18.631  66.584  1.00  0.00    -0.280 A  
HETATM   18  C   UNL     1      -8.218  17.291  66.271  1.00  0.00    -0.302 A  
ENDBRANCH  12  13
ENDBRANCH   8  12
TORSDOF 2
ENDMDL
MODEL       80
REMARK 921   NORMALIZED FREE ENERGY PREDICTED BY IDOCK:   -4.68 KCAL/MOL
REMARK 922        TOTAL FREE ENERGY PREDICTED BY IDOCK:   -5.66 KCAL/MOL
REMARK 923 INTER-LIGAND FREE ENERGY PREDICTED BY IDOCK:   -5.79 KCAL/MOL
REMARK 924 INTRA-LIGAND FREE ENERGY PREDICTED BY IDOCK:    0.14 KCAL/MOL
REMARK 927      BINDING AFFINITY PREDICTED BY RF-SCORE:    0.00 PKD
ROOT
HETATM    1  C   UNL     1     -10.927  15.667  65.192  1.00  0.00    -0.411 C  
HETATM    2  C   UNL     1     -10.072  14.971  66.245  1.00  0.00    -0.298 C  
HETATM    3  C   UNL     1     -10.085  15.746  67.566  1.00  0.00    -0.245 C  
HETATM    4  C   UNL     1     -10.460  13.504  66.377  1.00  0.00    -0.287 A  
HETATM    5  O   UNL     1      -9.380  15.143  68.558  1.00  0.00    -0.180 OA 
HETATM    6  O   UNL     1     -10.622  16.832  67.738  1.00  0.00    -0.327 OA 
HETATM    7  C   UNL     1     -11.450  13.082  67.276  1.00  0.00    -0.380 A  
HETATM    8  C   UNL     1     -11.649  11.718  67.527  1.00  0.00    -0.291 A  
HETATM    9  C   UNL     1      -9.804  12.536  65.601  1.00  0.00    -0.227 A  
HETATM   10  C   UNL     1     -11.002  10.770  66.736  1.00  0.00    -0.214 A  
HETATM   11  C   UNL     1     -10.095  11.180  65.760  1.00  0.00    -0.299 A  
ENDROOT
BRANCH   8  12
HETATM   12  O   UNL     1     -12.468  11.222  68.519  1.00  0.00    -0.434 OA 
BRANCH  12  13
HETATM   13  C   UNL     1     -11.907  10.608  69.619  1.00  0.00    -0.286 A  
HETATM   14  C   UNL     1     -10.559  10.265  69.509  1.00  0.00    -0.270 A  
HETATM   15  C   UNL     1      -9.933   9.549  70.532  1.00  0.00    -0.335 A  
HETATM   16  C   UNL     1     -10.656   9.173  71.664  1.00  0.00    -0.427 A  
HETATM   17  C   UNL     1     -11.981   9.576  71.808  1.00  0.00    -0.443 A  
HETATM   18  C   UNL     1     -12.590  10.332  70.808  1.00  0.00    -0.442 A  
ENDBRANCH  12  13
ENDBRANCH   8  12
TORSDOF 2
ENDMDL
MODEL       81
REMARK 921   NORMALIZED FREE ENERGY PREDICTED BY IDOCK:   -4.66 KCAL/MOL
REMARK 922        TOTAL FREE ENERGY PREDICTED BY IDOCK:   -5.63 KCAL/MOL
REMARK 923 INTER-LIGAND FREE ENERGY PREDICTED BY IDOCK:   -5.18 KCAL/MOL
REMARK 924 INTRA-LIGAND FREE ENERGY PREDICTED BY IDOCK:   -0.46 KCAL/MOL
REMARK 927      BINDING AFFINITY PREDICTED BY RF-SCORE:    0.00 PKD
ROOT
HETATM    1  C   UNL     1     -11.496  14.723  69.012  1.00  0.00    -0.316 C  
HETATM    2  C   UNL     1     -12.022  13.438  68.382  1.00  0.00    -0.359 C  
HETATM    3  C   UNL     1     -11.865  13.466  66.859  1.00  0.00    -0.403 C  
HETATM    4  C   UNL     1     -11.406  12.215  69.051  1.00  0.00    -0.329 A  
HETATM    5  O   UNL     1     -12.270  12.322  66.248  1.00  0.00    -0.628 OA 
HETATM    6  O   UNL     1     -11.469  14.425  66.211  1.00  0.00    -0.342 OA 
HETATM    7  C   UNL     1     -10.210  11.646  68.588  1.00  0.00    -0.215 A  
HETATM    8  C   UNL     1      -9.770  10.413  69.085  1.00  0.00    -0.220 A  
HETATM    9  C   UNL     1     -12.052  11.618  70.144  1.00  0.00    -0.414 A  
HETATM   10  C   UNL     1     -10.414   9.842  70.182  1.00  0.00    -0.338 A  
HETATM   11  C   UNL     1     -11.542  10.455  70.724  1.00  0.00    -0.450 A  
ENDROOT
BRANCH   8  12
HETATM   12  O   UNL     1      -8.711   9.699  68.564  1.00  0.00    -0.118 OA 
BRANCH  12  13
HETATM   13  C   UNL     1      -8.472   9.732  67.207  1.00  0.00    -0.125 A  
HETATM   14  C   UNL     1      -7.229  10.230  66.815  1.00  0.00    -0.105 A  
HETATM   15  C   UNL     1      -6.937  10.396  65.459  1.00  0.00    -0.134 A  
HETATM   16  C   UNL     1      -7.890  10.066  64.495  1.00  0.00    -0.145 A  
HETATM   17  C   UNL     1      -9.103   9.503  64.880  1.00  0.00    -0.276 A  
HETATM   18  C   UNL     1      -9.374   9.292  66.232  1.00  0.00    -0.257 A  
ENDBRANCH  12  13
ENDBRANCH   8  12
TORSDOF 2
ENDMDL
MODEL       82
REMARK 921   NORMALIZED FREE ENERGY PREDICTED BY IDOCK:   -4.65 KCAL/MOL
REMARK 922        TOTAL FREE ENERGY PREDICTED BY IDOCK:   -5.62 KCAL/MOL
REMARK 923 INTER-LIGAND FREE ENERGY PREDICTED BY IDOCK:   -5.12 KCAL/MOL
REMARK 924 INTRA-LIGAND FREE ENERGY PREDICTED BY IDOCK:   -0.51 KCAL/MOL
REMARK 927      BINDING AFFINITY PREDICTED BY RF-SCORE:    0.00 PKD
ROOT
HETATM    1  C   UNL     1     -10.344  11.871  67.041  1.00  0.00    -0.239 C  
HETATM    2  C   UNL     1     -10.969  10.522  67.378  1.00  0.00    -0.352 C  
HETATM    3  C   UNL     1     -10.178   9.374  66.744  1.00  0.00    -0.250 C  
HETATM    4  C   UNL     1     -11.180  10.382  68.880  1.00  0.00    -0.290 A  
HETATM    5  O   UNL     1     -10.661   8.144  67.056  1.00  0.00    -0.329 OA 
HETATM    6  O   UNL     1      -9.230   9.511  65.984  1.00  0.00    -0.168 OA 
HETATM    7  C   UNL     1     -10.191   9.840  69.715  1.00  0.00    -0.271 A  
HETATM    8  C   UNL     1     -10.477   9.535  71.052  1.00  0.00    -0.306 A  
HETATM    9  C   UNL     1     -12.396  10.780  69.455  1.00  0.00    -0.208 A  
HETATM   10  C   UNL     1     -11.685   9.952  71.611  1.00  0.00    -0.327 A  
HETATM   11  C   UNL     1     -12.635  10.592  70.818  1.00  0.00    -0.479 A  
ENDROOT
BRANCH   8  12
HETATM   12  O   UNL     1      -9.630   8.840  71.889  1.00  0.00    -0.277 OA 
BRANCH  12  13
HETATM   13  C   UNL     1      -9.925   7.535  72.223  1.00  0.00    -0.181 A  
HETATM   14  C   UNL     1      -9.796   6.595  71.199  1.00  0.00    -0.195 A  
HETATM   15  C   UNL     1     -10.170   5.268  71.417  1.00  0.00    -0.279 A  
HETATM   16  C   UNL     1     -10.676   4.879  72.658  1.00  0.00    -0.274 A  
HETATM   17  C   UNL     1     -10.739   5.799  73.702  1.00  0.00    -0.281 A  
HETATM   18  C   UNL     1     -10.319   7.112  73.497  1.00  0.00    -0.412 A  
ENDBRANCH  12  13
ENDBRANCH   8  12
TORSDOF 2
ENDMDL
MODEL       83
REMARK 921   NORMALIZED FREE ENERGY PREDICTED BY IDOCK:   -4.62 KCAL/MOL
REMARK 922        TOTAL FREE ENERGY PREDICTED BY IDOCK:   -5.59 KCAL/MOL
REMARK 923 INTER-LIGAND FREE ENERGY PREDICTED BY IDOCK:   -5.08 KCAL/MOL
REMARK 924 INTRA-LIGAND FREE ENERGY PREDICTED BY IDOCK:   -0.50 KCAL/MOL
REMARK 927      BINDING AFFINITY PREDICTED BY RF-SCORE:    0.00 PKD
ROOT
HETATM    1  C   UNL     1      -9.695   9.487  70.773  1.00  0.00    -0.289 C  
HETATM    2  C   UNL     1     -10.740   9.532  69.663  1.00  0.00    -0.257 C  
HETATM    3  C   UNL     1     -11.656  10.749  69.817  1.00  0.00    -0.317 C  
HETATM    4  C   UNL     1     -10.083   9.413  68.294  1.00  0.00    -0.210 A  
HETATM    5  O   UNL     1     -12.574  10.869  68.825  1.00  0.00    -0.317 OA 
HETATM    6  O   UNL     1     -11.630  11.533  70.756  1.00  0.00    -0.076 OA 
HETATM    7  C   UNL     1      -9.655  10.544  67.582  1.00  0.00    -0.175 A  
HETATM    8  C   UNL     1      -9.241  10.431  66.249  1.00  0.00    -0.166 A  
HETATM    9  C   UNL     1      -9.913   8.150  67.708  1.00  0.00    -0.230 A  
HETATM   10  C   UNL     1      -9.063   9.167  65.687  1.00  0.00    -0.273 A  
HETATM   11  C   UNL     1      -9.380   8.027  66.424  1.00  0.00    -0.259 A  
ENDROOT
BRANCH   8  12
HETATM   12  O   UNL     1      -8.978  11.503  65.423  1.00  0.00    -0.121 OA 
BRANCH  12  13
HETATM   13  C   UNL     1     -10.013  12.324  65.026  1.00  0.00    -0.205 A  
HETATM   14  C   UNL     1     -10.972  11.745  64.194  1.00  0.00    -0.437 A  
HETATM   15  C   UNL     1     -11.999  12.527  63.661  1.00  0.00    -0.621 A  
HETATM   16  C   UNL     1     -12.066  13.888  63.957  1.00  0.00    -0.437 A  
HETATM   17  C   UNL     1     -11.153  14.453  64.844  1.00  0.00    -0.404 A  
HETATM   18  C   UNL     1     -10.157  13.661  65.413  1.00  0.00    -0.291 A  
ENDBRANCH  12  13
ENDBRANCH   8  12
TORSDOF 2
ENDMDL
MODEL       84
REMARK 921   NORMALIZED FREE ENERGY PREDICTED BY IDOCK:   -4.61 KCAL/MOL
REMARK 922        TOTAL FREE ENERGY PREDICTED BY IDOCK:   -5.57 KCAL/MOL
REMARK 923 INTER-LIGAND FREE ENERGY PREDICTED BY IDOCK:   -5.20 KCAL/MOL
REMARK 924 INTRA-LIGAND FREE ENERGY PREDICTED BY IDOCK:   -0.37 KCAL/MOL
REMARK 927      BINDING AFFINITY PREDICTED BY RF-SCORE:    0.00 PKD
ROOT
HETATM    1  C   UNL     1     -11.067   8.665  71.146  1.00  0.00    -0.324 C  
HETATM    2  C   UNL     1     -10.100   8.032  70.151  1.00  0.00    -0.194 C  
HETATM    3  C   UNL     1     -10.698   6.768  69.529  1.00  0.00    -0.257 C  
HETATM    4  C   UNL     1      -9.617   9.060  69.136  1.00  0.00    -0.161 A  
HETATM    5  O   UNL     1      -9.900   6.190  68.594  1.00  0.00    -0.131 OA 
HETATM    6  O   UNL     1     -11.765   6.263  69.852  1.00  0.00    -0.408 OA 
HETATM    7  C   UNL     1     -10.301   9.284  67.932  1.00  0.00    -0.279 A  
HETATM    8  C   UNL     1      -9.734  10.081  66.929  1.00  0.00    -0.189 A  
HETATM    9  C   UNL     1      -8.447   9.793  69.387  1.00  0.00    -0.161 A  
HETATM   10  C   UNL     1      -8.580  10.815  67.201  1.00  0.00    -0.128 A  
HETATM   11  C   UNL     1      -7.949  10.686  68.437  1.00  0.00    -0.120 A  
ENDROOT
BRANCH   8  12
HETATM   12  O   UNL     1     -10.247  10.209  65.655  1.00  0.00    -0.275 OA 
BRANCH  12  13
HETATM   13  C   UNL     1     -10.947  11.349  65.317  1.00  0.00    -0.184 A  
HETATM   14  C   UNL     1     -11.015  11.646  63.955  1.00  0.00    -0.456 A  
HETATM   15  C   UNL     1     -11.615  12.832  63.527  1.00  0.00    -0.565 A  
HETATM   16  C   UNL     1     -12.145  13.723  64.461  1.00  0.00    -0.463 A  
HETATM   17  C   UNL     1     -12.142  13.396  65.814  1.00  0.00    -0.481 A  
HETATM   18  C   UNL     1     -11.586  12.188  66.236  1.00  0.00    -0.424 A  
ENDBRANCH  12  13
ENDBRANCH   8  12
TORSDOF 2
ENDMDL
MODEL       85
REMARK 921   NORMALIZED FREE ENERGY PREDICTED BY IDOCK:   -4.60 KCAL/MOL
REMARK 922        TOTAL FREE ENERGY PREDICTED BY IDOCK:   -5.56 KCAL/MOL
REMARK 923 INTER-LIGAND FREE ENERGY PREDICTED BY IDOCK:   -5.11 KCAL/MOL
REMARK 924 INTRA-LIGAND FREE ENERGY PREDICTED BY IDOCK:   -0.45 KCAL/MOL
REMARK 927      BINDING AFFINITY PREDICTED BY RF-SCORE:    0.00 PKD
ROOT
HETATM    1  C   UNL     1     -12.597  11.976  63.356  1.00  0.00    -0.592 C  
HETATM    2  C   UNL     1     -11.269  12.424  63.957  1.00  0.00    -0.458 C  
HETATM    3  C   UNL     1     -11.469  13.020  65.353  1.00  0.00    -0.312 C  
HETATM    4  C   UNL     1     -10.240  11.303  63.897  1.00  0.00    -0.420 A  
HETATM    5  O   UNL     1     -10.311  13.389  65.959  1.00  0.00    -0.285 OA 
HETATM    6  O   UNL     1     -12.553  13.210  65.887  1.00  0.00    -0.433 OA 
HETATM    7  C   UNL     1     -10.101  10.374  64.939  1.00  0.00    -0.382 A  
HETATM    8  C   UNL     1      -9.022   9.480  64.957  1.00  0.00    -0.213 A  
HETATM    9  C   UNL     1      -9.387  11.195  62.788  1.00  0.00    -0.377 A  
HETATM   10  C   UNL     1      -8.195   9.376  63.840  1.00  0.00    -0.165 A  
HETATM   11  C   UNL     1      -8.391  10.219  62.748  1.00  0.00    -0.177 A  
ENDROOT
BRANCH   8  12
HETATM   12  O   UNL     1      -8.708   8.662  66.022  1.00  0.00    -0.149 OA 
BRANCH  12  13
HETATM   13  C   UNL     1      -9.052   9.050  67.300  1.00  0.00    -0.133 A  
HETATM   14  C   UNL     1     -10.154   8.405  67.862  1.00  0.00    -0.254 A  
HETATM   15  C   UNL     1     -10.636   8.803  69.111  1.00  0.00    -0.200 A  
HETATM   16  C   UNL     1     -10.018   9.849  69.797  1.00  0.00    -0.275 A  
HETATM   17  C   UNL     1      -8.875  10.446  69.271  1.00  0.00    -0.166 A  
HETATM   18  C   UNL     1      -8.366  10.014  68.047  1.00  0.00    -0.117 A  
ENDBRANCH  12  13
ENDBRANCH   8  12
TORSDOF 2
ENDMDL
MODEL       86
REMARK 921   NORMALIZED FREE ENERGY PREDICTED BY IDOCK:   -4.58 KCAL/MOL
REMARK 922        TOTAL FREE ENERGY PREDICTED BY IDOCK:   -5.54 KCAL/MOL
REMARK 923 INTER-LIGAND FREE ENERGY PREDICTED BY IDOCK:   -5.12 KCAL/MOL
REMARK 924 INTRA-LIGAND FREE ENERGY PREDICTED BY IDOCK:   -0.41 KCAL/MOL
REMARK 927      BINDING AFFINITY PREDICTED BY RF-SCORE:    0.00 PKD
ROOT
HETATM    1  C   UNL     1     -13.826   9.048  71.439  1.00  0.00    -0.302 C  
HETATM    2  C   UNL     1     -12.535   9.812  71.711  1.00  0.00    -0.485 C  
HETATM    3  C   UNL     1     -11.319   9.045  71.182  1.00  0.00    -0.307 C  
HETATM    4  C   UNL     1     -12.636  11.246  71.209  1.00  0.00    -0.487 A  
HETATM    5  O   UNL     1     -10.144   9.705  71.351  1.00  0.00    -0.170 OA 
HETATM    6  O   UNL     1     -11.353   7.923  70.696  1.00  0.00    -0.273 OA 
HETATM    7  C   UNL     1     -12.263  11.597  69.903  1.00  0.00    -0.310 A  
HETATM    8  C   UNL     1     -12.173  12.943  69.525  1.00  0.00    -0.119 A  
HETATM    9  C   UNL     1     -13.092  12.257  72.068  1.00  0.00    -0.461 A  
HETATM   10  C   UNL     1     -12.645  13.933  70.386  1.00  0.00    -0.350 A  
HETATM   11  C   UNL     1     -13.124  13.588  71.648  1.00  0.00    -0.459 A  
ENDROOT
BRANCH   8  12
HETATM   12  O   UNL     1     -11.646  13.382  68.329  1.00  0.00    -0.299 OA 
BRANCH  12  13
HETATM   13  C   UNL     1     -10.306  13.189  68.067  1.00  0.00    -0.238 A  
HETATM   14  C   UNL     1      -9.975  12.017  67.387  1.00  0.00    -0.200 A  
HETATM   15  C   UNL     1      -8.636  11.689  67.168  1.00  0.00    -0.164 A  
HETATM   16  C   UNL     1      -7.625  12.533  67.631  1.00  0.00    -0.145 A  
HETATM   17  C   UNL     1      -7.954  13.738  68.245  1.00  0.00    -0.146 A  
HETATM   18  C   UNL     1      -9.292  14.087  68.420  1.00  0.00    -0.210 A  
ENDBRANCH  12  13
ENDBRANCH   8  12
TORSDOF 2
ENDMDL
MODEL       87
REMARK 921   NORMALIZED FREE ENERGY PREDICTED BY IDOCK:   -4.55 KCAL/MOL
REMARK 922        TOTAL FREE ENERGY PREDICTED BY IDOCK:   -5.51 KCAL/MOL
REMARK 923 INTER-LIGAND FREE ENERGY PREDICTED BY IDOCK:   -5.07 KCAL/MOL
REMARK 924 INTRA-LIGAND FREE ENERGY PREDICTED BY IDOCK:   -0.44 KCAL/MOL
REMARK 927      BINDING AFFINITY PREDICTED BY RF-SCORE:    0.00 PKD
ROOT
HETATM    1  C   UNL     1      -8.837  10.883  65.956  1.00  0.00    -0.198 C  
HETATM    2  C   UNL     1      -9.386  11.413  67.276  1.00  0.00    -0.173 C  
HETATM    3  C   UNL     1     -10.867  11.781  67.149  1.00  0.00    -0.258 C  
HETATM    4  C   UNL     1      -9.076  10.452  68.417  1.00  0.00    -0.147 A  
HETATM    5  O   UNL     1     -11.423  12.210  68.311  1.00  0.00    -0.259 OA 
HETATM    6  O   UNL     1     -11.511  11.755  66.109  1.00  0.00    -0.339 OA 
HETATM    7  C   UNL     1      -9.954   9.415  68.766  1.00  0.00    -0.191 A  
HETATM    8  C   UNL     1      -9.751   8.674  69.937  1.00  0.00    -0.173 A  
HETATM    9  C   UNL     1      -7.897  10.608  69.161  1.00  0.00    -0.142 A  
HETATM   10  C   UNL     1      -8.566   8.831  70.655  1.00  0.00    -0.203 A  
HETATM   11  C   UNL     1      -7.630   9.784  70.255  1.00  0.00    -0.184 A  
ENDROOT
BRANCH   8  12
HETATM   12  O   UNL     1     -10.653   7.766  70.449  1.00  0.00    -0.218 OA 
BRANCH  12  13
HETATM   13  C   UNL     1     -11.779   8.222  71.103  1.00  0.00    -0.280 A  
HETATM   14  C   UNL     1     -12.833   7.315  71.215  1.00  0.00    -0.391 A  
HETATM   15  C   UNL     1     -14.048   7.720  71.771  1.00  0.00    -0.519 A  
HETATM   16  C   UNL     1     -14.211   9.034  72.213  1.00  0.00    -0.432 A  
HETATM   17  C   UNL     1     -13.138   9.920  72.167  1.00  0.00    -0.497 A  
HETATM   18  C   UNL     1     -11.910   9.500  71.657  1.00  0.00    -0.468 A  
ENDBRANCH  12  13
ENDBRANCH   8  12
TORSDOF 2
ENDMDL
MODEL       88
REMARK 921   NORMALIZED FREE ENERGY PREDICTED BY IDOCK:   -4.55 KCAL/MOL
REMARK 922        TOTAL FREE ENERGY PREDICTED BY IDOCK:   -5.50 KCAL/MOL
REMARK 923 INTER-LIGAND FREE ENERGY PREDICTED BY IDOCK:   -5.02 KCAL/MOL
REMARK 924 INTRA-LIGAND FREE ENERGY PREDICTED BY IDOCK:   -0.48 KCAL/MOL
REMARK 927      BINDING AFFINITY PREDICTED BY RF-SCORE:    0.00 PKD
ROOT
HETATM    1  C   UNL     1     -11.065  15.128  71.265  1.00  0.00    -0.257 C  
HETATM    2  C   UNL     1     -11.726  14.853  69.919  1.00  0.00    -0.347 C  
HETATM    3  C   UNL     1     -11.388  15.948  68.904  1.00  0.00    -0.377 C  
HETATM    4  C   UNL     1     -11.416  13.440  69.441  1.00  0.00    -0.333 A  
HETATM    5  O   UNL     1     -11.909  15.726  67.670  1.00  0.00    -0.039 OA 
HETATM    6  O   UNL     1     -10.757  16.966  69.153  1.00  0.00    -0.330 OA 
HETATM    7  C   UNL     1     -10.290  13.160  68.653  1.00  0.00    -0.207 A  
HETATM    8  C   UNL     1     -10.132  11.901  68.059  1.00  0.00    -0.195 A  
HETATM    9  C   UNL     1     -12.280  12.385  69.772  1.00  0.00    -0.198 A  
HETATM   10  C   UNL     1     -10.990  10.860  68.411  1.00  0.00    -0.288 A  
HETATM   11  C   UNL     1     -12.051  11.098  69.283  1.00  0.00    -0.377 A  
ENDROOT
BRANCH   8  12
HETATM   12  O   UNL     1      -9.159  11.596  67.131  1.00  0.00    -0.164 OA 
BRANCH  12  13
HETATM   13  C   UNL     1      -9.515  11.397  65.814  1.00  0.00    -0.233 A  
HETATM   14  C   UNL     1      -8.880  10.342  65.158  1.00  0.00    -0.205 A  
HETATM   15  C   UNL     1      -9.102  10.129  63.796  1.00  0.00    -0.293 A  
HETATM   16  C   UNL     1      -9.958  10.973  63.088  1.00  0.00    -0.382 A  
HETATM   17  C   UNL     1     -10.648  11.982  63.755  1.00  0.00    -0.478 A  
HETATM   18  C   UNL     1     -10.462  12.163  65.125  1.00  0.00    -0.317 A  
ENDBRANCH  12  13
ENDBRANCH   8  12
TORSDOF 2
ENDMDL
MODEL       89
REMARK 921   NORMALIZED FREE ENERGY PREDICTED BY IDOCK:   -4.54 KCAL/MOL
REMARK 922        TOTAL FREE ENERGY PREDICTED BY IDOCK:   -5.50 KCAL/MOL
REMARK 923 INTER-LIGAND FREE ENERGY PREDICTED BY IDOCK:   -4.98 KCAL/MOL
REMARK 924 INTRA-LIGAND FREE ENERGY PREDICTED BY IDOCK:   -0.52 KCAL/MOL
REMARK 927      BINDING AFFINITY PREDICTED BY RF-SCORE:    0.00 PKD
ROOT
HETATM    1  C   UNL     1      -7.444  10.188  68.965  1.00  0.00    -0.091 C  
HETATM    2  C   UNL     1      -8.810   9.586  68.654  1.00  0.00    -0.132 C  
HETATM    3  C   UNL     1      -9.565   9.238  69.939  1.00  0.00    -0.199 C  
HETATM    4  C   UNL     1      -9.588  10.476  67.693  1.00  0.00    -0.175 A  
HETATM    5  O   UNL     1     -10.812   8.746  69.722  1.00  0.00    -0.235 OA 
HETATM    6  O   UNL     1      -9.107   9.329  71.070  1.00  0.00    -0.239 OA 
HETATM    7  C   UNL     1     -10.432  11.497  68.155  1.00  0.00    -0.216 A  
HETATM    8  C   UNL     1     -11.289  12.167  67.272  1.00  0.00    -0.334 A  
HETATM    9  C   UNL     1      -9.487  10.268  66.309  1.00  0.00    -0.223 A  
HETATM   10  C   UNL     1     -11.163  11.960  65.899  1.00  0.00    -0.373 A  
HETATM   11  C   UNL     1     -10.248  11.025  65.417  1.00  0.00    -0.333 A  
ENDROOT
BRANCH   8  12
HETATM   12  O   UNL     1     -12.272  13.051  67.663  1.00  0.00    -0.263 OA 
BRANCH  12  13
HETATM   13  C   UNL     1     -11.976  14.030  68.588  1.00  0.00    -0.354 A  
HETATM   14  C   UNL     1     -11.366  15.182  68.090  1.00  0.00    -0.345 A  
HETATM   15  C   UNL     1     -10.939  16.181  68.966  1.00  0.00    -0.312 A  
HETATM   16  C   UNL     1     -11.119  16.029  70.342  1.00  0.00    -0.376 A  
HETATM   17  C   UNL     1     -11.791  14.914  70.835  1.00  0.00    -0.375 A  
HETATM   18  C   UNL     1     -12.260  13.940  69.955  1.00  0.00    -0.408 A  
ENDBRANCH  12  13
ENDBRANCH   8  12
TORSDOF 2
ENDMDL
MODEL       90
REMARK 921   NORMALIZED FREE ENERGY PREDICTED BY IDOCK:   -4.52 KCAL/MOL
REMARK 922        TOTAL FREE ENERGY PREDICTED BY IDOCK:   -5.48 KCAL/MOL
REMARK 923 INTER-LIGAND FREE ENERGY PREDICTED BY IDOCK:   -5.05 KCAL/MOL
REMARK 924 INTRA-LIGAND FREE ENERGY PREDICTED BY IDOCK:   -0.43 KCAL/MOL
REMARK 927      BINDING AFFINITY PREDICTED BY RF-SCORE:    0.00 PKD
ROOT
HETATM    1  C   UNL     1     -10.194   7.894  73.015  1.00  0.00    -0.394 C  
HETATM    2  C   UNL     1     -11.289   7.053  72.369  1.00  0.00    -0.307 C  
HETATM    3  C   UNL     1     -12.593   7.846  72.246  1.00  0.00    -0.194 C  
HETATM    4  C   UNL     1     -10.804   6.442  71.061  1.00  0.00    -0.314 A  
HETATM    5  O   UNL     1     -13.591   7.162  71.628  1.00  0.00    -0.377 OA 
HETATM    6  O   UNL     1     -12.777   8.970  72.694  1.00  0.00    -0.351 OA 
HETATM    7  C   UNL     1     -10.953   7.109  69.836  1.00  0.00    -0.278 A  
HETATM    8  C   UNL     1     -10.686   6.450  68.629  1.00  0.00    -0.285 A  
HETATM    9  C   UNL     1     -10.210   5.171  71.061  1.00  0.00    -0.295 A  
HETATM   10  C   UNL     1     -10.081   5.194  68.648  1.00  0.00    -0.220 A  
HETATM   11  C   UNL     1      -9.824   4.564  69.865  1.00  0.00    -0.298 A  
ENDROOT
BRANCH   8  12
HETATM   12  O   UNL     1     -10.975   6.964  67.382  1.00  0.00    -0.307 OA 
BRANCH  12  13
HETATM   13  C   UNL     1     -10.304   8.084  66.938  1.00  0.00    -0.338 A  
HETATM   14  C   UNL     1      -9.213   7.853  66.099  1.00  0.00    -0.208 A  
HETATM   15  C   UNL     1      -8.414   8.920  65.682  1.00  0.00    -0.171 A  
HETATM   16  C   UNL     1      -8.703  10.217  66.106  1.00  0.00    -0.163 A  
HETATM   17  C   UNL     1      -9.832  10.458  66.884  1.00  0.00    -0.236 A  
HETATM   18  C   UNL     1     -10.657   9.399  67.259  1.00  0.00    -0.314 A  
ENDBRANCH  12  13
ENDBRANCH   8  12
TORSDOF 2
ENDMDL
MODEL       91
REMARK 921   NORMALIZED FREE ENERGY PREDICTED BY IDOCK:   -4.52 KCAL/MOL
REMARK 922        TOTAL FREE ENERGY PREDICTED BY IDOCK:   -5.47 KCAL/MOL
REMARK 923 INTER-LIGAND FREE ENERGY PREDICTED BY IDOCK:   -5.03 KCAL/MOL
REMARK 924 INTRA-LIGAND FREE ENERGY PREDICTED BY IDOCK:   -0.43 KCAL/MOL
REMARK 927      BINDING AFFINITY PREDICTED BY RF-SCORE:    0.00 PKD
ROOT
HETATM    1  C   UNL     1     -11.686  15.502  68.908  1.00  0.00    -0.385 C  
HETATM    2  C   UNL     1     -11.140  15.701  67.498  1.00  0.00    -0.289 C  
HETATM    3  C   UNL     1      -9.725  16.286  67.532  1.00  0.00    -0.234 C  
HETATM    4  C   UNL     1     -11.268  14.422  66.681  1.00  0.00    -0.340 A  
HETATM    5  O   UNL     1      -9.168  16.436  66.303  1.00  0.00    -0.269 OA 
HETATM    6  O   UNL     1      -9.138  16.646  68.543  1.00  0.00    -0.218 OA 
HETATM    7  C   UNL     1     -10.250  13.457  66.660  1.00  0.00    -0.274 A  
HETATM    8  C   UNL     1     -10.298  12.392  65.751  1.00  0.00    -0.263 A  
HETATM    9  C   UNL     1     -12.417  14.199  65.908  1.00  0.00    -0.479 A  
HETATM   10  C   UNL     1     -11.454  12.175  65.003  1.00  0.00    -0.377 A  
HETATM   11  C   UNL     1     -12.521  13.067  65.097  1.00  0.00    -0.552 A  
ENDROOT
BRANCH   8  12
HETATM   12  O   UNL     1      -9.263  11.505  65.538  1.00  0.00    -0.211 OA 
BRANCH  12  13
HETATM   13  C   UNL     1      -9.150  10.389  66.339  1.00  0.00    -0.157 A  
HETATM   14  C   UNL     1      -8.301  10.508  67.440  1.00  0.00    -0.121 A  
HETATM   15  C   UNL     1      -8.045   9.399  68.249  1.00  0.00    -0.109 A  
HETATM   16  C   UNL     1      -8.636   8.169  67.957  1.00  0.00    -0.129 A  
HETATM   17  C   UNL     1      -9.539   8.066  66.902  1.00  0.00    -0.265 A  
HETATM   18  C   UNL     1      -9.831   9.186  66.124  1.00  0.00    -0.363 A  
ENDBRANCH  12  13
ENDBRANCH   8  12
TORSDOF 2
ENDMDL
MODEL       92
REMARK 921   NORMALIZED FREE ENERGY PREDICTED BY IDOCK:   -4.50 KCAL/MOL
REMARK 922        TOTAL FREE ENERGY PREDICTED BY IDOCK:   -5.45 KCAL/MOL
REMARK 923 INTER-LIGAND FREE ENERGY PREDICTED BY IDOCK:   -5.08 KCAL/MOL
REMARK 924 INTRA-LIGAND FREE ENERGY PREDICTED BY IDOCK:   -0.38 KCAL/MOL
REMARK 927      BINDING AFFINITY PREDICTED BY RF-SCORE:    0.00 PKD
ROOT
HETATM    1  C   UNL     1     -11.315  14.871  72.802  1.00  0.00     0.183 C  
HETATM    2  C   UNL     1     -12.274  14.669  71.634  1.00  0.00    -0.411 C  
HETATM    3  C   UNL     1     -13.527  15.534  71.794  1.00  0.00    -0.483 C  
HETATM    4  C   UNL     1     -11.555  14.850  70.304  1.00  0.00    -0.332 A  
HETATM    5  O   UNL     1     -14.395  15.434  70.754  1.00  0.00    -0.276 OA 
HETATM    6  O   UNL     1     -13.786  16.223  72.772  1.00  0.00    -0.288 OA 
HETATM    7  C   UNL     1     -11.467  16.103  69.678  1.00  0.00    -0.290 A  
HETATM    8  C   UNL     1     -10.982  16.213  68.369  1.00  0.00    -0.341 A  
HETATM    9  C   UNL     1     -10.978  13.742  69.665  1.00  0.00    -0.017 A  
HETATM   10  C   UNL     1     -10.398  15.105  67.755  1.00  0.00    -0.243 A  
HETATM   11  C   UNL     1     -10.378  13.876  68.411  1.00  0.00    -0.249 A  
ENDROOT
BRANCH   8  12
HETATM   12  O   UNL     1     -11.029  17.368  67.617  1.00  0.00    -0.294 OA 
BRANCH  12  13
HETATM   13  C   UNL     1      -9.906  18.163  67.525  1.00  0.00    -0.313 A  
HETATM   14  C   UNL     1      -9.859  19.035  66.436  1.00  0.00    -0.422 A  
HETATM   15  C   UNL     1      -8.717  19.804  66.205  1.00  0.00    -0.403 A  
HETATM   16  C   UNL     1      -7.620  19.701  67.062  1.00  0.00    -0.274 A  
HETATM   17  C   UNL     1      -7.692  18.887  68.188  1.00  0.00    -0.316 A  
HETATM   18  C   UNL     1      -8.851  18.155  68.444  1.00  0.00    -0.305 A  
ENDBRANCH  12  13
ENDBRANCH   8  12
TORSDOF 2
ENDMDL
MODEL       93
REMARK 921   NORMALIZED FREE ENERGY PREDICTED BY IDOCK:   -4.49 KCAL/MOL
REMARK 922        TOTAL FREE ENERGY PREDICTED BY IDOCK:   -5.44 KCAL/MOL
REMARK 923 INTER-LIGAND FREE ENERGY PREDICTED BY IDOCK:   -5.11 KCAL/MOL
REMARK 924 INTRA-LIGAND FREE ENERGY PREDICTED BY IDOCK:   -0.34 KCAL/MOL
REMARK 927      BINDING AFFINITY PREDICTED BY RF-SCORE:    0.00 PKD
ROOT
HETATM    1  C   UNL     1      -7.471  19.384  69.063  1.00  0.00    -0.385 C  
HETATM    2  C   UNL     1      -7.273  19.326  67.552  1.00  0.00    -0.246 C  
HETATM    3  C   UNL     1      -6.097  18.418  67.184  1.00  0.00    -0.164 C  
HETATM    4  C   UNL     1      -8.577  18.977  66.847  1.00  0.00    -0.307 A  
HETATM    5  O   UNL     1      -5.907  18.288  65.846  1.00  0.00    -0.165 OA 
HETATM    6  O   UNL     1      -5.344  17.883  67.988  1.00  0.00    -0.144 OA 
HETATM    7  C   UNL     1      -8.942  17.648  66.588  1.00  0.00    -0.283 A  
HETATM    8  C   UNL     1     -10.038  17.357  65.766  1.00  0.00    -0.123 A  
HETATM    9  C   UNL     1      -9.436  20.001  66.419  1.00  0.00    -0.512 A  
HETATM   10  C   UNL     1     -10.889  18.385  65.363  1.00  0.00     0.304 A  
HETATM   11  C   UNL     1     -10.599  19.704  65.707  1.00  0.00    -0.537 A  
ENDROOT
BRANCH   8  12
HETATM   12  O   UNL     1     -10.358  16.093  65.315  1.00  0.00    -0.513 OA 
BRANCH  12  13
HETATM   13  C   UNL     1     -10.817  15.149  66.210  1.00  0.00    -0.333 A  
HETATM   14  C   UNL     1     -10.804  13.826  65.767  1.00  0.00    -0.277 A  
HETATM   15  C   UNL     1     -11.344  12.816  66.565  1.00  0.00    -0.369 A  
HETATM   16  C   UNL     1     -11.899  13.129  67.807  1.00  0.00    -0.392 A  
HETATM   17  C   UNL     1     -11.848  14.436  68.281  1.00  0.00    -0.361 A  
HETATM   18  C   UNL     1     -11.265  15.436  67.504  1.00  0.00    -0.302 A  
ENDBRANCH  12  13
ENDBRANCH   8  12
TORSDOF 2
ENDMDL
MODEL       94
REMARK 921   NORMALIZED FREE ENERGY PREDICTED BY IDOCK:   -4.49 KCAL/MOL
REMARK 922        TOTAL FREE ENERGY PREDICTED BY IDOCK:   -5.44 KCAL/MOL
REMARK 923 INTER-LIGAND FREE ENERGY PREDICTED BY IDOCK:   -5.02 KCAL/MOL
REMARK 924 INTRA-LIGAND FREE ENERGY PREDICTED BY IDOCK:   -0.43 KCAL/MOL
REMARK 927      BINDING AFFINITY PREDICTED BY RF-SCORE:    0.00 PKD
ROOT
HETATM    1  C   UNL     1     -10.009   4.480  70.528  1.00  0.00    -0.278 C  
HETATM    2  C   UNL     1     -10.221   5.289  71.804  1.00  0.00    -0.269 C  
HETATM    3  C   UNL     1      -8.885   5.633  72.467  1.00  0.00    -0.130 C  
HETATM    4  C   UNL     1     -11.117   6.492  71.540  1.00  0.00    -0.310 A  
HETATM    5  O   UNL     1      -9.012   6.399  73.582  1.00  0.00    -0.123 OA 
HETATM    6  O   UNL     1      -7.791   5.234  72.092  1.00  0.00    -0.101 OA 
HETATM    7  C   UNL     1     -10.589   7.732  71.152  1.00  0.00    -0.235 A  
HETATM    8  C   UNL     1     -11.403   8.872  71.111  1.00  0.00    -0.291 A  
HETATM    9  C   UNL     1     -12.505   6.380  71.708  1.00  0.00    -0.199 A  
HETATM   10  C   UNL     1     -12.783   8.739  71.264  1.00  0.00    -0.267 A  
HETATM   11  C   UNL     1     -13.335   7.490  71.541  1.00  0.00    -0.409 A  
ENDROOT
BRANCH   8  12
HETATM   12  O   UNL     1     -10.936  10.154  70.917  1.00  0.00    -0.318 OA 
BRANCH  12  13
HETATM   13  C   UNL     1     -11.208  10.804  69.731  1.00  0.00    -0.297 A  
HETATM   14  C   UNL     1     -10.876  10.115  68.564  1.00  0.00    -0.278 A  
HETATM   15  C   UNL     1     -11.021  10.735  67.321  1.00  0.00    -0.359 A  
HETATM   16  C   UNL     1     -11.497  12.044  67.244  1.00  0.00    -0.403 A  
HETATM   17  C   UNL     1     -11.896  12.707  68.402  1.00  0.00    -0.347 A  
HETATM   18  C   UNL     1     -11.796  12.070  69.638  1.00  0.00    -0.401 A  
ENDBRANCH  12  13
ENDBRANCH   8  12
TORSDOF 2
ENDMDL
MODEL       95
REMARK 921   NORMALIZED FREE ENERGY PREDICTED BY IDOCK:   -4.48 KCAL/MOL
REMARK 922        TOTAL FREE ENERGY PREDICTED BY IDOCK:   -5.43 KCAL/MOL
REMARK 923 INTER-LIGAND FREE ENERGY PREDICTED BY IDOCK:   -4.99 KCAL/MOL
REMARK 924 INTRA-LIGAND FREE ENERGY PREDICTED BY IDOCK:   -0.43 KCAL/MOL
REMARK 927      BINDING AFFINITY PREDICTED BY RF-SCORE:    0.00 PKD
ROOT
HETATM    1  C   UNL     1      -7.714  15.142  69.340  1.00  0.00    -0.213 C  
HETATM    2  C   UNL     1      -7.750  14.346  68.039  1.00  0.00    -0.140 C  
HETATM    3  C   UNL     1      -6.931  13.058  68.158  1.00  0.00    -0.105 C  
HETATM    4  C   UNL     1      -9.184  14.134  67.573  1.00  0.00    -0.192 A  
HETATM    5  O   UNL     1      -6.971  12.282  67.044  1.00  0.00    -0.125 OA 
HETATM    6  O   UNL     1      -6.250  12.745  69.126  1.00  0.00    -0.085 OA 
HETATM    7  C   UNL     1      -9.932  13.017  67.974  1.00  0.00    -0.233 A  
HETATM    8  C   UNL     1     -11.168  12.736  67.379  1.00  0.00    -0.294 A  
HETATM    9  C   UNL     1      -9.780  15.059  66.702  1.00  0.00    -0.273 A  
HETATM   10  C   UNL     1     -11.753  13.674  66.528  1.00  0.00    -0.414 A  
HETATM   11  C   UNL     1     -11.067  14.844  66.207  1.00  0.00    -0.340 A  
ENDROOT
BRANCH   8  12
HETATM   12  O   UNL     1     -11.882  11.573  67.580  1.00  0.00    -0.605 OA 
BRANCH  12  13
HETATM   13  C   UNL     1     -11.653  10.824  68.715  1.00  0.00    -0.280 A  
HETATM   14  C   UNL     1     -12.425  11.149  69.831  1.00  0.00    -0.257 A  
HETATM   15  C   UNL     1     -12.192  10.512  71.052  1.00  0.00    -0.505 A  
HETATM   16  C   UNL     1     -11.185   9.553  71.158  1.00  0.00    -0.446 A  
HETATM   17  C   UNL     1     -10.462   9.176  70.029  1.00  0.00    -0.244 A  
HETATM   18  C   UNL     1     -10.729   9.777  68.800  1.00  0.00    -0.243 A  
ENDBRANCH  12  13
ENDBRANCH   8  12
TORSDOF 2
ENDMDL
MODEL       96
REMARK 921   NORMALIZED FREE ENERGY PREDICTED BY IDOCK:   -4.47 KCAL/MOL
REMARK 922        TOTAL FREE ENERGY PREDICTED BY IDOCK:   -5.42 KCAL/MOL
REMARK 923 INTER-LIGAND FREE ENERGY PREDICTED BY IDOCK:   -5.58 KCAL/MOL
REMARK 924 INTRA-LIGAND FREE ENERGY PREDICTED BY IDOCK:    0.16 KCAL/MOL
REMARK 927      BINDING AFFINITY PREDICTED BY RF-SCORE:    0.00 PKD
ROOT
HETATM    1  C   UNL     1     -13.056  12.094  63.142  1.00  0.00     0.174 C  
HETATM    2  C   UNL     1     -11.703  12.726  63.449  1.00  0.00    -0.556 C  
HETATM    3  C   UNL     1     -11.847  13.878  64.448  1.00  0.00    -0.429 C  
HETATM    4  C   UNL     1     -10.690  11.666  63.859  1.00  0.00    -0.459 A  
HETATM    5  O   UNL     1     -10.664  14.446  64.798  1.00  0.00    -0.408 OA 
HETATM    6  O   UNL     1     -12.909  14.311  64.873  1.00  0.00    -0.680 OA 
HETATM    7  C   UNL     1     -10.524  11.285  65.199  1.00  0.00    -0.351 A  
HETATM    8  C   UNL     1      -9.455  10.462  65.578  1.00  0.00    -0.215 A  
HETATM    9  C   UNL     1      -9.878  11.062  62.887  1.00  0.00    -0.319 A  
HETATM   10  C   UNL     1      -8.669   9.858  64.598  1.00  0.00    -0.215 A  
HETATM   11  C   UNL     1      -8.894  10.142  63.252  1.00  0.00    -0.238 A  
ENDROOT
BRANCH   8  12
HETATM   12  O   UNL     1      -9.112  10.186  66.885  1.00  0.00    -0.141 OA 
BRANCH  12  13
HETATM   13  C   UNL     1      -9.931  10.617  67.907  1.00  0.00    -0.166 A  
HETATM   14  C   UNL     1     -10.163   9.703  68.936  1.00  0.00    -0.214 A  
HETATM   15  C   UNL     1     -11.059  10.015  69.960  1.00  0.00    -0.350 A  
HETATM   16  C   UNL     1     -11.726  11.240  69.956  1.00  0.00    -0.428 A  
HETATM   17  C   UNL     1     -11.443  12.182  68.970  1.00  0.00    -0.351 A  
HETATM   18  C   UNL     1     -10.512  11.888  67.975  1.00  0.00    -0.228 A  
ENDBRANCH  12  13
ENDBRANCH   8  12
TORSDOF 2
ENDMDL
MODEL       97
REMARK 921   NORMALIZED FREE ENERGY PREDICTED BY IDOCK:   -4.45 KCAL/MOL
REMARK 922        TOTAL FREE ENERGY PREDICTED BY IDOCK:   -5.39 KCAL/MOL
REMARK 923 INTER-LIGAND FREE ENERGY PREDICTED BY IDOCK:   -4.97 KCAL/MOL
REMARK 924 INTRA-LIGAND FREE ENERGY PREDICTED BY IDOCK:   -0.42 KCAL/MOL
REMARK 927      BINDING AFFINITY PREDICTED BY RF-SCORE:    0.00 PKD
ROOT
HETATM    1  C   UNL     1      -8.848   7.692  69.410  1.00  0.00    -0.139 C  
HETATM    2  C   UNL     1      -9.200   7.162  68.024  1.00  0.00    -0.130 C  
HETATM    3  C   UNL     1     -10.601   6.546  68.009  1.00  0.00    -0.251 C  
HETATM    4  C   UNL     1      -8.975   8.230  66.962  1.00  0.00    -0.159 A  
HETATM    5  O   UNL     1     -10.989   6.103  66.785  1.00  0.00    -0.333 OA 
HETATM    6  O   UNL     1     -11.315   6.399  68.992  1.00  0.00    -0.355 OA 
HETATM    7  C   UNL     1      -9.989   9.126  66.592  1.00  0.00    -0.343 A  
HETATM    8  C   UNL     1      -9.830   9.962  65.479  1.00  0.00    -0.311 A  
HETATM    9  C   UNL     1      -7.735   8.319  66.311  1.00  0.00    -0.097 A  
HETATM   10  C   UNL     1      -8.586  10.050  64.855  1.00  0.00    -0.184 A  
HETATM   11  C   UNL     1      -7.534   9.243  65.285  1.00  0.00    -0.098 A  
ENDROOT
BRANCH   8  12
HETATM   12  O   UNL     1     -10.834  10.738  64.940  1.00  0.00    -0.191 OA 
BRANCH  12  13
HETATM   13  C   UNL     1     -10.926  12.069  65.290  1.00  0.00    -0.308 A  
HETATM   14  C   UNL     1     -11.517  12.340  66.524  1.00  0.00    -0.438 A  
HETATM   15  C   UNL     1     -11.744  13.660  66.916  1.00  0.00    -0.423 A  
HETATM   16  C   UNL     1     -11.383  14.712  66.073  1.00  0.00    -0.344 A  
HETATM   17  C   UNL     1     -10.729  14.446  64.873  1.00  0.00    -0.444 A  
HETATM   18  C   UNL     1     -10.459  13.129  64.505  1.00  0.00    -0.425 A  
ENDBRANCH  12  13
ENDBRANCH   8  12
TORSDOF 2
ENDMDL
MODEL       98
REMARK 921   NORMALIZED FREE ENERGY PREDICTED BY IDOCK:   -4.44 KCAL/MOL
REMARK 922        TOTAL FREE ENERGY PREDICTED BY IDOCK:   -5.38 KCAL/MOL
REMARK 923 INTER-LIGAND FREE ENERGY PREDICTED BY IDOCK:   -5.53 KCAL/MOL
REMARK 924 INTRA-LIGAND FREE ENERGY PREDICTED BY IDOCK:    0.15 KCAL/MOL
REMARK 927      BINDING AFFINITY PREDICTED BY RF-SCORE:    0.00 PKD
ROOT
HETATM    1  C   UNL     1      -7.829   8.712  65.844  1.00  0.00    -0.102 C  
HETATM    2  C   UNL     1      -9.341   8.565  65.978  1.00  0.00    -0.266 C  
HETATM    3  C   UNL     1      -9.701   7.417  66.926  1.00  0.00    -0.205 C  
HETATM    4  C   UNL     1      -9.985   9.898  66.336  1.00  0.00    -0.309 A  
HETATM    5  O   UNL     1     -11.037   7.275  67.124  1.00  0.00    -0.295 OA 
HETATM    6  O   UNL     1      -8.898   6.648  67.435  1.00  0.00    -0.117 OA 
HETATM    7  C   UNL     1     -10.166  10.294  67.670  1.00  0.00    -0.247 A  
HETATM    8  C   UNL     1     -10.937  11.421  67.980  1.00  0.00    -0.237 A  
HETATM    9  C   UNL     1     -10.435  10.752  65.319  1.00  0.00    -0.282 A  
HETATM   10  C   UNL     1     -11.362  12.268  66.957  1.00  0.00    -0.395 A  
HETATM   11  C   UNL     1     -11.093  11.944  65.628  1.00  0.00    -0.362 A  
ENDROOT
BRANCH   8  12
HETATM   12  O   UNL     1     -11.315  11.778  69.257  1.00  0.00    -0.251 OA 
BRANCH  12  13
HETATM   13  C   UNL     1     -11.646  10.796  70.166  1.00  0.00    -0.337 A  
HETATM   14  C   UNL     1     -12.788  11.029  70.933  1.00  0.00    -0.393 A  
HETATM   15  C   UNL     1     -13.142  10.138  71.949  1.00  0.00    -0.571 A  
HETATM   16  C   UNL     1     -12.353   9.015  72.200  1.00  0.00    -0.442 A  
HETATM   17  C   UNL     1     -11.254   8.743  71.390  1.00  0.00    -0.362 A  
HETATM   18  C   UNL     1     -10.930   9.607  70.345  1.00  0.00    -0.356 A  
ENDBRANCH  12  13
ENDBRANCH   8  12
TORSDOF 2
ENDMDL
MODEL       99
REMARK 921   NORMALIZED FREE ENERGY PREDICTED BY IDOCK:   -4.42 KCAL/MOL
REMARK 922        TOTAL FREE ENERGY PREDICTED BY IDOCK:   -5.37 KCAL/MOL
REMARK 923 INTER-LIGAND FREE ENERGY PREDICTED BY IDOCK:   -4.88 KCAL/MOL
REMARK 924 INTRA-LIGAND FREE ENERGY PREDICTED BY IDOCK:   -0.48 KCAL/MOL
REMARK 927      BINDING AFFINITY PREDICTED BY RF-SCORE:    0.00 PKD
ROOT
HETATM    1  C   UNL     1      -6.372   5.486  73.424  1.00  0.00    -0.065 C  
HETATM    2  C   UNL     1      -7.457   6.355  74.050  1.00  0.00    -0.085 C  
HETATM    3  C   UNL     1      -7.165   7.842  73.836  1.00  0.00    -0.135 C  
HETATM    4  C   UNL     1      -8.839   5.916  73.583  1.00  0.00    -0.124 A  
HETATM    5  O   UNL     1      -8.128   8.663  74.328  1.00  0.00    -0.356 OA 
HETATM    6  O   UNL     1      -6.149   8.292  73.323  1.00  0.00    -0.078 OA 
HETATM    7  C   UNL     1      -9.434   6.456  72.433  1.00  0.00    -0.143 A  
HETATM    8  C   UNL     1     -10.777   6.192  72.134  1.00  0.00    -0.236 A  
HETATM    9  C   UNL     1      -9.558   4.966  74.323  1.00  0.00    -0.144 A  
HETATM   10  C   UNL     1     -11.471   5.232  72.871  1.00  0.00    -0.339 A  
HETATM   11  C   UNL     1     -10.854   4.605  73.952  1.00  0.00    -0.359 A  
ENDROOT
BRANCH   8  12
HETATM   12  O   UNL     1     -11.488   6.818  71.133  1.00  0.00    -0.280 OA 
BRANCH  12  13
HETATM   13  C   UNL     1     -11.864   8.135  71.289  1.00  0.00    -0.287 A  
HETATM   14  C   UNL     1     -13.005   8.361  72.061  1.00  0.00    -0.388 A  
HETATM   15  C   UNL     1     -13.518   9.653  72.189  1.00  0.00    -0.516 A  
HETATM   16  C   UNL     1     -12.892  10.721  71.543  1.00  0.00    -0.567 A  
HETATM   17  C   UNL     1     -11.714  10.509  70.832  1.00  0.00    -0.431 A  
HETATM   18  C   UNL     1     -11.176   9.225  70.745  1.00  0.00    -0.351 A  
ENDBRANCH  12  13
ENDBRANCH   8  12
TORSDOF 2
ENDMDL
MODEL      100
REMARK 921   NORMALIZED FREE ENERGY PREDICTED BY IDOCK:   -4.41 KCAL/MOL
REMARK 922        TOTAL FREE ENERGY PREDICTED BY IDOCK:   -5.35 KCAL/MOL
REMARK 923 INTER-LIGAND FREE ENERGY PREDICTED BY IDOCK:   -4.90 KCAL/MOL
REMARK 924 INTRA-LIGAND FREE ENERGY PREDICTED BY IDOCK:   -0.45 KCAL/MOL
REMARK 927      BINDING AFFINITY PREDICTED BY RF-SCORE:    0.00 PKD
ROOT
HETATM    1  C   UNL     1     -13.385   9.312  70.783  1.00  0.00     0.127 C  
HETATM    2  C   UNL     1     -12.109  10.108  71.035  1.00  0.00    -0.476 C  
HETATM    3  C   UNL     1     -10.921   9.497  70.287  1.00  0.00    -0.269 C  
HETATM    4  C   UNL     1     -12.329  11.589  70.756  1.00  0.00    -0.472 A  
HETATM    5  O   UNL     1      -9.767  10.197  70.433  1.00  0.00    -0.082 OA 
HETATM    6  O   UNL     1     -10.954   8.453  69.650  1.00  0.00    -0.200 OA 
HETATM    7  C   UNL     1     -12.112  12.139  69.484  1.00  0.00    -0.263 A  
HETATM    8  C   UNL     1     -12.124  13.527  69.297  1.00  0.00    -0.288 A  
HETATM    9  C   UNL     1     -12.739  12.442  71.792  1.00  0.00    -0.249 A  
HETATM   10  C   UNL     1     -12.549  14.359  70.333  1.00  0.00    -0.405 A  
HETATM   11  C   UNL     1     -12.876  13.814  71.573  1.00  0.00    -0.445 A  
ENDROOT
BRANCH   8  12
HETATM   12  O   UNL     1     -11.746  14.158  68.130  1.00  0.00    -0.316 OA 
BRANCH  12  13
HETATM   13  C   UNL     1     -10.831  15.188  68.181  1.00  0.00    -0.266 A  
HETATM   14  C   UNL     1      -9.504  14.819  68.407  1.00  0.00    -0.213 A  
HETATM   15  C   UNL     1      -8.525  15.800  68.575  1.00  0.00    -0.181 A  
HETATM   16  C   UNL     1      -8.872  17.151  68.520  1.00  0.00    -0.265 A  
HETATM   17  C   UNL     1     -10.181  17.520  68.224  1.00  0.00    -0.365 A  
HETATM   18  C   UNL     1     -11.148  16.540  68.008  1.00  0.00    -0.275 A  
ENDBRANCH  12  13
ENDBRANCH   8  12
TORSDOF 2
ENDMDL
MODEL      101
REMARK 921   NORMALIZED FREE ENERGY PREDICTED BY IDOCK:   -4.40 KCAL/MOL
REMARK 922        TOTAL FREE ENERGY PREDICTED BY IDOCK:   -5.34 KCAL/MOL
REMARK 923 INTER-LIGAND FREE ENERGY PREDICTED BY IDOCK:   -4.98 KCAL/MOL
REMARK 924 INTRA-LIGAND FREE ENERGY PREDICTED BY IDOCK:   -0.36 KCAL/MOL
REMARK 927      BINDING AFFINITY PREDICTED BY RF-SCORE:    0.00 PKD
ROOT
HETATM    1  C   UNL     1      -6.090  18.227  65.256  1.00  0.00    -0.209 C  
HETATM    2  C   UNL     1      -6.661  18.072  66.662  1.00  0.00    -0.233 C  
HETATM    3  C   UNL     1      -7.628  19.212  66.993  1.00  0.00    -0.227 C  
HETATM    4  C   UNL     1      -7.245  16.680  66.860  1.00  0.00    -0.261 A  
HETATM    5  O   UNL     1      -8.208  19.097  68.215  1.00  0.00    -0.307 OA 
HETATM    6  O   UNL     1      -7.846  20.179  66.275  1.00  0.00    -0.292 OA 
HETATM    7  C   UNL     1      -8.586  16.394  66.565  1.00  0.00    -0.329 A  
HETATM    8  C   UNL     1      -9.153  15.170  66.941  1.00  0.00    -0.247 A  
HETATM    9  C   UNL     1      -6.439  15.651  67.371  1.00  0.00    -0.172 A  
HETATM   10  C   UNL     1      -8.335  14.153  67.432  1.00  0.00    -0.210 A  
HETATM   11  C   UNL     1      -6.975  14.387  67.627  1.00  0.00    -0.203 A  
ENDROOT
BRANCH   8  12
HETATM   12  O   UNL     1     -10.498  14.876  66.854  1.00  0.00    -0.271 OA 
BRANCH  12  13
HETATM   13  C   UNL     1     -11.122  14.235  67.903  1.00  0.00    -0.278 A  
HETATM   14  C   UNL     1     -11.535  15.047  68.960  1.00  0.00    -0.322 A  
HETATM   15  C   UNL     1     -12.084  14.474  70.109  1.00  0.00    -0.394 A  
HETATM   16  C   UNL     1     -12.218  13.088  70.203  1.00  0.00    -0.342 A  
HETATM   17  C   UNL     1     -11.873  12.282  69.121  1.00  0.00    -0.355 A  
HETATM   18  C   UNL     1     -11.370  12.859  67.956  1.00  0.00    -0.333 A  
ENDBRANCH  12  13
ENDBRANCH   8  12
TORSDOF 2
ENDMDL
MODEL      102
REMARK 921   NORMALIZED FREE ENERGY PREDICTED BY IDOCK:   -4.37 KCAL/MOL
REMARK 922        TOTAL FREE ENERGY PREDICTED BY IDOCK:   -5.31 KCAL/MOL
REMARK 923 INTER-LIGAND FREE ENERGY PREDICTED BY IDOCK:   -5.88 KCAL/MOL
REMARK 924 INTRA-LIGAND FREE ENERGY PREDICTED BY IDOCK:    0.56 KCAL/MOL
REMARK 927      BINDING AFFINITY PREDICTED BY RF-SCORE:    0.00 PKD
ROOT
HETATM    1  C   UNL     1     -11.072  14.899  65.411  1.00  0.00    -0.366 C  
HETATM    2  C   UNL     1      -9.949  14.233  66.199  1.00  0.00    -0.330 C  
HETATM    3  C   UNL     1      -9.627  15.019  67.472  1.00  0.00    -0.203 C  
HETATM    4  C   UNL     1     -10.252  12.759  66.434  1.00  0.00    -0.263 A  
HETATM    5  O   UNL     1      -8.667  14.442  68.241  1.00  0.00    -0.166 OA 
HETATM    6  O   UNL     1     -10.124  16.094  67.779  1.00  0.00    -0.241 OA 
HETATM    7  C   UNL     1     -10.954  12.323  67.568  1.00  0.00    -0.298 A  
HETATM    8  C   UNL     1     -11.046  10.958  67.868  1.00  0.00    -0.302 A  
HETATM    9  C   UNL     1      -9.805  11.798  65.515  1.00  0.00    -0.262 A  
HETATM   10  C   UNL     1     -10.611  10.017  66.935  1.00  0.00    -0.261 A  
HETATM   11  C   UNL     1     -10.010  10.437  65.750  1.00  0.00    -0.334 A  
ENDROOT
BRANCH   8  12
HETATM   12  O   UNL     1     -11.556  10.453  69.045  1.00  0.00    -0.228 OA 
BRANCH  12  13
HETATM   13  C   UNL     1     -12.048  11.319  69.999  1.00  0.00    -0.348 A  
HETATM   14  C   UNL     1     -12.662  10.731  71.105  1.00  0.00    -0.532 A  
HETATM   15  C   UNL     1     -13.279  11.529  72.070  1.00  0.00    -0.443 A  
HETATM   16  C   UNL     1     -13.283  12.918  71.928  1.00  0.00    -0.521 A  
HETATM   17  C   UNL     1     -12.609  13.510  70.864  1.00  0.00    -0.414 A  
HETATM   18  C   UNL     1     -11.953  12.713  69.927  1.00  0.00    -0.365 A  
ENDBRANCH  12  13
ENDBRANCH   8  12
TORSDOF 2
ENDMDL
MODEL      103
REMARK 921   NORMALIZED FREE ENERGY PREDICTED BY IDOCK:   -4.36 KCAL/MOL
REMARK 922        TOTAL FREE ENERGY PREDICTED BY IDOCK:   -5.30 KCAL/MOL
REMARK 923 INTER-LIGAND FREE ENERGY PREDICTED BY IDOCK:   -4.86 KCAL/MOL
REMARK 924 INTRA-LIGAND FREE ENERGY PREDICTED BY IDOCK:   -0.44 KCAL/MOL
REMARK 927      BINDING AFFINITY PREDICTED BY RF-SCORE:    0.00 PKD
ROOT
HETATM    1  C   UNL     1     -11.319   6.337  72.419  1.00  0.00    -0.333 C  
HETATM    2  C   UNL     1     -10.717   7.728  72.582  1.00  0.00    -0.402 C  
HETATM    3  C   UNL     1      -9.220   7.723  72.256  1.00  0.00    -0.154 C  
HETATM    4  C   UNL     1     -11.522   8.762  71.805  1.00  0.00    -0.413 A  
HETATM    5  O   UNL     1      -8.642   8.949  72.334  1.00  0.00    -0.399 OA 
HETATM    6  O   UNL     1      -8.561   6.726  71.998  1.00  0.00    -0.122 OA 
HETATM    7  C   UNL     1     -11.227   9.074  70.470  1.00  0.00    -0.301 A  
HETATM    8  C   UNL     1     -11.843  10.163  69.840  1.00  0.00    -0.135 A  
HETATM    9  C   UNL     1     -12.575   9.444  72.434  1.00  0.00    -0.307 A  
HETATM   10  C   UNL     1     -12.898  10.819  70.473  1.00  0.00    -0.335 A  
HETATM   11  C   UNL     1     -13.277  10.445  71.762  1.00  0.00    -0.529 A  
ENDROOT
BRANCH   8  12
HETATM   12  O   UNL     1     -11.485  10.649  68.600  1.00  0.00    -0.274 OA 
BRANCH  12  13
HETATM   13  C   UNL     1     -10.715  11.790  68.515  1.00  0.00    -0.220 A  
HETATM   14  C   UNL     1      -9.333  11.600  68.518  1.00  0.00    -0.169 A  
HETATM   15  C   UNL     1      -8.475  12.701  68.537  1.00  0.00    -0.051 A  
HETATM   16  C   UNL     1      -9.000  13.994  68.555  1.00  0.00    -0.160 A  
HETATM   17  C   UNL     1     -10.376  14.187  68.480  1.00  0.00    -0.249 A  
HETATM   18  C   UNL     1     -11.229  13.087  68.412  1.00  0.00    -0.304 A  
ENDBRANCH  12  13
ENDBRANCH   8  12
TORSDOF 2
ENDMDL
MODEL      104
REMARK 921   NORMALIZED FREE ENERGY PREDICTED BY IDOCK:   -4.35 KCAL/MOL
REMARK 922        TOTAL FREE ENERGY PREDICTED BY IDOCK:   -5.28 KCAL/MOL
REMARK 923 INTER-LIGAND FREE ENERGY PREDICTED BY IDOCK:   -4.85 KCAL/MOL
REMARK 924 INTRA-LIGAND FREE ENERGY PREDICTED BY IDOCK:   -0.43 KCAL/MOL
REMARK 927      BINDING AFFINITY PREDICTED BY RF-SCORE:    0.00 PKD
ROOT
HETATM    1  C   UNL     1      -6.689   5.656  72.563  1.00  0.00    -0.072 C  
HETATM    2  C   UNL     1      -8.176   5.826  72.857  1.00  0.00    -0.119 C  
HETATM    3  C   UNL     1      -8.407   6.892  73.931  1.00  0.00    -0.131 C  
HETATM    4  C   UNL     1      -8.959   6.055  71.571  1.00  0.00    -0.144 A  
HETATM    5  O   UNL     1      -9.719   7.123  74.196  1.00  0.00    -0.274 OA 
HETATM    6  O   UNL     1      -7.523   7.466  74.553  1.00  0.00    -0.117 OA 
HETATM    7  C   UNL     1      -9.178   7.343  71.060  1.00  0.00    -0.153 A  
HETATM    8  C   UNL     1     -10.065   7.546  69.996  1.00  0.00    -0.199 A  
HETATM    9  C   UNL     1      -9.502   4.961  70.880  1.00  0.00    -0.227 A  
HETATM   10  C   UNL     1     -10.583   6.447  69.310  1.00  0.00    -0.311 A  
HETATM   11  C   UNL     1     -10.284   5.155  69.740  1.00  0.00    -0.357 A  
ENDROOT
BRANCH   8  12
HETATM   12  O   UNL     1     -10.475   8.785  69.550  1.00  0.00    -0.215 OA 
BRANCH  12  13
HETATM   13  C   UNL     1     -11.410   9.492  70.277  1.00  0.00    -0.236 A  
HETATM   14  C   UNL     1     -11.493  10.859  70.005  1.00  0.00    -0.411 A  
HETATM   15  C   UNL     1     -12.338  11.672  70.763  1.00  0.00    -0.454 A  
HETATM   16  C   UNL     1     -13.099  11.120  71.794  1.00  0.00    -0.536 A  
HETATM   17  C   UNL     1     -13.071   9.747  72.020  1.00  0.00    -0.546 A  
HETATM   18  C   UNL     1     -12.264   8.929  71.231  1.00  0.00    -0.351 A  
ENDBRANCH  12  13
ENDBRANCH   8  12
TORSDOF 2
ENDMDL
MODEL      105
REMARK 921   NORMALIZED FREE ENERGY PREDICTED BY IDOCK:   -4.34 KCAL/MOL
REMARK 922        TOTAL FREE ENERGY PREDICTED BY IDOCK:   -5.27 KCAL/MOL
REMARK 923 INTER-LIGAND FREE ENERGY PREDICTED BY IDOCK:   -5.00 KCAL/MOL
REMARK 924 INTRA-LIGAND FREE ENERGY PREDICTED BY IDOCK:   -0.27 KCAL/MOL
REMARK 927      BINDING AFFINITY PREDICTED BY RF-SCORE:    0.00 PKD
ROOT
HETATM    1  C   UNL     1     -10.097  10.634  64.852  1.00  0.00    -0.402 C  
HETATM    2  C   UNL     1      -9.611  11.660  65.870  1.00  0.00    -0.250 C  
HETATM    3  C   UNL     1     -10.535  12.880  65.908  1.00  0.00    -0.279 C  
HETATM    4  C   UNL     1      -9.378  11.009  67.227  1.00  0.00    -0.167 A  
HETATM    5  O   UNL     1     -10.179  13.804  66.837  1.00  0.00    -0.255 OA 
HETATM    6  O   UNL     1     -11.483  13.067  65.157  1.00  0.00    -0.295 OA 
HETATM    7  C   UNL     1     -10.398  10.923  68.188  1.00  0.00    -0.202 A  
HETATM    8  C   UNL     1     -10.112  10.507  69.494  1.00  0.00    -0.178 A  
HETATM    9  C   UNL     1      -8.113  10.497  67.549  1.00  0.00    -0.107 A  
HETATM   10  C   UNL     1      -8.854   9.986  69.792  1.00  0.00    -0.205 A  
HETATM   11  C   UNL     1      -7.861   9.962  68.814  1.00  0.00    -0.091 A  
ENDROOT
BRANCH   8  12
HETATM   12  O   UNL     1     -11.007  10.564  70.542  1.00  0.00    -0.271 OA 
BRANCH  12  13
HETATM   13  C   UNL     1     -11.801   9.470  70.817  1.00  0.00    -0.277 A  
HETATM   14  C   UNL     1     -13.065   9.745  71.340  1.00  0.00    -0.489 A  
HETATM   15  C   UNL     1     -13.897   8.699  71.744  1.00  0.00    -0.472 A  
HETATM   16  C   UNL     1     -13.465   7.377  71.626  1.00  0.00    -0.437 A  
HETATM   17  C   UNL     1     -12.234   7.098  71.038  1.00  0.00    -0.384 A  
HETATM   18  C   UNL     1     -11.425   8.142  70.591  1.00  0.00    -0.237 A  
ENDBRANCH  12  13
ENDBRANCH   8  12
TORSDOF 2
ENDMDL
MODEL      106
REMARK 921   NORMALIZED FREE ENERGY PREDICTED BY IDOCK:   -4.33 KCAL/MOL
REMARK 922        TOTAL FREE ENERGY PREDICTED BY IDOCK:   -5.26 KCAL/MOL
REMARK 923 INTER-LIGAND FREE ENERGY PREDICTED BY IDOCK:   -5.26 KCAL/MOL
REMARK 924 INTRA-LIGAND FREE ENERGY PREDICTED BY IDOCK:    0.00 KCAL/MOL
REMARK 927      BINDING AFFINITY PREDICTED BY RF-SCORE:    0.00 PKD
ROOT
HETATM    1  C   UNL     1     -14.410  15.393  70.965  1.00  0.00    -0.138 C  
HETATM    2  C   UNL     1     -12.932  15.118  71.217  1.00  0.00    -0.478 C  
HETATM    3  C   UNL     1     -12.608  15.173  72.712  1.00  0.00    -0.390 C  
HETATM    4  C   UNL     1     -12.494  13.832  70.529  1.00  0.00    -0.409 A  
HETATM    5  O   UNL     1     -11.312  14.884  73.000  1.00  0.00    -0.106 OA 
HETATM    6  O   UNL     1     -13.397  15.494  73.591  1.00  0.00    -0.394 OA 
HETATM    7  C   UNL     1     -12.568  12.589  71.176  1.00  0.00    -0.349 A  
HETATM    8  C   UNL     1     -11.977  11.454  70.606  1.00  0.00    -0.314 A  
HETATM    9  C   UNL     1     -11.981  13.877  69.224  1.00  0.00    -0.402 A  
HETATM   10  C   UNL     1     -11.487  11.512  69.302  1.00  0.00    -0.370 A  
HETATM   11  C   UNL     1     -11.508  12.719  68.605  1.00  0.00    -0.341 A  
ENDROOT
BRANCH   8  12
HETATM   12  O   UNL     1     -11.845  10.241  71.249  1.00  0.00    -0.364 OA 
BRANCH  12  13
HETATM   13  C   UNL     1     -11.025   9.273  70.710  1.00  0.00    -0.284 A  
HETATM   14  C   UNL     1      -9.667   9.587  70.641  1.00  0.00    -0.311 A  
HETATM   15  C   UNL     1      -8.776   8.710  70.019  1.00  0.00    -0.141 A  
HETATM   16  C   UNL     1      -9.243   7.519  69.461  1.00  0.00    -0.146 A  
HETATM   17  C   UNL     1     -10.585   7.170  69.591  1.00  0.00    -0.249 A  
HETATM   18  C   UNL     1     -11.464   8.024  70.256  1.00  0.00    -0.078 A  
ENDBRANCH  12  13
ENDBRANCH   8  12
TORSDOF 2
ENDMDL
MODEL      107
REMARK 921   NORMALIZED FREE ENERGY PREDICTED BY IDOCK:   -4.30 KCAL/MOL
REMARK 922        TOTAL FREE ENERGY PREDICTED BY IDOCK:   -5.23 KCAL/MOL
REMARK 923 INTER-LIGAND FREE ENERGY PREDICTED BY IDOCK:   -4.94 KCAL/MOL
REMARK 924 INTRA-LIGAND FREE ENERGY PREDICTED BY IDOCK:   -0.29 KCAL/MOL
REMARK 927      BINDING AFFINITY PREDICTED BY RF-SCORE:    0.00 PKD
ROOT
HETATM    1  C   UNL     1     -12.900  12.645  71.988  1.00  0.00    -0.268 C  
HETATM    2  C   UNL     1     -13.162  13.696  70.915  1.00  0.00    -0.111 C  
HETATM    3  C   UNL     1     -13.766  14.966  71.521  1.00  0.00    -0.450 C  
HETATM    4  C   UNL     1     -11.914  13.936  70.075  1.00  0.00    -0.404 A  
HETATM    5  O   UNL     1     -13.971  15.957  70.616  1.00  0.00    -0.008 OA 
HETATM    6  O   UNL     1     -14.094  15.097  72.692  1.00  0.00    -0.463 OA 
HETATM    7  C   UNL     1     -10.965  14.908  70.427  1.00  0.00    -0.160 A  
HETATM    8  C   UNL     1      -9.936  15.251  69.541  1.00  0.00    -0.242 A  
HETATM    9  C   UNL     1     -11.704  13.190  68.905  1.00  0.00    -0.368 A  
HETATM   10  C   UNL     1      -9.732  14.489  68.392  1.00  0.00    -0.224 A  
HETATM   11  C   UNL     1     -10.604  13.446  68.085  1.00  0.00    -0.255 A  
ENDROOT
BRANCH   8  12
HETATM   12  O   UNL     1      -9.073  16.311  69.726  1.00  0.00     0.057 OA 
BRANCH  12  13
HETATM   13  C   UNL     1      -9.217  17.445  68.954  1.00  0.00    -0.168 A  
HETATM   14  C   UNL     1     -10.507  17.720  68.500  1.00  0.00    -0.332 A  
HETATM   15  C   UNL     1     -10.730  18.789  67.630  1.00  0.00    -0.449 A  
HETATM   16  C   UNL     1      -9.662  19.583  67.210  1.00  0.00    -0.450 A  
HETATM   17  C   UNL     1      -8.386  19.355  67.718  1.00  0.00    -0.340 A  
HETATM   18  C   UNL     1      -8.173  18.317  68.625  1.00  0.00    -0.301 A  
ENDBRANCH  12  13
ENDBRANCH   8  12
TORSDOF 2
ENDMDL
MODEL      108
REMARK 921   NORMALIZED FREE ENERGY PREDICTED BY IDOCK:   -4.30 KCAL/MOL
REMARK 922        TOTAL FREE ENERGY PREDICTED BY IDOCK:   -5.23 KCAL/MOL
REMARK 923 INTER-LIGAND FREE ENERGY PREDICTED BY IDOCK:   -5.24 KCAL/MOL
REMARK 924 INTRA-LIGAND FREE ENERGY PREDICTED BY IDOCK:    0.02 KCAL/MOL
REMARK 927      BINDING AFFINITY PREDICTED BY RF-SCORE:    0.00 PKD
ROOT
HETATM    1  C   UNL     1     -10.622  15.120  66.884  1.00  0.00    -0.297 C  
HETATM    2  C   UNL     1     -11.876  14.254  66.906  1.00  0.00    -0.458 C  
HETATM    3  C   UNL     1     -12.540  14.207  65.527  1.00  0.00    -0.479 C  
HETATM    4  C   UNL     1     -11.579  12.884  67.504  1.00  0.00    -0.409 A  
HETATM    5  O   UNL     1     -13.635  13.406  65.476  1.00  0.00    -0.310 OA 
HETATM    6  O   UNL     1     -12.181  14.855  64.553  1.00  0.00    -0.456 OA 
HETATM    7  C   UNL     1     -11.164  11.807  66.706  1.00  0.00    -0.388 A  
HETATM    8  C   UNL     1     -11.091  10.514  67.238  1.00  0.00    -0.213 A  
HETATM    9  C   UNL     1     -11.740  12.673  68.881  1.00  0.00    -0.370 A  
HETATM   10  C   UNL     1     -11.238  10.324  68.612  1.00  0.00    -0.263 A  
HETATM   11  C   UNL     1     -11.543  11.407  69.435  1.00  0.00    -0.391 A  
ENDROOT
BRANCH   8  12
HETATM   12  O   UNL     1     -10.869   9.377  66.490  1.00  0.00    -0.030 OA 
BRANCH  12  13
HETATM   13  C   UNL     1      -9.699   9.255  65.771  1.00  0.00    -0.269 A  
HETATM   14  C   UNL     1      -9.462  10.240  64.812  1.00  0.00    -0.341 A  
HETATM   15  C   UNL     1      -8.354  10.143  63.968  1.00  0.00    -0.172 A  
HETATM   16  C   UNL     1      -7.483   9.058  64.080  1.00  0.00    -0.110 A  
HETATM   17  C   UNL     1      -7.677   8.112  65.083  1.00  0.00    -0.107 A  
HETATM   18  C   UNL     1      -8.757   8.237  65.957  1.00  0.00    -0.181 A  
ENDBRANCH  12  13
ENDBRANCH   8  12
TORSDOF 2
ENDMDL
MODEL      109
REMARK 921   NORMALIZED FREE ENERGY PREDICTED BY IDOCK:   -4.28 KCAL/MOL
REMARK 922        TOTAL FREE ENERGY PREDICTED BY IDOCK:   -5.21 KCAL/MOL
REMARK 923 INTER-LIGAND FREE ENERGY PREDICTED BY IDOCK:   -4.76 KCAL/MOL
REMARK 924 INTRA-LIGAND FREE ENERGY PREDICTED BY IDOCK:   -0.45 KCAL/MOL
REMARK 927      BINDING AFFINITY PREDICTED BY RF-SCORE:    0.00 PKD
ROOT
HETATM    1  C   UNL     1     -10.241   9.969  65.743  1.00  0.00    -0.270 C  
HETATM    2  C   UNL     1      -9.652  11.267  65.202  1.00  0.00    -0.269 C  
HETATM    3  C   UNL     1     -10.531  11.851  64.093  1.00  0.00    -0.349 C  
HETATM    4  C   UNL     1      -9.346  12.238  66.335  1.00  0.00    -0.219 A  
HETATM    5  O   UNL     1     -10.080  13.038  63.609  1.00  0.00    -0.264 OA 
HETATM    6  O   UNL     1     -11.522  11.309  63.623  1.00  0.00    -0.280 OA 
HETATM    7  C   UNL     1     -10.298  13.164  66.788  1.00  0.00    -0.252 A  
HETATM    8  C   UNL     1      -9.935  14.176  67.686  1.00  0.00    -0.233 A  
HETATM    9  C   UNL     1      -8.078  12.235  66.935  1.00  0.00    -0.090 A  
HETATM   10  C   UNL     1      -8.677  14.148  68.285  1.00  0.00    -0.181 A  
HETATM   11  C   UNL     1      -7.756  13.165  67.925  1.00  0.00    -0.147 A  
ENDROOT
BRANCH   8  12
HETATM   12  O   UNL     1     -10.752  15.228  68.043  1.00  0.00    -0.255 OA 
BRANCH  12  13
HETATM   13  C   UNL     1     -10.456  16.499  67.598  1.00  0.00    -0.305 A  
HETATM   14  C   UNL     1      -9.990  17.394  68.562  1.00  0.00    -0.331 A  
HETATM   15  C   UNL     1      -9.761  18.729  68.224  1.00  0.00    -0.406 A  
HETATM   16  C   UNL     1     -10.002  19.172  66.923  1.00  0.00    -0.419 A  
HETATM   17  C   UNL     1     -10.398  18.266  65.943  1.00  0.00    -0.297 A  
HETATM   18  C   UNL     1     -10.579  16.923  66.271  1.00  0.00    -0.191 A  
ENDBRANCH  12  13
ENDBRANCH   8  12
TORSDOF 2
ENDMDL
MODEL      110
REMARK 921   NORMALIZED FREE ENERGY PREDICTED BY IDOCK:   -4.28 KCAL/MOL
REMARK 922        TOTAL FREE ENERGY PREDICTED BY IDOCK:   -5.20 KCAL/MOL
REMARK 923 INTER-LIGAND FREE ENERGY PREDICTED BY IDOCK:   -4.74 KCAL/MOL
REMARK 924 INTRA-LIGAND FREE ENERGY PREDICTED BY IDOCK:   -0.46 KCAL/MOL
REMARK 927      BINDING AFFINITY PREDICTED BY RF-SCORE:    0.00 PKD
ROOT
HETATM    1  C   UNL     1     -11.724  15.755  68.524  1.00  0.00    -0.328 C  
HETATM    2  C   UNL     1     -10.653  15.538  67.461  1.00  0.00    -0.297 C  
HETATM    3  C   UNL     1      -9.298  15.221  68.100  1.00  0.00    -0.198 C  
HETATM    4  C   UNL     1     -11.111  14.518  66.428  1.00  0.00    -0.331 A  
HETATM    5  O   UNL     1      -8.316  14.967  67.197  1.00  0.00    -0.195 OA 
HETATM    6  O   UNL     1      -9.067  15.235  69.301  1.00  0.00    -0.227 OA 
HETATM    7  C   UNL     1     -10.862  13.146  66.586  1.00  0.00    -0.292 A  
HETATM    8  C   UNL     1     -11.111  12.251  65.538  1.00  0.00    -0.307 A  
HETATM    9  C   UNL     1     -11.782  14.946  65.272  1.00  0.00    -0.263 A  
HETATM   10  C   UNL     1     -11.792  12.690  64.404  1.00  0.00    -0.452 A  
HETATM   11  C   UNL     1     -12.146  14.033  64.280  1.00  0.00    -0.476 A  
ENDROOT
BRANCH   8  12
HETATM   12  O   UNL     1     -10.731  10.925  65.541  1.00  0.00    -0.211 OA 
BRANCH  12  13
HETATM   13  C   UNL     1      -9.551  10.556  64.931  1.00  0.00    -0.277 A  
HETATM   14  C   UNL     1      -8.409  10.588  65.733  1.00  0.00    -0.166 A  
HETATM   15  C   UNL     1      -7.156  10.328  65.176  1.00  0.00    -0.121 A  
HETATM   16  C   UNL     1      -7.042  10.039  63.815  1.00  0.00    -0.129 A  
HETATM   17  C   UNL     1      -8.186   9.936  63.029  1.00  0.00    -0.152 A  
HETATM   18  C   UNL     1      -9.442  10.148  63.597  1.00  0.00    -0.320 A  
ENDBRANCH  12  13
ENDBRANCH   8  12
TORSDOF 2
ENDMDL
MODEL      111
REMARK 921   NORMALIZED FREE ENERGY PREDICTED BY IDOCK:   -4.27 KCAL/MOL
REMARK 922        TOTAL FREE ENERGY PREDICTED BY IDOCK:   -5.20 KCAL/MOL
REMARK 923 INTER-LIGAND FREE ENERGY PREDICTED BY IDOCK:   -4.70 KCAL/MOL
REMARK 924 INTRA-LIGAND FREE ENERGY PREDICTED BY IDOCK:   -0.50 KCAL/MOL
REMARK 927      BINDING AFFINITY PREDICTED BY RF-SCORE:    0.00 PKD
ROOT
HETATM    1  C   UNL     1      -8.393   8.502  67.827  1.00  0.00    -0.130 C  
HETATM    2  C   UNL     1      -8.253   9.714  68.743  1.00  0.00    -0.106 C  
HETATM    3  C   UNL     1      -7.452  10.828  68.064  1.00  0.00    -0.090 C  
HETATM    4  C   UNL     1      -9.612  10.154  69.271  1.00  0.00    -0.239 A  
HETATM    5  O   UNL     1      -7.340  11.954  68.816  1.00  0.00    -0.108 OA 
HETATM    6  O   UNL     1      -6.904  10.736  66.974  1.00  0.00    -0.083 OA 
HETATM    7  C   UNL     1     -10.402  11.089  68.585  1.00  0.00    -0.209 A  
HETATM    8  C   UNL     1     -11.547  11.629  69.184  1.00  0.00    -0.314 A  
HETATM    9  C   UNL     1     -10.091   9.637  70.484  1.00  0.00    -0.338 A  
HETATM   10  C   UNL     1     -12.017  11.092  70.382  1.00  0.00    -0.469 A  
HETATM   11  C   UNL     1     -11.300  10.082  71.021  1.00  0.00    -0.434 A  
ENDROOT
BRANCH   8  12
HETATM   12  O   UNL     1     -12.276  12.677  68.662  1.00  0.00    -0.176 OA 
BRANCH  12  13
HETATM   13  C   UNL     1     -11.674  13.906  68.497  1.00  0.00    -0.355 A  
HETATM   14  C   UNL     1     -11.616  14.719  69.629  1.00  0.00    -0.342 A  
HETATM   15  C   UNL     1     -11.117  16.020  69.532  1.00  0.00    -0.333 A  
HETATM   16  C   UNL     1     -10.677  16.509  68.302  1.00  0.00    -0.345 A  
HETATM   17  C   UNL     1     -10.668  15.677  67.186  1.00  0.00    -0.314 A  
HETATM   18  C   UNL     1     -11.121  14.363  67.295  1.00  0.00    -0.318 A  
ENDBRANCH  12  13
ENDBRANCH   8  12
TORSDOF 2
ENDMDL
MODEL      112
REMARK 921   NORMALIZED FREE ENERGY PREDICTED BY IDOCK:   -4.26 KCAL/MOL
REMARK 922        TOTAL FREE ENERGY PREDICTED BY IDOCK:   -5.18 KCAL/MOL
REMARK 923 INTER-LIGAND FREE ENERGY PREDICTED BY IDOCK:   -4.76 KCAL/MOL
REMARK 924 INTRA-LIGAND FREE ENERGY PREDICTED BY IDOCK:   -0.43 KCAL/MOL
REMARK 927      BINDING AFFINITY PREDICTED BY RF-SCORE:    0.00 PKD
ROOT
HETATM    1  C   UNL     1     -13.838  11.947  72.189  1.00  0.00     0.170 C  
HETATM    2  C   UNL     1     -12.434  11.979  71.594  1.00  0.00    -0.078 C  
HETATM    3  C   UNL     1     -12.137  10.696  70.813  1.00  0.00    -0.374 C  
HETATM    4  C   UNL     1     -12.210  13.260  70.801  1.00  0.00    -0.390 A  
HETATM    5  O   UNL     1     -10.917  10.692  70.217  1.00  0.00    -0.273 OA 
HETATM    6  O   UNL     1     -12.878   9.724  70.751  1.00  0.00    -0.261 OA 
HETATM    7  C   UNL     1     -12.511  13.341  69.433  1.00  0.00     0.081 A  
HETATM    8  C   UNL     1     -12.112  14.454  68.682  1.00  0.00    -0.239 A  
HETATM    9  C   UNL     1     -11.670  14.389  71.435  1.00  0.00    -0.142 A  
HETATM   10  C   UNL     1     -11.591  15.573  69.331  1.00  0.00    -0.366 A  
HETATM   11  C   UNL     1     -11.390  15.547  70.709  1.00  0.00    -0.384 A  
ENDROOT
BRANCH   8  12
HETATM   12  O   UNL     1     -12.204  14.538  67.309  1.00  0.00    -0.347 OA 
BRANCH  12  13
HETATM   13  C   UNL     1     -11.655  13.542  66.529  1.00  0.00    -0.359 A  
HETATM   14  C   UNL     1     -12.361  13.208  65.373  1.00  0.00    -0.532 A  
HETATM   15  C   UNL     1     -11.935  12.143  64.576  1.00  0.00    -0.415 A  
HETATM   16  C   UNL     1     -10.804  11.409  64.937  1.00  0.00    -0.323 A  
HETATM   17  C   UNL     1     -10.058  11.786  66.051  1.00  0.00    -0.263 A  
HETATM   18  C   UNL     1     -10.457  12.880  66.818  1.00  0.00    -0.262 A  
ENDBRANCH  12  13
ENDBRANCH   8  12
TORSDOF 2
ENDMDL
MODEL      113
REMARK 921   NORMALIZED FREE ENERGY PREDICTED BY IDOCK:   -4.25 KCAL/MOL
REMARK 922        TOTAL FREE ENERGY PREDICTED BY IDOCK:   -5.17 KCAL/MOL
REMARK 923 INTER-LIGAND FREE ENERGY PREDICTED BY IDOCK:   -4.86 KCAL/MOL
REMARK 924 INTRA-LIGAND FREE ENERGY PREDICTED BY IDOCK:   -0.31 KCAL/MOL
REMARK 927      BINDING AFFINITY PREDICTED BY RF-SCORE:    0.00 PKD
ROOT
HETATM    1  C   UNL     1      -9.407  10.888  66.179  1.00  0.00    -0.211 C  
HETATM    2  C   UNL     1      -9.877  11.378  67.545  1.00  0.00    -0.194 C  
HETATM    3  C   UNL     1     -11.317  11.894  67.480  1.00  0.00    -0.314 C  
HETATM    4  C   UNL     1      -9.640  10.318  68.612  1.00  0.00    -0.169 A  
HETATM    5  O   UNL     1     -11.806  12.296  68.681  1.00  0.00    -0.310 OA 
HETATM    6  O   UNL     1     -11.980  12.000  66.457  1.00  0.00    -0.616 OA 
HETATM    7  C   UNL     1     -10.608   9.350  68.916  1.00  0.00    -0.231 A  
HETATM    8  C   UNL     1     -10.456   8.516  70.031  1.00  0.00    -0.223 A  
HETATM    9  C   UNL     1      -8.437  10.311  69.335  1.00  0.00    -0.170 A  
HETATM   10  C   UNL     1      -9.248   8.510  70.728  1.00  0.00    -0.204 A  
HETATM   11  C   UNL     1      -8.232   9.393  70.366  1.00  0.00    -0.214 A  
ENDROOT
BRANCH   8  12
HETATM   12  O   UNL     1     -11.433   7.666  70.505  1.00  0.00    -0.274 OA 
BRANCH  12  13
HETATM   13  C   UNL     1     -11.083   6.404  70.939  1.00  0.00    -0.298 A  
HETATM   14  C   UNL     1     -11.427   6.090  72.255  1.00  0.00    -0.364 A  
HETATM   15  C   UNL     1     -11.023   4.875  72.812  1.00  0.00    -0.294 A  
HETATM   16  C   UNL     1     -10.273   3.974  72.055  1.00  0.00    -0.186 A  
HETATM   17  C   UNL     1      -9.990   4.254  70.721  1.00  0.00    -0.224 A  
HETATM   18  C   UNL     1     -10.435   5.446  70.152  1.00  0.00    -0.361 A  
ENDBRANCH  12  13
ENDBRANCH   8  12
TORSDOF 2
ENDMDL
MODEL      114
REMARK 921   NORMALIZED FREE ENERGY PREDICTED BY IDOCK:   -4.24 KCAL/MOL
REMARK 922        TOTAL FREE ENERGY PREDICTED BY IDOCK:   -5.16 KCAL/MOL
REMARK 923 INTER-LIGAND FREE ENERGY PREDICTED BY IDOCK:   -4.62 KCAL/MOL
REMARK 924 INTRA-LIGAND FREE ENERGY PREDICTED BY IDOCK:   -0.54 KCAL/MOL
REMARK 927      BINDING AFFINITY PREDICTED BY RF-SCORE:    0.00 PKD
ROOT
HETATM    1  C   UNL     1      -6.253  13.718  69.996  1.00  0.00    -0.120 C  
HETATM    2  C   UNL     1      -7.048  13.262  68.777  1.00  0.00    -0.100 C  
HETATM    3  C   UNL     1      -7.491  11.803  68.922  1.00  0.00    -0.080 C  
HETATM    4  C   UNL     1      -8.182  14.233  68.474  1.00  0.00    -0.145 A  
HETATM    5  O   UNL     1      -8.249  11.359  67.886  1.00  0.00    -0.122 OA 
HETATM    6  O   UNL     1      -7.172  11.060  69.839  1.00  0.00    -0.081 OA 
HETATM    7  C   UNL     1      -9.456  14.077  69.040  1.00  0.00     0.108 A  
HETATM    8  C   UNL     1     -10.533  14.855  68.596  1.00  0.00    -0.242 A  
HETATM    9  C   UNL     1      -7.969  15.303  67.592  1.00  0.00    -0.177 A  
HETATM   10  C   UNL     1     -10.300  15.925  67.732  1.00  0.00    -0.278 A  
HETATM   11  C   UNL     1      -9.015  16.160  67.247  1.00  0.00    -0.210 A  
ENDROOT
BRANCH   8  12
HETATM   12  O   UNL     1     -11.846  14.648  68.963  1.00  0.00    -0.299 OA 
BRANCH  12  13
HETATM   13  C   UNL     1     -12.202  14.747  70.292  1.00  0.00    -0.338 A  
HETATM   14  C   UNL     1     -12.823  13.627  70.846  1.00  0.00    -0.321 A  
HETATM   15  C   UNL     1     -13.310  13.672  72.154  1.00  0.00    -0.587 A  
HETATM   16  C   UNL     1     -13.178  14.839  72.908  1.00  0.00    -0.597 A  
HETATM   17  C   UNL     1     -12.497  15.933  72.383  1.00  0.00    -0.558 A  
HETATM   18  C   UNL     1     -11.968  15.869  71.094  1.00  0.00    -0.472 A  
ENDBRANCH  12  13
ENDBRANCH   8  12
TORSDOF 2
ENDMDL
MODEL      115
REMARK 921   NORMALIZED FREE ENERGY PREDICTED BY IDOCK:   -4.23 KCAL/MOL
REMARK 922        TOTAL FREE ENERGY PREDICTED BY IDOCK:   -5.15 KCAL/MOL
REMARK 923 INTER-LIGAND FREE ENERGY PREDICTED BY IDOCK:   -4.68 KCAL/MOL
REMARK 924 INTRA-LIGAND FREE ENERGY PREDICTED BY IDOCK:   -0.46 KCAL/MOL
REMARK 927      BINDING AFFINITY PREDICTED BY RF-SCORE:    0.00 PKD
ROOT
HETATM    1  C   UNL     1     -10.605   7.536  73.071  1.00  0.00    -0.422 C  
HETATM    2  C   UNL     1     -11.657   7.130  72.045  1.00  0.00    -0.317 C  
HETATM    3  C   UNL     1     -12.842   8.100  72.057  1.00  0.00    -0.318 C  
HETATM    4  C   UNL     1     -11.028   6.929  70.672  1.00  0.00    -0.304 A  
HETATM    5  O   UNL     1     -13.788   7.816  71.124  1.00  0.00    -0.238 OA 
HETATM    6  O   UNL     1     -12.987   9.022  72.847  1.00  0.00    -0.328 OA 
HETATM    7  C   UNL     1     -10.913   7.982  69.753  1.00  0.00    -0.138 A  
HETATM    8  C   UNL     1     -10.519   7.735  68.432  1.00  0.00    -0.166 A  
HETATM    9  C   UNL     1     -10.566   5.659  70.294  1.00  0.00    -0.370 A  
HETATM   10  C   UNL     1     -10.048   6.471  68.078  1.00  0.00    -0.168 A  
HETATM   11  C   UNL     1     -10.053   5.439  69.015  1.00  0.00    -0.283 A  
ENDROOT
BRANCH   8  12
HETATM   12  O   UNL     1     -10.552   8.673  67.422  1.00  0.00    -0.274 OA 
BRANCH  12  13
HETATM   13  C   UNL     1     -10.237   9.986  67.704  1.00  0.00    -0.204 A  
HETATM   14  C   UNL     1     -11.268  10.913  67.543  1.00  0.00    -0.364 A  
HETATM   15  C   UNL     1     -11.014  12.276  67.708  1.00  0.00    -0.274 A  
HETATM   16  C   UNL     1      -9.729  12.714  68.032  1.00  0.00    -0.215 A  
HETATM   17  C   UNL     1      -8.717  11.786  68.263  1.00  0.00    -0.167 A  
HETATM   18  C   UNL     1      -8.984  10.423  68.146  1.00  0.00    -0.132 A  
ENDBRANCH  12  13
ENDBRANCH   8  12
TORSDOF 2
ENDMDL
MODEL      116
REMARK 921   NORMALIZED FREE ENERGY PREDICTED BY IDOCK:   -4.22 KCAL/MOL
REMARK 922        TOTAL FREE ENERGY PREDICTED BY IDOCK:   -5.14 KCAL/MOL
REMARK 923 INTER-LIGAND FREE ENERGY PREDICTED BY IDOCK:   -4.78 KCAL/MOL
REMARK 924 INTRA-LIGAND FREE ENERGY PREDICTED BY IDOCK:   -0.36 KCAL/MOL
REMARK 927      BINDING AFFINITY PREDICTED BY RF-SCORE:    0.00 PKD
ROOT
HETATM    1  C   UNL     1     -11.256  14.638  69.918  1.00  0.00    -0.271 C  
HETATM    2  C   UNL     1     -12.020  13.516  69.223  1.00  0.00    -0.378 C  
HETATM    3  C   UNL     1     -11.544  13.337  67.778  1.00  0.00    -0.342 C  
HETATM    4  C   UNL     1     -11.986  12.241  70.055  1.00  0.00    -0.379 A  
HETATM    5  O   UNL     1     -12.155  12.315  67.127  1.00  0.00    -0.560 OA 
HETATM    6  O   UNL     1     -10.733  14.057  67.212  1.00  0.00    -0.274 OA 
HETATM    7  C   UNL     1     -10.966  11.289  69.903  1.00  0.00    -0.096 A  
HETATM    8  C   UNL     1     -11.060  10.038  70.526  1.00  0.00    -0.331 A  
HETATM    9  C   UNL     1     -13.004  11.986  70.985  1.00  0.00    -0.175 A  
HETATM   10  C   UNL     1     -12.070   9.808  71.460  1.00  0.00    -0.493 A  
HETATM   11  C   UNL     1     -13.029  10.790  71.704  1.00  0.00    -0.581 A  
ENDROOT
BRANCH   8  12
HETATM   12  O   UNL     1     -10.202   8.985  70.291  1.00  0.00    -0.182 OA 
BRANCH  12  13
HETATM   13  C   UNL     1      -9.065   9.192  69.538  1.00  0.00    -0.155 A  
HETATM   14  C   UNL     1      -9.127   8.783  68.206  1.00  0.00    -0.141 A  
HETATM   15  C   UNL     1      -7.992   8.860  67.397  1.00  0.00    -0.101 A  
HETATM   16  C   UNL     1      -6.792   9.342  67.921  1.00  0.00    -0.075 A  
HETATM   17  C   UNL     1      -6.746   9.817  69.228  1.00  0.00    -0.053 A  
HETATM   18  C   UNL     1      -7.893   9.785  70.020  1.00  0.00    -0.188 A  
ENDBRANCH  12  13
ENDBRANCH   8  12
TORSDOF 2
ENDMDL
MODEL      117
REMARK 921   NORMALIZED FREE ENERGY PREDICTED BY IDOCK:   -4.20 KCAL/MOL
REMARK 922        TOTAL FREE ENERGY PREDICTED BY IDOCK:   -5.11 KCAL/MOL
REMARK 923 INTER-LIGAND FREE ENERGY PREDICTED BY IDOCK:   -4.93 KCAL/MOL
REMARK 924 INTRA-LIGAND FREE ENERGY PREDICTED BY IDOCK:   -0.18 KCAL/MOL
REMARK 927      BINDING AFFINITY PREDICTED BY RF-SCORE:    0.00 PKD
ROOT
HETATM    1  C   UNL     1     -14.404   8.710  72.094  1.00  0.00    -0.518 C  
HETATM    2  C   UNL     1     -13.083   8.884  71.352  1.00  0.00    -0.315 C  
HETATM    3  C   UNL     1     -12.572  10.323  71.464  1.00  0.00    -0.440 C  
HETATM    4  C   UNL     1     -12.075   7.827  71.786  1.00  0.00    -0.332 A  
HETATM    5  O   UNL     1     -11.370  10.522  70.864  1.00  0.00    -0.306 OA 
HETATM    6  O   UNL     1     -13.181  11.245  71.988  1.00  0.00    -0.506 OA 
HETATM    7  C   UNL     1     -11.200   8.041  72.861  1.00  0.00    -0.389 A  
HETATM    8  C   UNL     1     -10.152   7.147  73.115  1.00  0.00    -0.251 A  
HETATM    9  C   UNL     1     -11.991   6.613  71.088  1.00  0.00    -0.412 A  
HETATM   10  C   UNL     1     -10.094   5.938  72.423  1.00  0.00    -0.203 A  
HETATM   11  C   UNL     1     -11.026   5.663  71.424  1.00  0.00    -0.260 A  
ENDROOT
BRANCH   8  12
HETATM   12  O   UNL     1      -9.145   7.370  74.031  1.00  0.00    -0.221 OA 
BRANCH  12  13
HETATM   13  C   UNL     1      -7.977   7.980  73.621  1.00  0.00    -0.197 A  
HETATM   14  C   UNL     1      -7.940   8.404  72.292  1.00  0.00    -0.172 A  
HETATM   15  C   UNL     1      -6.765   8.939  71.761  1.00  0.00    -0.052 A  
HETATM   16  C   UNL     1      -5.624   9.048  72.558  1.00  0.00    -0.073 A  
HETATM   17  C   UNL     1      -5.680   8.692  73.903  1.00  0.00    -0.116 A  
HETATM   18  C   UNL     1      -6.869   8.203  74.444  1.00  0.00    -0.165 A  
ENDBRANCH  12  13
ENDBRANCH   8  12
TORSDOF 2
ENDMDL
MODEL      118
REMARK 921   NORMALIZED FREE ENERGY PREDICTED BY IDOCK:   -4.19 KCAL/MOL
REMARK 922        TOTAL FREE ENERGY PREDICTED BY IDOCK:   -5.11 KCAL/MOL
REMARK 923 INTER-LIGAND FREE ENERGY PREDICTED BY IDOCK:   -4.62 KCAL/MOL
REMARK 924 INTRA-LIGAND FREE ENERGY PREDICTED BY IDOCK:   -0.49 KCAL/MOL
REMARK 927      BINDING AFFINITY PREDICTED BY RF-SCORE:    0.00 PKD
ROOT
HETATM    1  C   UNL     1     -13.412   7.900  71.702  1.00  0.00    -0.386 C  
HETATM    2  C   UNL     1     -12.255   8.795  72.133  1.00  0.00    -0.448 C  
HETATM    3  C   UNL     1     -11.031   7.962  72.524  1.00  0.00    -0.350 C  
HETATM    4  C   UNL     1     -11.976   9.864  71.085  1.00  0.00    -0.473 A  
HETATM    5  O   UNL     1      -9.951   8.711  72.867  1.00  0.00    -0.144 OA 
HETATM    6  O   UNL     1     -11.002   6.741  72.585  1.00  0.00    -0.236 OA 
HETATM    7  C   UNL     1     -11.074   9.646  70.032  1.00  0.00    -0.293 A  
HETATM    8  C   UNL     1     -10.681  10.702  69.201  1.00  0.00    -0.228 A  
HETATM    9  C   UNL     1     -12.612  11.111  71.172  1.00  0.00    -0.513 A  
HETATM   10  C   UNL     1     -11.335  11.930  69.291  1.00  0.00    -0.338 A  
HETATM   11  C   UNL     1     -12.315  12.127  70.263  1.00  0.00    -0.269 A  
ENDROOT
BRANCH   8  12
HETATM   12  O   UNL     1      -9.672  10.621  68.264  1.00  0.00    -0.152 OA 
BRANCH  12  13
HETATM   13  C   UNL     1      -8.469  11.248  68.507  1.00  0.00    -0.156 A  
HETATM   14  C   UNL     1      -7.590  10.583  69.363  1.00  0.00    -0.145 A  
HETATM   15  C   UNL     1      -6.392  11.190  69.745  1.00  0.00    -0.130 A  
HETATM   16  C   UNL     1      -6.073  12.463  69.274  1.00  0.00    -0.095 A  
HETATM   17  C   UNL     1      -6.913  13.099  68.364  1.00  0.00    -0.104 A  
HETATM   18  C   UNL     1      -8.085  12.471  67.945  1.00  0.00    -0.163 A  
ENDBRANCH  12  13
ENDBRANCH   8  12
TORSDOF 2
ENDMDL
MODEL      119
REMARK 921   NORMALIZED FREE ENERGY PREDICTED BY IDOCK:   -4.18 KCAL/MOL
REMARK 922        TOTAL FREE ENERGY PREDICTED BY IDOCK:   -5.09 KCAL/MOL
REMARK 923 INTER-LIGAND FREE ENERGY PREDICTED BY IDOCK:   -4.72 KCAL/MOL
REMARK 924 INTRA-LIGAND FREE ENERGY PREDICTED BY IDOCK:   -0.37 KCAL/MOL
REMARK 927      BINDING AFFINITY PREDICTED BY RF-SCORE:    0.00 PKD
ROOT
HETATM    1  C   UNL     1     -11.669   6.530  72.302  1.00  0.00    -0.320 C  
HETATM    2  C   UNL     1     -10.969   7.861  72.558  1.00  0.00    -0.412 C  
HETATM    3  C   UNL     1      -9.474   7.768  72.241  1.00  0.00    -0.170 C  
HETATM    4  C   UNL     1     -11.689   8.998  71.846  1.00  0.00    -0.445 A  
HETATM    5  O   UNL     1      -8.809   8.941  72.402  1.00  0.00    -0.396 OA 
HETATM    6  O   UNL     1      -8.886   6.743  71.922  1.00  0.00    -0.135 OA 
HETATM    7  C   UNL     1     -11.359   9.373  70.535  1.00  0.00    -0.328 A  
HETATM    8  C   UNL     1     -11.888  10.543  69.974  1.00  0.00    -0.308 A  
HETATM    9  C   UNL     1     -12.696   9.713  72.512  1.00  0.00    -0.130 A  
HETATM   10  C   UNL     1     -12.899  11.232  70.642  1.00  0.00    -0.226 A  
HETATM   11  C   UNL     1     -13.317  10.805  71.902  1.00  0.00    -0.445 A  
ENDROOT
BRANCH   8  12
HETATM   12  O   UNL     1     -11.482  11.080  68.770  1.00  0.00    -0.255 OA 
BRANCH  12  13
HETATM   13  C   UNL     1     -10.377  10.557  68.132  1.00  0.00    -0.172 A  
HETATM   14  C   UNL     1     -10.618   9.496  67.258  1.00  0.00    -0.317 A  
HETATM   15  C   UNL     1      -9.549   8.839  66.645  1.00  0.00    -0.283 A  
HETATM   16  C   UNL     1      -8.239   9.241  66.908  1.00  0.00    -0.119 A  
HETATM   17  C   UNL     1      -8.000  10.344  67.722  1.00  0.00    -0.102 A  
HETATM   18  C   UNL     1      -9.071  11.030  68.295  1.00  0.00    -0.158 A  
ENDBRANCH  12  13
ENDBRANCH   8  12
TORSDOF 2
ENDMDL
MODEL      120
REMARK 921   NORMALIZED FREE ENERGY PREDICTED BY IDOCK:   -4.17 KCAL/MOL
REMARK 922        TOTAL FREE ENERGY PREDICTED BY IDOCK:   -5.08 KCAL/MOL
REMARK 923 INTER-LIGAND FREE ENERGY PREDICTED BY IDOCK:   -4.74 KCAL/MOL
REMARK 924 INTRA-LIGAND FREE ENERGY PREDICTED BY IDOCK:   -0.35 KCAL/MOL
REMARK 927      BINDING AFFINITY PREDICTED BY RF-SCORE:    0.00 PKD
ROOT
HETATM    1  C   UNL     1      -6.636  12.631  67.257  1.00  0.00    -0.109 C  
HETATM    2  C   UNL     1      -7.421  11.584  66.475  1.00  0.00    -0.022 C  
HETATM    3  C   UNL     1      -7.011  10.167  66.886  1.00  0.00    -0.089 C  
HETATM    4  C   UNL     1      -8.918  11.851  66.561  1.00  0.00    -0.199 A  
HETATM    5  O   UNL     1      -7.716   9.192  66.257  1.00  0.00    -0.094 OA 
HETATM    6  O   UNL     1      -6.105   9.895  67.662  1.00  0.00    -0.053 OA 
HETATM    7  C   UNL     1      -9.707  11.302  67.583  1.00  0.00    -0.183 A  
HETATM    8  C   UNL     1     -11.103  11.393  67.531  1.00  0.00    -0.281 A  
HETATM    9  C   UNL     1      -9.543  12.647  65.589  1.00  0.00    -0.076 A  
HETATM   10  C   UNL     1     -11.706  12.201  66.568  1.00  0.00    -0.392 A  
HETATM   11  C   UNL     1     -10.924  12.843  65.610  1.00  0.00    -0.297 A  
ENDROOT
BRANCH   8  12
HETATM   12  O   UNL     1     -11.958  10.733  68.389  1.00  0.00    -0.508 OA 
BRANCH  12  13
HETATM   13  C   UNL     1     -12.281  11.309  69.600  1.00  0.00    -0.271 A  
HETATM   14  C   UNL     1     -12.745  10.440  70.588  1.00  0.00    -0.417 A  
HETATM   15  C   UNL     1     -13.192  10.946  71.811  1.00  0.00    -0.513 A  
HETATM   16  C   UNL     1     -13.177  12.321  72.045  1.00  0.00    -0.508 A  
HETATM   17  C   UNL     1     -12.648  13.183  71.089  1.00  0.00    -0.403 A  
HETATM   18  C   UNL     1     -12.157  12.672  69.888  1.00  0.00    -0.322 A  
ENDBRANCH  12  13
ENDBRANCH   8  12
TORSDOF 2
ENDMDL
MODEL      121
REMARK 921   NORMALIZED FREE ENERGY PREDICTED BY IDOCK:   -4.15 KCAL/MOL
REMARK 922        TOTAL FREE ENERGY PREDICTED BY IDOCK:   -5.06 KCAL/MOL
REMARK 923 INTER-LIGAND FREE ENERGY PREDICTED BY IDOCK:   -4.65 KCAL/MOL
REMARK 924 INTRA-LIGAND FREE ENERGY PREDICTED BY IDOCK:   -0.41 KCAL/MOL
REMARK 927      BINDING AFFINITY PREDICTED BY RF-SCORE:    0.00 PKD
ROOT
HETATM    1  C   UNL     1      -7.373   8.749  67.854  1.00  0.00    -0.088 C  
HETATM    2  C   UNL     1      -7.857   9.706  66.770  1.00  0.00    -0.102 C  
HETATM    3  C   UNL     1      -8.856   9.019  65.834  1.00  0.00    -0.175 C  
HETATM    4  C   UNL     1      -8.365  11.005  67.381  1.00  0.00    -0.126 A  
HETATM    5  O   UNL     1      -9.361   9.842  64.879  1.00  0.00    -0.241 OA 
HETATM    6  O   UNL     1      -9.157   7.834  65.875  1.00  0.00    -0.156 OA 
HETATM    7  C   UNL     1      -9.706  11.167  67.759  1.00  0.00    -0.183 A  
HETATM    8  C   UNL     1     -10.195  12.426  68.128  1.00  0.00    -0.225 A  
HETATM    9  C   UNL     1      -7.487  12.085  67.557  1.00  0.00    -0.140 A  
HETATM   10  C   UNL     1      -9.306  13.484  68.314  1.00  0.00    -0.205 A  
HETATM   11  C   UNL     1      -7.949  13.307  68.048  1.00  0.00    -0.152 A  
ENDROOT
BRANCH   8  12
HETATM   12  O   UNL     1     -11.528  12.712  68.339  1.00  0.00    -0.263 OA 
BRANCH  12  13
HETATM   13  C   UNL     1     -12.030  12.698  69.623  1.00  0.00    -0.286 A  
HETATM   14  C   UNL     1     -12.256  11.439  70.181  1.00  0.00    -0.401 A  
HETATM   15  C   UNL     1     -12.857  11.327  71.436  1.00  0.00    -0.515 A  
HETATM   16  C   UNL     1     -13.236  12.475  72.134  1.00  0.00    -0.508 A  
HETATM   17  C   UNL     1     -12.947  13.732  71.612  1.00  0.00    -0.448 A  
HETATM   18  C   UNL     1     -12.302  13.842  70.380  1.00  0.00    -0.433 A  
ENDBRANCH  12  13
ENDBRANCH   8  12
TORSDOF 2
ENDMDL
MODEL      122
REMARK 921   NORMALIZED FREE ENERGY PREDICTED BY IDOCK:   -4.14 KCAL/MOL
REMARK 922        TOTAL FREE ENERGY PREDICTED BY IDOCK:   -5.05 KCAL/MOL
REMARK 923 INTER-LIGAND FREE ENERGY PREDICTED BY IDOCK:   -4.67 KCAL/MOL
REMARK 924 INTRA-LIGAND FREE ENERGY PREDICTED BY IDOCK:   -0.39 KCAL/MOL
REMARK 927      BINDING AFFINITY PREDICTED BY RF-SCORE:    0.00 PKD
ROOT
HETATM    1  C   UNL     1     -10.685  16.799  70.251  1.00  0.00     0.105 C  
HETATM    2  C   UNL     1      -9.543  17.041  69.270  1.00  0.00    -0.040 C  
HETATM    3  C   UNL     1      -8.669  15.792  69.122  1.00  0.00    -0.253 C  
HETATM    4  C   UNL     1     -10.068  17.596  67.953  1.00  0.00    -0.345 A  
HETATM    5  O   UNL     1      -7.665  15.934  68.219  1.00  0.00    -0.132 OA 
HETATM    6  O   UNL     1      -8.797  14.764  69.773  1.00  0.00     0.115 OA 
HETATM    7  C   UNL     1     -10.450  16.753  66.898  1.00  0.00    -0.269 A  
HETATM    8  C   UNL     1     -10.737  17.281  65.633  1.00  0.00    -0.120 A  
HETATM    9  C   UNL     1     -10.158  18.984  67.765  1.00  0.00    -0.453 A  
HETATM   10  C   UNL     1     -10.838  18.662  65.469  1.00  0.00     0.113 A  
HETATM   11  C   UNL     1     -10.568  19.512  66.540  1.00  0.00    -0.579 A  
ENDROOT
BRANCH   8  12
HETATM   12  O   UNL     1     -10.944  16.520  64.501  1.00  0.00    -0.827 OA 
BRANCH  12  13
HETATM   13  C   UNL     1     -11.185  15.168  64.627  1.00  0.00    -0.343 A  
HETATM   14  C   UNL     1     -12.526  14.782  64.634  1.00  0.00    -0.252 A  
HETATM   15  C   UNL     1     -12.869  13.448  64.858  1.00  0.00    -0.292 A  
HETATM   16  C   UNL     1     -11.870  12.498  65.080  1.00  0.00    -0.445 A  
HETATM   17  C   UNL     1     -10.531  12.867  65.003  1.00  0.00    -0.337 A  
HETATM   18  C   UNL     1     -10.189  14.191  64.730  1.00  0.00    -0.311 A  
ENDBRANCH  12  13
ENDBRANCH   8  12
TORSDOF 2
ENDMDL
MODEL      123
REMARK 921   NORMALIZED FREE ENERGY PREDICTED BY IDOCK:   -4.14 KCAL/MOL
REMARK 922        TOTAL FREE ENERGY PREDICTED BY IDOCK:   -5.05 KCAL/MOL
REMARK 923 INTER-LIGAND FREE ENERGY PREDICTED BY IDOCK:   -4.69 KCAL/MOL
REMARK 924 INTRA-LIGAND FREE ENERGY PREDICTED BY IDOCK:   -0.36 KCAL/MOL
REMARK 927      BINDING AFFINITY PREDICTED BY RF-SCORE:    0.00 PKD
ROOT
HETATM    1  C   UNL     1      -8.165  19.277  68.881  1.00  0.00    -0.344 C  
HETATM    2  C   UNL     1      -8.582  18.451  67.669  1.00  0.00    -0.268 C  
HETATM    3  C   UNL     1      -7.379  18.136  66.775  1.00  0.00    -0.209 C  
HETATM    4  C   UNL     1      -9.380  17.226  68.096  1.00  0.00    -0.274 A  
HETATM    5  O   UNL     1      -7.684  17.357  65.706  1.00  0.00    -0.508 OA 
HETATM    6  O   UNL     1      -6.247  18.569  66.943  1.00  0.00    -0.170 OA 
HETATM    7  C   UNL     1      -8.755  16.004  68.388  1.00  0.00    -0.186 A  
HETATM    8  C   UNL     1      -9.516  14.844  68.581  1.00  0.00    -0.208 A  
HETATM    9  C   UNL     1     -10.779  17.299  68.183  1.00  0.00    -0.363 A  
HETATM   10  C   UNL     1     -10.903  14.937  68.681  1.00  0.00    -0.253 A  
HETATM   11  C   UNL     1     -11.532  16.168  68.502  1.00  0.00    -0.324 A  
ENDROOT
BRANCH   8  12
HETATM   12  O   UNL     1      -8.985  13.576  68.693  1.00  0.00    -0.124 OA 
BRANCH  12  13
HETATM   13  C   UNL     1      -9.568  12.532  68.006  1.00  0.00    -0.212 A  
HETATM   14  C   UNL     1     -10.194  11.558  68.785  1.00  0.00    -0.204 A  
HETATM   15  C   UNL     1     -10.723  10.415  68.184  1.00  0.00    -0.277 A  
HETATM   16  C   UNL     1     -10.624  10.243  66.802  1.00  0.00    -0.252 A  
HETATM   17  C   UNL     1     -10.065  11.246  66.016  1.00  0.00    -0.283 A  
HETATM   18  C   UNL     1      -9.581  12.409  66.613  1.00  0.00    -0.230 A  
ENDBRANCH  12  13
ENDBRANCH   8  12
TORSDOF 2
ENDMDL
MODEL      124
REMARK 921   NORMALIZED FREE ENERGY PREDICTED BY IDOCK:   -4.12 KCAL/MOL
REMARK 922        TOTAL FREE ENERGY PREDICTED BY IDOCK:   -5.02 KCAL/MOL
REMARK 923 INTER-LIGAND FREE ENERGY PREDICTED BY IDOCK:   -4.54 KCAL/MOL
REMARK 924 INTRA-LIGAND FREE ENERGY PREDICTED BY IDOCK:   -0.49 KCAL/MOL
REMARK 927      BINDING AFFINITY PREDICTED BY RF-SCORE:    0.00 PKD
ROOT
HETATM    1  C   UNL     1     -11.993  14.613  73.389  1.00  0.00    -0.144 C  
HETATM    2  C   UNL     1     -12.870  14.391  72.162  1.00  0.00    -0.418 C  
HETATM    3  C   UNL     1     -12.810  15.594  71.217  1.00  0.00    -0.487 C  
HETATM    4  C   UNL     1     -12.549  13.058  71.500  1.00  0.00    -0.279 A  
HETATM    5  O   UNL     1     -13.534  15.429  70.079  1.00  0.00     0.147 OA 
HETATM    6  O   UNL     1     -12.222  16.641  71.449  1.00  0.00     0.190 OA 
HETATM    7  C   UNL     1     -11.572  12.949  70.499  1.00  0.00     0.221 A  
HETATM    8  C   UNL     1     -11.433  11.764  69.765  1.00  0.00    -0.245 A  
HETATM    9  C   UNL     1     -13.255  11.904  71.873  1.00  0.00    -0.467 A  
HETATM   10  C   UNL     1     -12.130  10.623  70.160  1.00  0.00    -0.414 A  
HETATM   11  C   UNL     1     -13.025  10.689  71.226  1.00  0.00    -0.513 A  
ENDROOT
BRANCH   8  12
HETATM   12  O   UNL     1     -10.630  11.629  68.652  1.00  0.00    -0.197 OA 
BRANCH  12  13
HETATM   13  C   UNL     1     -10.888  12.389  67.531  1.00  0.00    -0.236 A  
HETATM   14  C   UNL     1     -10.081  13.513  67.352  1.00  0.00    -0.237 A  
HETATM   15  C   UNL     1     -10.336  14.397  66.302  1.00  0.00    -0.300 A  
HETATM   16  C   UNL     1     -11.399  14.159  65.431  1.00  0.00    -0.322 A  
HETATM   17  C   UNL     1     -12.161  13.002  65.564  1.00  0.00    -0.521 A  
HETATM   18  C   UNL     1     -11.875  12.095  66.584  1.00  0.00    -0.314 A  
ENDBRANCH  12  13
ENDBRANCH   8  12
TORSDOF 2
ENDMDL
MODEL      125
REMARK 921   NORMALIZED FREE ENERGY PREDICTED BY IDOCK:   -4.10 KCAL/MOL
REMARK 922        TOTAL FREE ENERGY PREDICTED BY IDOCK:   -5.00 KCAL/MOL
REMARK 923 INTER-LIGAND FREE ENERGY PREDICTED BY IDOCK:   -4.49 KCAL/MOL
REMARK 924 INTRA-LIGAND FREE ENERGY PREDICTED BY IDOCK:   -0.52 KCAL/MOL
REMARK 927      BINDING AFFINITY PREDICTED BY RF-SCORE:    0.00 PKD
ROOT
HETATM    1  C   UNL     1      -7.929  10.944  67.349  1.00  0.00    -0.113 C  
HETATM    2  C   UNL     1      -8.256  12.104  68.283  1.00  0.00    -0.168 C  
HETATM    3  C   UNL     1      -7.010  12.945  68.576  1.00  0.00    -0.098 C  
HETATM    4  C   UNL     1      -9.441  12.905  67.758  1.00  0.00    -0.202 A  
HETATM    5  O   UNL     1      -7.255  14.024  69.362  1.00  0.00    -0.078 OA 
HETATM    6  O   UNL     1      -5.877  12.675  68.201  1.00  0.00    -0.060 OA 
HETATM    7  C   UNL     1      -9.268  13.992  66.889  1.00  0.00    -0.271 A  
HETATM    8  C   UNL     1     -10.344  14.835  66.580  1.00  0.00    -0.286 A  
HETATM    9  C   UNL     1     -10.743  12.572  68.161  1.00  0.00    -0.246 A  
HETATM   10  C   UNL     1     -11.633  14.481  66.976  1.00  0.00    -0.402 A  
HETATM   11  C   UNL     1     -11.834  13.338  67.749  1.00  0.00    -0.394 A  
ENDROOT
BRANCH   8  12
HETATM   12  O   UNL     1     -10.228  16.021  65.885  1.00  0.00    -0.321 OA 
BRANCH  12  13
HETATM   13  C   UNL     1      -9.731  17.136  66.526  1.00  0.00    -0.287 A  
HETATM   14  C   UNL     1      -8.481  17.585  66.095  1.00  0.00    -0.177 A  
HETATM   15  C   UNL     1      -7.855  18.645  66.753  1.00  0.00    -0.258 A  
HETATM   16  C   UNL     1      -8.475  19.256  67.844  1.00  0.00    -0.343 A  
HETATM   17  C   UNL     1      -9.752  18.857  68.229  1.00  0.00    -0.412 A  
HETATM   18  C   UNL     1     -10.397  17.831  67.541  1.00  0.00    -0.371 A  
ENDBRANCH  12  13
ENDBRANCH   8  12
TORSDOF 2
ENDMDL
MODEL      126
REMARK 921   NORMALIZED FREE ENERGY PREDICTED BY IDOCK:   -4.10 KCAL/MOL
REMARK 922        TOTAL FREE ENERGY PREDICTED BY IDOCK:   -5.00 KCAL/MOL
REMARK 923 INTER-LIGAND FREE ENERGY PREDICTED BY IDOCK:   -4.82 KCAL/MOL
REMARK 924 INTRA-LIGAND FREE ENERGY PREDICTED BY IDOCK:   -0.18 KCAL/MOL
REMARK 927      BINDING AFFINITY PREDICTED BY RF-SCORE:    0.00 PKD
ROOT
HETATM    1  C   UNL     1      -8.588   8.300  72.076  1.00  0.00    -0.238 C  
HETATM    2  C   UNL     1      -9.711   7.771  71.190  1.00  0.00    -0.175 C  
HETATM    3  C   UNL     1     -11.034   7.702  71.958  1.00  0.00    -0.246 C  
HETATM    4  C   UNL     1      -9.785   8.552  69.885  1.00  0.00    -0.179 A  
HETATM    5  O   UNL     1     -12.082   7.287  71.201  1.00  0.00    -0.316 OA 
HETATM    6  O   UNL     1     -11.167   7.940  73.150  1.00  0.00    -0.382 OA 
HETATM    7  C   UNL     1     -10.579   9.702  69.759  1.00  0.00    -0.267 A  
HETATM    8  C   UNL     1     -10.792  10.287  68.503  1.00  0.00    -0.240 A  
HETATM    9  C   UNL     1      -9.065   8.112  68.764  1.00  0.00    -0.144 A  
HETATM   10  C   UNL     1     -10.055   9.846  67.404  1.00  0.00    -0.254 A  
HETATM   11  C   UNL     1      -9.177   8.773  67.540  1.00  0.00    -0.154 A  
ENDROOT
BRANCH   8  12
HETATM   12  O   UNL     1     -11.693  11.301  68.261  1.00  0.00    -0.427 OA 
BRANCH  12  13
HETATM   13  C   UNL     1     -11.773  12.363  69.138  1.00  0.00    -0.322 A  
HETATM   14  C   UNL     1     -11.343  13.597  68.649  1.00  0.00    -0.321 A  
HETATM   15  C   UNL     1     -11.292  14.706  69.497  1.00  0.00    -0.314 A  
HETATM   16  C   UNL     1     -11.668  14.580  70.835  1.00  0.00    -0.308 A  
HETATM   17  C   UNL     1     -12.164  13.368  71.306  1.00  0.00    -0.163 A  
HETATM   18  C   UNL     1     -12.261  12.275  70.447  1.00  0.00    -0.371 A  
ENDBRANCH  12  13
ENDBRANCH   8  12
TORSDOF 2
ENDMDL
MODEL      127
REMARK 921   NORMALIZED FREE ENERGY PREDICTED BY IDOCK:   -4.09 KCAL/MOL
REMARK 922        TOTAL FREE ENERGY PREDICTED BY IDOCK:   -4.99 KCAL/MOL
REMARK 923 INTER-LIGAND FREE ENERGY PREDICTED BY IDOCK:   -4.61 KCAL/MOL
REMARK 924 INTRA-LIGAND FREE ENERGY PREDICTED BY IDOCK:   -0.38 KCAL/MOL
REMARK 927      BINDING AFFINITY PREDICTED BY RF-SCORE:    0.00 PKD
ROOT
HETATM    1  C   UNL     1     -10.071  13.614  64.720  1.00  0.00    -0.268 C  
HETATM    2  C   UNL     1     -10.431  12.976  66.058  1.00  0.00    -0.289 C  
HETATM    3  C   UNL     1     -11.796  12.286  65.991  1.00  0.00    -0.341 C  
HETATM    4  C   UNL     1      -9.301  12.082  66.553  1.00  0.00    -0.226 A  
HETATM    5  O   UNL     1     -12.144  11.654  67.141  1.00  0.00    -0.575 OA 
HETATM    6  O   UNL     1     -12.554  12.320  65.031  1.00  0.00    -0.575 OA 
HETATM    7  C   UNL     1      -9.238  10.721  66.216  1.00  0.00    -0.195 A  
HETATM    8  C   UNL     1      -8.312   9.876  66.840  1.00  0.00    -0.124 A  
HETATM    9  C   UNL     1      -8.304  12.611  67.385  1.00  0.00    -0.184 A  
HETATM   10  C   UNL     1      -7.318  10.421  67.652  1.00  0.00    -0.088 A  
HETATM   11  C   UNL     1      -7.303  11.791  67.907  1.00  0.00    -0.098 A  
ENDROOT
BRANCH   8  12
HETATM   12  O   UNL     1      -8.298   8.503  66.705  1.00  0.00    -0.106 OA 
BRANCH  12  13
HETATM   13  C   UNL     1      -9.201   7.742  67.417  1.00  0.00    -0.136 A  
HETATM   14  C   UNL     1      -9.179   7.901  68.803  1.00  0.00    -0.143 A  
HETATM   15  C   UNL     1      -9.987   7.098  69.612  1.00  0.00    -0.176 A  
HETATM   16  C   UNL     1     -10.814   6.134  69.035  1.00  0.00    -0.416 A  
HETATM   17  C   UNL     1     -10.890   6.023  67.649  1.00  0.00    -0.386 A  
HETATM   18  C   UNL     1     -10.120   6.858  66.842  1.00  0.00    -0.286 A  
ENDBRANCH  12  13
ENDBRANCH   8  12
TORSDOF 2
ENDMDL
MODEL      128
REMARK 921   NORMALIZED FREE ENERGY PREDICTED BY IDOCK:   -4.08 KCAL/MOL
REMARK 922        TOTAL FREE ENERGY PREDICTED BY IDOCK:   -4.98 KCAL/MOL
REMARK 923 INTER-LIGAND FREE ENERGY PREDICTED BY IDOCK:   -4.54 KCAL/MOL
REMARK 924 INTRA-LIGAND FREE ENERGY PREDICTED BY IDOCK:   -0.44 KCAL/MOL
REMARK 927      BINDING AFFINITY PREDICTED BY RF-SCORE:    0.00 PKD
ROOT
HETATM    1  C   UNL     1     -10.322   8.304  72.712  1.00  0.00    -0.330 C  
HETATM    2  C   UNL     1     -11.367   7.258  72.340  1.00  0.00    -0.324 C  
HETATM    3  C   UNL     1     -12.721   7.911  72.047  1.00  0.00    -0.279 C  
HETATM    4  C   UNL     1     -10.856   6.352  71.227  1.00  0.00    -0.306 A  
HETATM    5  O   UNL     1     -13.678   7.030  71.659  1.00  0.00    -0.351 OA 
HETATM    6  O   UNL     1     -12.972   9.100  72.187  1.00  0.00    -0.372 OA 
HETATM    7  C   UNL     1     -11.061   6.661  69.874  1.00  0.00    -0.403 A  
HETATM    8  C   UNL     1     -10.764   5.722  68.877  1.00  0.00    -0.263 A  
HETATM    9  C   UNL     1     -10.181   5.165  71.547  1.00  0.00    -0.274 A  
HETATM   10  C   UNL     1     -10.079   4.555  69.211  1.00  0.00    -0.102 A  
HETATM   11  C   UNL     1      -9.770   4.287  70.543  1.00  0.00    -0.282 A  
ENDROOT
BRANCH   8  12
HETATM   12  O   UNL     1     -11.098   5.869  67.547  1.00  0.00    -0.245 OA 
BRANCH  12  13
HETATM   13  C   UNL     1     -10.099   5.921  66.598  1.00  0.00    -0.183 A  
HETATM   14  C   UNL     1     -10.022   4.834  65.727  1.00  0.00    -0.225 A  
HETATM   15  C   UNL     1      -8.980   4.753  64.801  1.00  0.00    -0.146 A  
HETATM   16  C   UNL     1      -8.013   5.757  64.746  1.00  0.00    -0.124 A  
HETATM   17  C   UNL     1      -8.128   6.877  65.565  1.00  0.00    -0.132 A  
HETATM   18  C   UNL     1      -9.196   6.981  66.456  1.00  0.00    -0.198 A  
ENDBRANCH  12  13
ENDBRANCH   8  12
TORSDOF 2
ENDMDL
MODEL      129
REMARK 921   NORMALIZED FREE ENERGY PREDICTED BY IDOCK:   -4.08 KCAL/MOL
REMARK 922        TOTAL FREE ENERGY PREDICTED BY IDOCK:   -4.98 KCAL/MOL
REMARK 923 INTER-LIGAND FREE ENERGY PREDICTED BY IDOCK:   -4.84 KCAL/MOL
REMARK 924 INTRA-LIGAND FREE ENERGY PREDICTED BY IDOCK:   -0.14 KCAL/MOL
REMARK 927      BINDING AFFINITY PREDICTED BY RF-SCORE:    0.00 PKD
ROOT
HETATM    1  C   UNL     1     -10.234  10.884  64.708  1.00  0.00    -0.398 C  
HETATM    2  C   UNL     1      -9.331  11.015  65.930  1.00  0.00    -0.229 C  
HETATM    3  C   UNL     1      -9.415  12.421  66.530  1.00  0.00    -0.242 C  
HETATM    4  C   UNL     1      -9.600   9.893  66.925  1.00  0.00    -0.225 A  
HETATM    5  O   UNL     1      -8.670  12.579  67.654  1.00  0.00    -0.158 OA 
HETATM    6  O   UNL     1     -10.039  13.355  66.046  1.00  0.00    -0.293 OA 
HETATM    7  C   UNL     1     -10.558  10.024  67.941  1.00  0.00    -0.298 A  
HETATM    8  C   UNL     1     -10.649   9.070  68.962  1.00  0.00    -0.190 A  
HETATM    9  C   UNL     1      -8.864   8.701  66.850  1.00  0.00    -0.147 A  
HETATM   10  C   UNL     1      -9.922   7.884  68.864  1.00  0.00    -0.194 A  
HETATM   11  C   UNL     1      -9.046   7.692  67.797  1.00  0.00    -0.131 A  
ENDROOT
BRANCH   8  12
HETATM   12  O   UNL     1     -11.431   9.208  70.090  1.00  0.00    -0.208 OA 
BRANCH  12  13
HETATM   13  C   UNL     1     -11.323   8.285  71.108  1.00  0.00    -0.263 A  
HETATM   14  C   UNL     1     -10.436   8.605  72.136  1.00  0.00    -0.411 A  
HETATM   15  C   UNL     1     -10.186   7.685  73.156  1.00  0.00    -0.401 A  
HETATM   16  C   UNL     1     -10.823   6.443  73.148  1.00  0.00    -0.282 A  
HETATM   17  C   UNL     1     -11.762   6.150  72.164  1.00  0.00    -0.361 A  
HETATM   18  C   UNL     1     -12.046   7.089  71.173  1.00  0.00    -0.412 A  
ENDBRANCH  12  13
ENDBRANCH   8  12
TORSDOF 2
ENDMDL
MODEL      130
REMARK 921   NORMALIZED FREE ENERGY PREDICTED BY IDOCK:   -4.07 KCAL/MOL
REMARK 922        TOTAL FREE ENERGY PREDICTED BY IDOCK:   -4.97 KCAL/MOL
REMARK 923 INTER-LIGAND FREE ENERGY PREDICTED BY IDOCK:   -4.52 KCAL/MOL
REMARK 924 INTRA-LIGAND FREE ENERGY PREDICTED BY IDOCK:   -0.46 KCAL/MOL
REMARK 927      BINDING AFFINITY PREDICTED BY RF-SCORE:    0.00 PKD
ROOT
HETATM    1  C   UNL     1      -9.177   4.986  69.415  1.00  0.00    -0.156 C  
HETATM    2  C   UNL     1      -8.851   5.976  68.301  1.00  0.00    -0.111 C  
HETATM    3  C   UNL     1      -9.673   5.681  67.043  1.00  0.00    -0.143 C  
HETATM    4  C   UNL     1      -8.964   7.410  68.800  1.00  0.00    -0.129 A  
HETATM    5  O   UNL     1      -9.461   6.565  66.035  1.00  0.00    -0.083 OA 
HETATM    6  O   UNL     1     -10.420   4.723  66.901  1.00  0.00    -0.194 OA 
HETATM    7  C   UNL     1     -10.170   8.123  68.726  1.00  0.00    -0.221 A  
HETATM    8  C   UNL     1     -10.204   9.496  69.001  1.00  0.00    -0.200 A  
HETATM    9  C   UNL     1      -7.837   8.057  69.330  1.00  0.00    -0.113 A  
HETATM   10  C   UNL     1      -9.079  10.119  69.542  1.00  0.00    -0.213 A  
HETATM   11  C   UNL     1      -7.903   9.394  69.725  1.00  0.00    -0.115 A  
ENDROOT
BRANCH   8  12
HETATM   12  O   UNL     1     -11.298  10.306  68.781  1.00  0.00    -0.230 OA 
BRANCH  12  13
HETATM   13  C   UNL     1     -11.861  10.988  69.839  1.00  0.00    -0.353 A  
HETATM   14  C   UNL     1     -12.419  10.202  70.848  1.00  0.00    -0.455 A  
HETATM   15  C   UNL     1     -13.101  10.804  71.907  1.00  0.00    -0.557 A  
HETATM   16  C   UNL     1     -13.228  12.193  71.957  1.00  0.00    -0.496 A  
HETATM   17  C   UNL     1     -12.611  12.982  70.990  1.00  0.00    -0.386 A  
HETATM   18  C   UNL     1     -11.889  12.381  69.960  1.00  0.00    -0.363 A  
ENDBRANCH  12  13
ENDBRANCH   8  12
TORSDOF 2
ENDMDL
MODEL      131
REMARK 921   NORMALIZED FREE ENERGY PREDICTED BY IDOCK:   -4.07 KCAL/MOL
REMARK 922        TOTAL FREE ENERGY PREDICTED BY IDOCK:   -4.97 KCAL/MOL
REMARK 923 INTER-LIGAND FREE ENERGY PREDICTED BY IDOCK:   -4.62 KCAL/MOL
REMARK 924 INTRA-LIGAND FREE ENERGY PREDICTED BY IDOCK:   -0.35 KCAL/MOL
REMARK 927      BINDING AFFINITY PREDICTED BY RF-SCORE:    0.00 PKD
ROOT
HETATM    1  C   UNL     1      -7.311  11.022  69.284  1.00  0.00    -0.113 C  
HETATM    2  C   UNL     1      -7.140  11.410  67.819  1.00  0.00    -0.081 C  
HETATM    3  C   UNL     1      -7.725  10.341  66.893  1.00  0.00    -0.105 C  
HETATM    4  C   UNL     1      -7.669  12.816  67.564  1.00  0.00    -0.168 A  
HETATM    5  O   UNL     1      -7.647  10.659  65.575  1.00  0.00    -0.143 OA 
HETATM    6  O   UNL     1      -8.182   9.267  67.261  1.00  0.00    -0.118 OA 
HETATM    7  C   UNL     1      -9.004  13.045  67.199  1.00  0.00    -0.223 A  
HETATM    8  C   UNL     1      -9.418  14.314  66.775  1.00  0.00    -0.275 A  
HETATM    9  C   UNL     1      -6.807  13.917  67.672  1.00  0.00    -0.193 A  
HETATM   10  C   UNL     1      -8.553  15.400  66.905  1.00  0.00    -0.291 A  
HETATM   11  C   UNL     1      -7.255  15.204  67.372  1.00  0.00    -0.231 A  
ENDROOT
BRANCH   8  12
HETATM   12  O   UNL     1     -10.655  14.587  66.231  1.00  0.00    -0.292 OA 
BRANCH  12  13
HETATM   13  C   UNL     1     -11.174  13.746  65.269  1.00  0.00    -0.307 A  
HETATM   14  C   UNL     1     -12.554  13.546  65.308  1.00  0.00    -0.517 A  
HETATM   15  C   UNL     1     -13.153  12.633  64.437  1.00  0.00    -0.071 A  
HETATM   16  C   UNL     1     -12.371  11.918  63.529  1.00  0.00    -0.603 A  
HETATM   17  C   UNL     1     -11.005  12.169  63.439  1.00  0.00    -0.480 A  
HETATM   18  C   UNL     1     -10.416  13.116  64.276  1.00  0.00    -0.410 A  
ENDBRANCH  12  13
ENDBRANCH   8  12
TORSDOF 2
ENDMDL
MODEL      132
REMARK 921   NORMALIZED FREE ENERGY PREDICTED BY IDOCK:   -4.06 KCAL/MOL
REMARK 922        TOTAL FREE ENERGY PREDICTED BY IDOCK:   -4.96 KCAL/MOL
REMARK 923 INTER-LIGAND FREE ENERGY PREDICTED BY IDOCK:   -4.44 KCAL/MOL
REMARK 924 INTRA-LIGAND FREE ENERGY PREDICTED BY IDOCK:   -0.52 KCAL/MOL
REMARK 927      BINDING AFFINITY PREDICTED BY RF-SCORE:    0.00 PKD
ROOT
HETATM    1  C   UNL     1      -8.104   7.014  69.348  1.00  0.00    -0.130 C  
HETATM    2  C   UNL     1      -8.036   8.460  69.826  1.00  0.00    -0.117 C  
HETATM    3  C   UNL     1      -7.302   9.342  68.811  1.00  0.00    -0.075 C  
HETATM    4  C   UNL     1      -9.419   8.969  70.212  1.00  0.00    -0.230 A  
HETATM    5  O   UNL     1      -7.258  10.653  69.161  1.00  0.00    -0.080 OA 
HETATM    6  O   UNL     1      -6.750   8.936  67.798  1.00  0.00    -0.064 OA 
HETATM    7  C   UNL     1     -10.263   9.589  69.278  1.00  0.00    -0.212 A  
HETATM    8  C   UNL     1     -11.438  10.227  69.694  1.00  0.00    -0.235 A  
HETATM    9  C   UNL     1      -9.866   8.842  71.535  1.00  0.00    -0.384 A  
HETATM   10  C   UNL     1     -11.876  10.077  71.009  1.00  0.00    -0.476 A  
HETATM   11  C   UNL     1     -11.100   9.367  71.924  1.00  0.00    -0.194 A  
ENDROOT
BRANCH   8  12
HETATM   12  O   UNL     1     -12.229  11.010  68.879  1.00  0.00    -0.519 OA 
BRANCH  12  13
HETATM   13  C   UNL     1     -11.648  12.011  68.128  1.00  0.00    -0.340 A  
HETATM   14  C   UNL     1     -11.909  11.981  66.758  1.00  0.00    -0.244 A  
HETATM   15  C   UNL     1     -11.282  12.893  65.906  1.00  0.00    -0.323 A  
HETATM   16  C   UNL     1     -10.391  13.834  66.424  1.00  0.00    -0.290 A  
HETATM   17  C   UNL     1     -10.184  13.912  67.799  1.00  0.00    -0.237 A  
HETATM   18  C   UNL     1     -10.848  13.032  68.653  1.00  0.00    -0.287 A  
ENDBRANCH  12  13
ENDBRANCH   8  12
TORSDOF 2
ENDMDL
MODEL      133
REMARK 921   NORMALIZED FREE ENERGY PREDICTED BY IDOCK:   -4.05 KCAL/MOL
REMARK 922        TOTAL FREE ENERGY PREDICTED BY IDOCK:   -4.95 KCAL/MOL
REMARK 923 INTER-LIGAND FREE ENERGY PREDICTED BY IDOCK:   -4.61 KCAL/MOL
REMARK 924 INTRA-LIGAND FREE ENERGY PREDICTED BY IDOCK:   -0.34 KCAL/MOL
REMARK 927      BINDING AFFINITY PREDICTED BY RF-SCORE:    0.00 PKD
ROOT
HETATM    1  C   UNL     1      -5.752  11.803  68.374  1.00  0.00    -0.049 C  
HETATM    2  C   UNL     1      -7.157  12.330  68.644  1.00  0.00    -0.103 C  
HETATM    3  C   UNL     1      -7.384  13.676  67.950  1.00  0.00    -0.148 C  
HETATM    4  C   UNL     1      -8.205  11.274  68.317  1.00  0.00    -0.143 A  
HETATM    5  O   UNL     1      -8.639  14.168  68.113  1.00  0.00    -0.159 OA 
HETATM    6  O   UNL     1      -6.529  14.305  67.341  1.00  0.00    -0.307 OA 
HETATM    7  C   UNL     1      -8.771  11.168  67.038  1.00  0.00    -0.148 A  
HETATM    8  C   UNL     1      -9.870  10.330  66.813  1.00  0.00    -0.197 A  
HETATM    9  C   UNL     1      -8.642  10.391  69.316  1.00  0.00    -0.159 A  
HETATM   10  C   UNL     1     -10.280   9.448  67.811  1.00  0.00    -0.273 A  
HETATM   11  C   UNL     1      -9.653   9.464  69.055  1.00  0.00    -0.164 A  
ENDROOT
BRANCH   8  12
HETATM   12  O   UNL     1     -10.598  10.300  65.642  1.00  0.00    -0.134 OA 
BRANCH  12  13
HETATM   13  C   UNL     1     -11.107  11.474  65.128  1.00  0.00    -0.194 A  
HETATM   14  C   UNL     1     -11.624  12.377  66.057  1.00  0.00    -0.455 A  
HETATM   15  C   UNL     1     -12.252  13.546  65.622  1.00  0.00    -0.500 A  
HETATM   16  C   UNL     1     -12.365  13.812  64.257  1.00  0.00    -0.384 A  
HETATM   17  C   UNL     1     -11.786  12.948  63.331  1.00  0.00    -0.576 A  
HETATM   18  C   UNL     1     -11.117  11.806  63.769  1.00  0.00    -0.513 A  
ENDBRANCH  12  13
ENDBRANCH   8  12
TORSDOF 2
ENDMDL
MODEL      134
REMARK 921   NORMALIZED FREE ENERGY PREDICTED BY IDOCK:   -4.04 KCAL/MOL
REMARK 922        TOTAL FREE ENERGY PREDICTED BY IDOCK:   -4.94 KCAL/MOL
REMARK 923 INTER-LIGAND FREE ENERGY PREDICTED BY IDOCK:   -4.52 KCAL/MOL
REMARK 924 INTRA-LIGAND FREE ENERGY PREDICTED BY IDOCK:   -0.42 KCAL/MOL
REMARK 927      BINDING AFFINITY PREDICTED BY RF-SCORE:    0.00 PKD
ROOT
HETATM    1  C   UNL     1     -12.770  10.385  70.827  1.00  0.00    -0.460 C  
HETATM    2  C   UNL     1     -11.418  10.787  70.247  1.00  0.00    -0.406 C  
HETATM    3  C   UNL     1     -10.530   9.561  70.019  1.00  0.00    -0.247 C  
HETATM    4  C   UNL     1     -11.596  11.668  69.018  1.00  0.00    -0.379 A  
HETATM    5  O   UNL     1      -9.331   9.855  69.454  1.00  0.00    -0.187 OA 
HETATM    6  O   UNL     1     -10.814   8.417  70.347  1.00  0.00    -0.229 OA 
HETATM    7  C   UNL     1     -11.694  11.123  67.729  1.00  0.00    -0.220 A  
HETATM    8  C   UNL     1     -11.654  11.952  66.600  1.00  0.00    -0.264 A  
HETATM    9  C   UNL     1     -11.641  13.063  69.159  1.00  0.00    -0.368 A  
HETATM   10  C   UNL     1     -11.716  13.336  66.759  1.00  0.00    -0.434 A  
HETATM   11  C   UNL     1     -11.730  13.890  68.038  1.00  0.00    -0.387 A  
ENDROOT
BRANCH   8  12
HETATM   12  O   UNL     1     -11.564  11.495  65.303  1.00  0.00    -0.117 OA 
BRANCH  12  13
HETATM   13  C   UNL     1     -10.340  11.098  64.806  1.00  0.00    -0.325 A  
HETATM   14  C   UNL     1      -9.747  11.954  63.877  1.00  0.00    -0.203 A  
HETATM   15  C   UNL     1      -8.558  11.585  63.246  1.00  0.00     0.372 A  
HETATM   16  C   UNL     1      -7.961  10.359  63.541  1.00  0.00    -0.101 A  
HETATM   17  C   UNL     1      -8.512   9.536  64.519  1.00  0.00    -0.191 A  
HETATM   18  C   UNL     1      -9.673   9.927  65.184  1.00  0.00    -0.376 A  
ENDBRANCH  12  13
ENDBRANCH   8  12
TORSDOF 2
ENDMDL
MODEL      135
REMARK 921   NORMALIZED FREE ENERGY PREDICTED BY IDOCK:   -4.02 KCAL/MOL
REMARK 922        TOTAL FREE ENERGY PREDICTED BY IDOCK:   -4.92 KCAL/MOL
REMARK 923 INTER-LIGAND FREE ENERGY PREDICTED BY IDOCK:   -4.38 KCAL/MOL
REMARK 924 INTRA-LIGAND FREE ENERGY PREDICTED BY IDOCK:   -0.54 KCAL/MOL
REMARK 927      BINDING AFFINITY PREDICTED BY RF-SCORE:    0.00 PKD
ROOT
HETATM    1  C   UNL     1      -8.970   5.462  66.945  1.00  0.00    -0.110 C  
HETATM    2  C   UNL     1      -8.831   6.580  67.972  1.00  0.00    -0.114 C  
HETATM    3  C   UNL     1      -9.744   7.760  67.630  1.00  0.00    -0.155 C  
HETATM    4  C   UNL     1      -9.008   6.043  69.386  1.00  0.00    -0.126 A  
HETATM    5  O   UNL     1      -9.700   8.766  68.541  1.00  0.00    -0.156 OA 
HETATM    6  O   UNL     1     -10.424   7.852  66.616  1.00  0.00    -0.296 OA 
HETATM    7  C   UNL     1     -10.268   5.988  70.001  1.00  0.00    -0.264 A  
HETATM    8  C   UNL     1     -10.383   5.683  71.364  1.00  0.00    -0.228 A  
HETATM    9  C   UNL     1      -7.890   5.608  70.114  1.00  0.00    -0.091 A  
HETATM   10  C   UNL     1      -9.264   5.237  72.067  1.00  0.00    -0.154 A  
HETATM   11  C   UNL     1      -8.023   5.181  71.436  1.00  0.00    -0.112 A  
ENDROOT
BRANCH   8  12
HETATM   12  O   UNL     1     -11.553   5.781  72.086  1.00  0.00    -0.276 OA 
BRANCH  12  13
HETATM   13  C   UNL     1     -12.273   6.957  72.055  1.00  0.00    -0.282 A  
HETATM   14  C   UNL     1     -13.598   6.855  71.631  1.00  0.00    -0.275 A  
HETATM   15  C   UNL     1     -14.372   8.006  71.471  1.00  0.00    -0.546 A  
HETATM   16  C   UNL     1     -13.821   9.260  71.733  1.00  0.00    -0.391 A  
HETATM   17  C   UNL     1     -12.522   9.360  72.224  1.00  0.00    -0.338 A  
HETATM   18  C   UNL     1     -11.767   8.206  72.430  1.00  0.00    -0.461 A  
ENDBRANCH  12  13
ENDBRANCH   8  12
TORSDOF 2
ENDMDL
MODEL      136
REMARK 921   NORMALIZED FREE ENERGY PREDICTED BY IDOCK:   -4.02 KCAL/MOL
REMARK 922        TOTAL FREE ENERGY PREDICTED BY IDOCK:   -4.92 KCAL/MOL
REMARK 923 INTER-LIGAND FREE ENERGY PREDICTED BY IDOCK:   -4.40 KCAL/MOL
REMARK 924 INTRA-LIGAND FREE ENERGY PREDICTED BY IDOCK:   -0.52 KCAL/MOL
REMARK 927      BINDING AFFINITY PREDICTED BY RF-SCORE:    0.00 PKD
ROOT
HETATM    1  C   UNL     1     -10.726   5.961  73.686  1.00  0.00    -0.260 C  
HETATM    2  C   UNL     1     -10.244   7.407  73.635  1.00  0.00    -0.380 C  
HETATM    3  C   UNL     1      -8.721   7.486  73.765  1.00  0.00    -0.223 C  
HETATM    4  C   UNL     1     -10.806   8.124  72.414  1.00  0.00    -0.409 A  
HETATM    5  O   UNL     1      -8.231   8.750  73.674  1.00  0.00    -0.366 OA 
HETATM    6  O   UNL     1      -7.984   6.534  73.982  1.00  0.00    -0.106 OA 
HETATM    7  C   UNL     1     -10.128   8.128  71.186  1.00  0.00    -0.222 A  
HETATM    8  C   UNL     1     -10.556   8.955  70.139  1.00  0.00    -0.222 A  
HETATM    9  C   UNL     1     -12.020   8.820  72.510  1.00  0.00    -0.301 A  
HETATM   10  C   UNL     1     -11.773   9.627  70.245  1.00  0.00    -0.213 A  
HETATM   11  C   UNL     1     -12.514   9.543  71.422  1.00  0.00    -0.450 A  
ENDROOT
BRANCH   8  12
HETATM   12  O   UNL     1      -9.852   9.157  68.971  1.00  0.00    -0.166 OA 
BRANCH  12  13
HETATM   13  C   UNL     1      -9.691   8.112  68.086  1.00  0.00    -0.161 A  
HETATM   14  C   UNL     1      -8.387   7.869  67.653  1.00  0.00    -0.124 A  
HETATM   15  C   UNL     1      -8.143   6.898  66.679  1.00  0.00    -0.110 A  
HETATM   16  C   UNL     1      -9.203   6.171  66.137  1.00  0.00    -0.150 A  
HETATM   17  C   UNL     1     -10.495   6.361  66.618  1.00  0.00    -0.240 A  
HETATM   18  C   UNL     1     -10.731   7.297  67.625  1.00  0.00    -0.294 A  
ENDBRANCH  12  13
ENDBRANCH   8  12
TORSDOF 2
ENDMDL
MODEL      137
REMARK 921   NORMALIZED FREE ENERGY PREDICTED BY IDOCK:   -4.02 KCAL/MOL
REMARK 922        TOTAL FREE ENERGY PREDICTED BY IDOCK:   -4.91 KCAL/MOL
REMARK 923 INTER-LIGAND FREE ENERGY PREDICTED BY IDOCK:   -4.40 KCAL/MOL
REMARK 924 INTRA-LIGAND FREE ENERGY PREDICTED BY IDOCK:   -0.51 KCAL/MOL
REMARK 927      BINDING AFFINITY PREDICTED BY RF-SCORE:    0.00 PKD
ROOT
HETATM    1  C   UNL     1      -7.492   5.384  67.672  1.00  0.00    -0.084 C  
HETATM    2  C   UNL     1      -8.511   6.493  67.433  1.00  0.00    -0.119 C  
HETATM    3  C   UNL     1      -9.942   5.956  67.523  1.00  0.00    -0.143 C  
HETATM    4  C   UNL     1      -8.233   7.688  68.334  1.00  0.00    -0.125 A  
HETATM    5  O   UNL     1     -10.893   6.912  67.370  1.00  0.00    -0.287 OA 
HETATM    6  O   UNL     1     -10.242   4.778  67.667  1.00  0.00    -0.125 OA 
HETATM    7  C   UNL     1      -8.804   7.796  69.611  1.00  0.00    -0.139 A  
HETATM    8  C   UNL     1      -8.700   8.988  70.339  1.00  0.00    -0.199 A  
HETATM    9  C   UNL     1      -7.406   8.728  67.882  1.00  0.00    -0.088 A  
HETATM   10  C   UNL     1      -7.861  10.004  69.883  1.00  0.00    -0.185 A  
HETATM   11  C   UNL     1      -7.198   9.864  68.665  1.00  0.00    -0.072 A  
ENDROOT
BRANCH   8  12
HETATM   12  O   UNL     1      -9.376   9.243  71.514  1.00  0.00    -0.287 OA 
BRANCH  12  13
HETATM   13  C   UNL     1     -10.753   9.327  71.501  1.00  0.00    -0.355 A  
HETATM   14  C   UNL     1     -11.299  10.328  70.697  1.00  0.00    -0.431 A  
HETATM   15  C   UNL     1     -12.677  10.553  70.700  1.00  0.00    -0.441 A  
HETATM   16  C   UNL     1     -13.510   9.778  71.508  1.00  0.00    -0.417 A  
HETATM   17  C   UNL     1     -12.975   8.733  72.256  1.00  0.00    -0.462 A  
HETATM   18  C   UNL     1     -11.605   8.478  72.215  1.00  0.00    -0.444 A  
ENDBRANCH  12  13
ENDBRANCH   8  12
TORSDOF 2
ENDMDL
MODEL      138
REMARK 921   NORMALIZED FREE ENERGY PREDICTED BY IDOCK:   -4.02 KCAL/MOL
REMARK 922        TOTAL FREE ENERGY PREDICTED BY IDOCK:   -4.91 KCAL/MOL
REMARK 923 INTER-LIGAND FREE ENERGY PREDICTED BY IDOCK:   -4.52 KCAL/MOL
REMARK 924 INTRA-LIGAND FREE ENERGY PREDICTED BY IDOCK:   -0.40 KCAL/MOL
REMARK 927      BINDING AFFINITY PREDICTED BY RF-SCORE:    0.00 PKD
ROOT
HETATM    1  C   UNL     1      -8.969   6.670  66.160  1.00  0.00    -0.157 C  
HETATM    2  C   UNL     1     -10.117   6.895  67.139  1.00  0.00    -0.272 C  
HETATM    3  C   UNL     1     -10.295   5.690  68.066  1.00  0.00    -0.202 C  
HETATM    4  C   UNL     1      -9.958   8.225  67.864  1.00  0.00    -0.227 A  
HETATM    5  O   UNL     1     -11.271   5.857  68.995  1.00  0.00    -0.315 OA 
HETATM    6  O   UNL     1      -9.674   4.639  67.980  1.00  0.00    -0.152 OA 
HETATM    7  C   UNL     1      -9.252   8.325  69.073  1.00  0.00    -0.147 A  
HETATM    8  C   UNL     1      -9.289   9.507  69.823  1.00  0.00    -0.211 A  
HETATM    9  C   UNL     1     -10.546   9.384  67.336  1.00  0.00    -0.326 A  
HETATM   10  C   UNL     1      -9.863  10.654  69.275  1.00  0.00    -0.201 A  
HETATM   11  C   UNL     1     -10.472  10.597  68.023  1.00  0.00    -0.228 A  
ENDROOT
BRANCH   8  12
HETATM   12  O   UNL     1      -8.778   9.635  71.097  1.00  0.00    -0.180 OA 
BRANCH  12  13
HETATM   13  C   UNL     1      -9.098   8.695  72.055  1.00  0.00    -0.241 A  
HETATM   14  C   UNL     1     -10.450   8.367  72.165  1.00  0.00    -0.396 A  
HETATM   15  C   UNL     1     -10.879   7.501  73.173  1.00  0.00    -0.448 A  
HETATM   16  C   UNL     1      -9.958   6.966  74.073  1.00  0.00    -0.371 A  
HETATM   17  C   UNL     1      -8.600   7.235  73.922  1.00  0.00    -0.218 A  
HETATM   18  C   UNL     1      -8.168   8.061  72.885  1.00  0.00    -0.221 A  
ENDBRANCH  12  13
ENDBRANCH   8  12
TORSDOF 2
ENDMDL
MODEL      139
REMARK 921   NORMALIZED FREE ENERGY PREDICTED BY IDOCK:   -3.97 KCAL/MOL
REMARK 922        TOTAL FREE ENERGY PREDICTED BY IDOCK:   -4.86 KCAL/MOL
REMARK 923 INTER-LIGAND FREE ENERGY PREDICTED BY IDOCK:   -4.34 KCAL/MOL
REMARK 924 INTRA-LIGAND FREE ENERGY PREDICTED BY IDOCK:   -0.53 KCAL/MOL
REMARK 927      BINDING AFFINITY PREDICTED BY RF-SCORE:    0.00 PKD
ROOT
HETATM    1  C   UNL     1     -12.045  15.417  69.971  1.00  0.00    -0.388 C  
HETATM    2  C   UNL     1     -11.735  15.559  68.484  1.00  0.00    -0.351 C  
HETATM    3  C   UNL     1     -10.823  16.761  68.223  1.00  0.00    -0.366 C  
HETATM    4  C   UNL     1     -11.220  14.246  67.910  1.00  0.00    -0.305 A  
HETATM    5  O   UNL     1     -10.472  16.905  66.920  1.00  0.00    -0.312 OA 
HETATM    6  O   UNL     1     -10.465  17.568  69.070  1.00  0.00    -0.350 OA 
HETATM    7  C   UNL     1      -9.852  13.934  67.899  1.00  0.00    -0.228 A  
HETATM    8  C   UNL     1      -9.381  12.821  67.190  1.00  0.00    -0.216 A  
HETATM    9  C   UNL     1     -12.120  13.325  67.353  1.00  0.00    -0.327 A  
HETATM   10  C   UNL     1     -10.290  11.908  66.657  1.00  0.00    -0.242 A  
HETATM   11  C   UNL     1     -11.659  12.150  66.757  1.00  0.00    -0.412 A  
ENDROOT
BRANCH   8  12
HETATM   12  O   UNL     1      -8.047  12.543  66.977  1.00  0.00    -0.169 OA 
BRANCH  12  13
HETATM   13  C   UNL     1      -7.237  12.240  68.051  1.00  0.00    -0.102 A  
HETATM   14  C   UNL     1      -7.384  10.961  68.590  1.00  0.00    -0.101 A  
HETATM   15  C   UNL     1      -6.679  10.602  69.740  1.00  0.00    -0.130 A  
HETATM   16  C   UNL     1      -5.829  11.522  70.354  1.00  0.00    -0.155 A  
HETATM   17  C   UNL     1      -5.626  12.773  69.778  1.00  0.00    -0.101 A  
HETATM   18  C   UNL     1      -6.293  13.113  68.602  1.00  0.00    -0.083 A  
ENDBRANCH  12  13
ENDBRANCH   8  12
TORSDOF 2
ENDMDL
MODEL      140
REMARK 921   NORMALIZED FREE ENERGY PREDICTED BY IDOCK:   -3.96 KCAL/MOL
REMARK 922        TOTAL FREE ENERGY PREDICTED BY IDOCK:   -4.85 KCAL/MOL
REMARK 923 INTER-LIGAND FREE ENERGY PREDICTED BY IDOCK:   -4.86 KCAL/MOL
REMARK 924 INTRA-LIGAND FREE ENERGY PREDICTED BY IDOCK:    0.01 KCAL/MOL
REMARK 927      BINDING AFFINITY PREDICTED BY RF-SCORE:    0.00 PKD
ROOT
HETATM    1  C   UNL     1     -12.955  15.154  69.608  1.00  0.00     0.291 C  
HETATM    2  C   UNL     1     -11.675  15.203  68.781  1.00  0.00    -0.366 C  
HETATM    3  C   UNL     1     -10.451  15.428  69.673  1.00  0.00    -0.280 C  
HETATM    4  C   UNL     1     -11.570  13.987  67.871  1.00  0.00    -0.377 A  
HETATM    5  O   UNL     1      -9.275  15.428  68.994  1.00  0.00    -0.202 OA 
HETATM    6  O   UNL     1     -10.489  15.643  70.877  1.00  0.00    -0.109 OA 
HETATM    7  C   UNL     1     -10.944  12.803  68.292  1.00  0.00    -0.278 A  
HETATM    8  C   UNL     1     -10.680  11.774  67.379  1.00  0.00    -0.236 A  
HETATM    9  C   UNL     1     -12.087  14.042  66.568  1.00  0.00    -0.488 A  
HETATM   10  C   UNL     1     -11.216  11.839  66.093  1.00  0.00    -0.363 A  
HETATM   11  C   UNL     1     -11.936  12.963  65.695  1.00  0.00    -0.490 A  
ENDROOT
BRANCH   8  12
HETATM   12  O   UNL     1      -9.916  10.661  67.662  1.00  0.00    -0.164 OA 
BRANCH  12  13
HETATM   13  C   UNL     1      -9.987  10.090  68.915  1.00  0.00    -0.192 A  
HETATM   14  C   UNL     1     -11.220  10.179  69.562  1.00  0.00    -0.288 A  
HETATM   15  C   UNL     1     -11.357   9.719  70.873  1.00  0.00    -0.439 A  
HETATM   16  C   UNL     1     -10.260   9.171  71.539  1.00  0.00    -0.403 A  
HETATM   17  C   UNL     1      -9.049   9.015  70.872  1.00  0.00    -0.309 A  
HETATM   18  C   UNL     1      -8.926   9.431  69.546  1.00  0.00    -0.167 A  
ENDBRANCH  12  13
ENDBRANCH   8  12
TORSDOF 2
ENDMDL
MODEL      141
REMARK 921   NORMALIZED FREE ENERGY PREDICTED BY IDOCK:   -3.95 KCAL/MOL
REMARK 922        TOTAL FREE ENERGY PREDICTED BY IDOCK:   -4.83 KCAL/MOL
REMARK 923 INTER-LIGAND FREE ENERGY PREDICTED BY IDOCK:   -4.47 KCAL/MOL
REMARK 924 INTRA-LIGAND FREE ENERGY PREDICTED BY IDOCK:   -0.36 KCAL/MOL
REMARK 927      BINDING AFFINITY PREDICTED BY RF-SCORE:    0.00 PKD
ROOT
HETATM    1  C   UNL     1      -7.492   4.421  65.690  1.00  0.00    -0.081 C  
HETATM    2  C   UNL     1      -8.870   4.940  65.296  1.00  0.00    -0.152 C  
HETATM    3  C   UNL     1      -9.838   3.785  65.025  1.00  0.00    -0.175 C  
HETATM    4  C   UNL     1      -9.378   5.956  66.311  1.00  0.00    -0.168 A  
HETATM    5  O   UNL     1     -11.098   4.191  64.720  1.00  0.00    -0.278 OA 
HETATM    6  O   UNL     1      -9.534   2.600  65.021  1.00  0.00    -0.142 OA 
HETATM    7  C   UNL     1     -10.130   5.567  67.430  1.00  0.00    -0.215 A  
HETATM    8  C   UNL     1     -10.755   6.526  68.236  1.00  0.00    -0.278 A  
HETATM    9  C   UNL     1      -9.113   7.321  66.126  1.00  0.00    -0.160 A  
HETATM   10  C   UNL     1     -10.468   7.878  68.048  1.00  0.00    -0.245 A  
HETATM   11  C   UNL     1      -9.631   8.273  67.007  1.00  0.00    -0.249 A  
ENDROOT
BRANCH   8  12
HETATM   12  O   UNL     1     -11.654   6.232  69.240  1.00  0.00    -0.363 OA 
BRANCH  12  13
HETATM   13  C   UNL     1     -11.321   6.505  70.551  1.00  0.00    -0.367 A  
HETATM   14  C   UNL     1     -10.576   5.527  71.211  1.00  0.00    -0.304 A  
HETATM   15  C   UNL     1     -10.280   5.670  72.568  1.00  0.00    -0.225 A  
HETATM   16  C   UNL     1     -10.732   6.791  73.267  1.00  0.00    -0.330 A  
HETATM   17  C   UNL     1     -11.413   7.801  72.594  1.00  0.00    -0.430 A  
HETATM   18  C   UNL     1     -11.665   7.679  71.228  1.00  0.00    -0.308 A  
ENDBRANCH  12  13
ENDBRANCH   8  12
TORSDOF 2
ENDMDL
MODEL      142
REMARK 921   NORMALIZED FREE ENERGY PREDICTED BY IDOCK:   -3.94 KCAL/MOL
REMARK 922        TOTAL FREE ENERGY PREDICTED BY IDOCK:   -4.83 KCAL/MOL
REMARK 923 INTER-LIGAND FREE ENERGY PREDICTED BY IDOCK:   -4.63 KCAL/MOL
REMARK 924 INTRA-LIGAND FREE ENERGY PREDICTED BY IDOCK:   -0.20 KCAL/MOL
REMARK 927      BINDING AFFINITY PREDICTED BY RF-SCORE:    0.00 PKD
ROOT
HETATM    1  C   UNL     1      -8.077   3.579  69.557  1.00  0.00    -0.064 C  
HETATM    2  C   UNL     1      -7.992   4.992  70.125  1.00  0.00    -0.077 C  
HETATM    3  C   UNL     1      -8.022   6.038  69.008  1.00  0.00    -0.104 C  
HETATM    4  C   UNL     1      -9.042   5.204  71.208  1.00  0.00    -0.173 A  
HETATM    5  O   UNL     1      -8.002   7.318  69.460  1.00  0.00    -0.122 OA 
HETATM    6  O   UNL     1      -8.012   5.787  67.810  1.00  0.00    -0.097 OA 
HETATM    7  C   UNL     1     -10.326   5.681  70.907  1.00  0.00    -0.303 A  
HETATM    8  C   UNL     1     -11.204   6.059  71.931  1.00  0.00    -0.282 A  
HETATM    9  C   UNL     1      -8.724   4.941  72.550  1.00  0.00    -0.121 A  
HETATM   10  C   UNL     1     -10.879   5.776  73.257  1.00  0.00    -0.306 A  
HETATM   11  C   UNL     1      -9.648   5.199  73.564  1.00  0.00    -0.143 A  
ENDROOT
BRANCH   8  12
HETATM   12  O   UNL     1     -12.406   6.702  71.726  1.00  0.00    -0.345 OA 
BRANCH  12  13
HETATM   13  C   UNL     1     -12.422   8.068  71.534  1.00  0.00    -0.310 A  
HETATM   14  C   UNL     1     -11.366   8.596  70.791  1.00  0.00    -0.299 A  
HETATM   15  C   UNL     1     -11.245   9.978  70.633  1.00  0.00    -0.425 A  
HETATM   16  C   UNL     1     -12.179  10.833  71.220  1.00  0.00    -0.426 A  
HETATM   17  C   UNL     1     -13.272  10.306  71.901  1.00  0.00    -0.550 A  
HETATM   18  C   UNL     1     -13.418   8.924  72.017  1.00  0.00    -0.482 A  
ENDBRANCH  12  13
ENDBRANCH   8  12
TORSDOF 2
ENDMDL
MODEL      143
REMARK 921   NORMALIZED FREE ENERGY PREDICTED BY IDOCK:   -3.89 KCAL/MOL
REMARK 922        TOTAL FREE ENERGY PREDICTED BY IDOCK:   -4.77 KCAL/MOL
REMARK 923 INTER-LIGAND FREE ENERGY PREDICTED BY IDOCK:   -4.62 KCAL/MOL
REMARK 924 INTRA-LIGAND FREE ENERGY PREDICTED BY IDOCK:   -0.15 KCAL/MOL
REMARK 927      BINDING AFFINITY PREDICTED BY RF-SCORE:    0.00 PKD
ROOT
HETATM    1  C   UNL     1     -14.409  15.332  71.818  1.00  0.00    -0.678 C  
HETATM    2  C   UNL     1     -12.912  15.379  71.532  1.00  0.00    -0.521 C  
HETATM    3  C   UNL     1     -12.100  15.143  72.809  1.00  0.00    -0.381 C  
HETATM    4  C   UNL     1     -12.551  14.450  70.381  1.00  0.00    -0.405 A  
HETATM    5  O   UNL     1     -10.758  15.122  72.604  1.00  0.00     0.521 OA 
HETATM    6  O   UNL     1     -12.573  15.033  73.932  1.00  0.00    -0.535 OA 
HETATM    7  C   UNL     1     -12.204  13.108  70.598  1.00  0.00    -0.402 A  
HETATM    8  C   UNL     1     -11.682  12.330  69.556  1.00  0.00    -0.332 A  
HETATM    9  C   UNL     1     -12.538  14.939  69.066  1.00  0.00     0.207 A  
HETATM   10  C   UNL     1     -11.692  12.826  68.254  1.00  0.00    -0.388 A  
HETATM   11  C   UNL     1     -12.139  14.123  68.006  1.00  0.00    -0.303 A  
ENDROOT
BRANCH   8  12
HETATM   12  O   UNL     1     -11.151  11.068  69.720  1.00  0.00    -0.259 OA 
BRANCH  12  13
HETATM   13  C   UNL     1     -10.289  10.566  68.768  1.00  0.00    -0.191 A  
HETATM   14  C   UNL     1      -9.055  11.207  68.658  1.00  0.00    -0.166 A  
HETATM   15  C   UNL     1      -8.159  10.833  67.655  1.00  0.00    -0.114 A  
HETATM   16  C   UNL     1      -8.498   9.819  66.758  1.00  0.00    -0.125 A  
HETATM   17  C   UNL     1      -9.697   9.130  66.910  1.00  0.00    -0.254 A  
HETATM   18  C   UNL     1     -10.570   9.472  67.942  1.00  0.00    -0.299 A  
ENDBRANCH  12  13
ENDBRANCH   8  12
TORSDOF 2
ENDMDL
MODEL      144
REMARK 921   NORMALIZED FREE ENERGY PREDICTED BY IDOCK:   -3.86 KCAL/MOL
REMARK 922        TOTAL FREE ENERGY PREDICTED BY IDOCK:   -4.73 KCAL/MOL
REMARK 923 INTER-LIGAND FREE ENERGY PREDICTED BY IDOCK:   -4.28 KCAL/MOL
REMARK 924 INTRA-LIGAND FREE ENERGY PREDICTED BY IDOCK:   -0.45 KCAL/MOL
REMARK 927      BINDING AFFINITY PREDICTED BY RF-SCORE:    0.00 PKD
ROOT
HETATM    1  C   UNL     1      -6.884  20.151  68.904  1.00  0.00    -0.269 C  
HETATM    2  C   UNL     1      -7.644  20.038  67.587  1.00  0.00    -0.327 C  
HETATM    3  C   UNL     1      -6.694  20.148  66.391  1.00  0.00    -0.221 C  
HETATM    4  C   UNL     1      -8.524  18.795  67.573  1.00  0.00    -0.288 A  
HETATM    5  O   UNL     1      -7.310  20.001  65.190  1.00  0.00    -0.330 OA 
HETATM    6  O   UNL     1      -5.498  20.395  66.465  1.00  0.00    -0.168 OA 
HETATM    7  C   UNL     1      -8.049  17.560  67.106  1.00  0.00    -0.229 A  
HETATM    8  C   UNL     1      -8.927  16.486  66.913  1.00  0.00    -0.219 A  
HETATM    9  C   UNL     1      -9.853  18.875  68.016  1.00  0.00    -0.404 A  
HETATM   10  C   UNL     1     -10.240  16.578  67.373  1.00  0.00    -0.287 A  
HETATM   11  C   UNL     1     -10.696  17.765  67.943  1.00  0.00    -0.327 A  
ENDROOT
BRANCH   8  12
HETATM   12  O   UNL     1      -8.584  15.303  66.293  1.00  0.00    -0.241 OA 
BRANCH  12  13
HETATM   13  C   UNL     1      -8.511  14.144  67.035  1.00  0.00    -0.156 A  
HETATM   14  C   UNL     1      -7.415  14.031  67.893  1.00  0.00    -0.153 A  
HETATM   15  C   UNL     1      -7.205  12.850  68.607  1.00  0.00    -0.098 A  
HETATM   16  C   UNL     1      -8.088  11.780  68.463  1.00  0.00    -0.140 A  
HETATM   17  C   UNL     1      -9.220  11.915  67.665  1.00  0.00    -0.183 A  
HETATM   18  C   UNL     1      -9.455  13.112  66.989  1.00  0.00    -0.242 A  
ENDBRANCH  12  13
ENDBRANCH   8  12
TORSDOF 2
ENDMDL
MODEL      145
REMARK 921   NORMALIZED FREE ENERGY PREDICTED BY IDOCK:   -3.86 KCAL/MOL
REMARK 922        TOTAL FREE ENERGY PREDICTED BY IDOCK:   -4.73 KCAL/MOL
REMARK 923 INTER-LIGAND FREE ENERGY PREDICTED BY IDOCK:   -4.99 KCAL/MOL
REMARK 924 INTRA-LIGAND FREE ENERGY PREDICTED BY IDOCK:    0.26 KCAL/MOL
REMARK 927      BINDING AFFINITY PREDICTED BY RF-SCORE:    0.00 PKD
ROOT
HETATM    1  C   UNL     1      -7.840  19.218  69.165  1.00  0.00    -0.250 C  
HETATM    2  C   UNL     1      -7.640  19.239  67.654  1.00  0.00    -0.275 C  
HETATM    3  C   UNL     1      -6.224  18.792  67.278  1.00  0.00    -0.178 C  
HETATM    4  C   UNL     1      -8.747  18.467  66.949  1.00  0.00    -0.287 A  
HETATM    5  O   UNL     1      -6.006  18.742  65.939  1.00  0.00    -0.158 OA 
HETATM    6  O   UNL     1      -5.331  18.544  68.077  1.00  0.00    -0.167 OA 
HETATM    7  C   UNL     1      -8.634  17.095  66.683  1.00  0.00    -0.284 A  
HETATM    8  C   UNL     1      -9.567  16.449  65.861  1.00  0.00    -0.274 A  
HETATM    9  C   UNL     1      -9.907  19.136  66.529  1.00  0.00    -0.429 A  
HETATM   10  C   UNL     1     -10.721  17.124  65.466  1.00  0.00    -0.124 A  
HETATM   11  C   UNL     1     -10.900  18.461  65.818  1.00  0.00    -0.025 A  
ENDROOT
BRANCH   8  12
HETATM   12  O   UNL     1      -9.436  15.155  65.403  1.00  0.00    -0.204 OA 
BRANCH  12  13
HETATM   13  C   UNL     1     -10.564  14.388  65.202  1.00  0.00    -0.410 A  
HETATM   14  C   UNL     1     -10.455  13.373  64.252  1.00  0.00    -0.325 A  
HETATM   15  C   UNL     1     -11.575  12.612  63.909  1.00  0.00    -0.521 A  
HETATM   16  C   UNL     1     -12.806  12.869  64.515  1.00  0.00    -0.273 A  
HETATM   17  C   UNL     1     -12.900  13.833  65.515  1.00  0.00    -0.464 A  
HETATM   18  C   UNL     1     -11.770  14.558  65.890  1.00  0.00    -0.345 A  
ENDBRANCH  12  13
ENDBRANCH   8  12
TORSDOF 2
ENDMDL
MODEL      146
REMARK 921   NORMALIZED FREE ENERGY PREDICTED BY IDOCK:   -3.86 KCAL/MOL
REMARK 922        TOTAL FREE ENERGY PREDICTED BY IDOCK:   -4.73 KCAL/MOL
REMARK 923 INTER-LIGAND FREE ENERGY PREDICTED BY IDOCK:   -4.51 KCAL/MOL
REMARK 924 INTRA-LIGAND FREE ENERGY PREDICTED BY IDOCK:   -0.22 KCAL/MOL
REMARK 927      BINDING AFFINITY PREDICTED BY RF-SCORE:    0.00 PKD
ROOT
HETATM    1  C   UNL     1      -9.161   9.190  68.953  1.00  0.00    -0.139 C  
HETATM    2  C   UNL     1      -8.814   9.672  67.549  1.00  0.00    -0.129 C  
HETATM    3  C   UNL     1      -9.772   9.080  66.511  1.00  0.00    -0.244 C  
HETATM    4  C   UNL     1      -8.707  11.191  67.507  1.00  0.00    -0.129 A  
HETATM    5  O   UNL     1      -9.541   9.517  65.246  1.00  0.00    -0.283 OA 
HETATM    6  O   UNL     1     -10.640   8.251  66.748  1.00  0.00    -0.306 OA 
HETATM    7  C   UNL     1      -9.819  12.000  67.229  1.00  0.00    -0.200 A  
HETATM    8  C   UNL     1      -9.660  13.372  66.997  1.00  0.00    -0.244 A  
HETATM    9  C   UNL     1      -7.468  11.810  67.729  1.00  0.00    -0.117 A  
HETATM   10  C   UNL     1      -8.426  13.974  67.237  1.00  0.00    -0.220 A  
HETATM   11  C   UNL     1      -7.336  13.196  67.623  1.00  0.00    -0.155 A  
ENDROOT
BRANCH   8  12
HETATM   12  O   UNL     1     -10.662  14.205  66.543  1.00  0.00    -0.285 OA 
BRANCH  12  13
HETATM   13  C   UNL     1     -10.610  15.551  66.836  1.00  0.00    -0.307 A  
HETATM   14  C   UNL     1     -10.341  16.403  65.764  1.00  0.00    -0.388 A  
HETATM   15  C   UNL     1     -10.169  17.771  65.983  1.00  0.00    -0.296 A  
HETATM   16  C   UNL     1     -10.263  18.288  67.276  1.00  0.00    -0.387 A  
HETATM   17  C   UNL     1     -10.602  17.452  68.336  1.00  0.00    -0.355 A  
HETATM   18  C   UNL     1     -10.821  16.095  68.108  1.00  0.00    -0.329 A  
ENDBRANCH  12  13
ENDBRANCH   8  12
TORSDOF 2
ENDMDL
MODEL      147
REMARK 921   NORMALIZED FREE ENERGY PREDICTED BY IDOCK:   -3.81 KCAL/MOL
REMARK 922        TOTAL FREE ENERGY PREDICTED BY IDOCK:   -4.68 KCAL/MOL
REMARK 923 INTER-LIGAND FREE ENERGY PREDICTED BY IDOCK:   -4.21 KCAL/MOL
REMARK 924 INTRA-LIGAND FREE ENERGY PREDICTED BY IDOCK:   -0.47 KCAL/MOL
REMARK 927      BINDING AFFINITY PREDICTED BY RF-SCORE:    0.00 PKD
ROOT
HETATM    1  C   UNL     1      -7.423   7.501  64.952  1.00  0.00    -0.089 C  
HETATM    2  C   UNL     1      -8.760   7.405  65.679  1.00  0.00    -0.099 C  
HETATM    3  C   UNL     1      -8.806   6.175  66.589  1.00  0.00    -0.127 C  
HETATM    4  C   UNL     1      -9.090   8.716  66.381  1.00  0.00    -0.218 A  
HETATM    5  O   UNL     1      -9.956   6.069  67.303  1.00  0.00    -0.127 OA 
HETATM    6  O   UNL     1      -7.934   5.319  66.658  1.00  0.00    -0.103 OA 
HETATM    7  C   UNL     1      -8.685   8.967  67.701  1.00  0.00    -0.124 A  
HETATM    8  C   UNL     1      -9.168  10.085  68.393  1.00  0.00    -0.131 A  
HETATM    9  C   UNL     1      -9.836   9.698  65.713  1.00  0.00    -0.373 A  
HETATM   10  C   UNL     1      -9.894  11.059  67.709  1.00  0.00    -0.190 A  
HETATM   11  C   UNL     1     -10.210  10.875  66.364  1.00  0.00    -0.289 A  
ENDROOT
BRANCH   8  12
HETATM   12  O   UNL     1      -8.968  10.311  69.739  1.00  0.00    -0.168 OA 
BRANCH  12  13
HETATM   13  C   UNL     1      -9.791   9.697  70.660  1.00  0.00    -0.200 A  
HETATM   14  C   UNL     1      -9.174   8.794  71.527  1.00  0.00    -0.332 A  
HETATM   15  C   UNL     1      -9.943   8.050  72.424  1.00  0.00    -0.317 A  
HETATM   16  C   UNL     1     -11.329   8.207  72.454  1.00  0.00    -0.456 A  
HETATM   17  C   UNL     1     -11.938   9.158  71.640  1.00  0.00    -0.437 A  
HETATM   18  C   UNL     1     -11.164   9.935  70.779  1.00  0.00    -0.427 A  
ENDBRANCH  12  13
ENDBRANCH   8  12
TORSDOF 2
ENDMDL
MODEL      148
REMARK 921   NORMALIZED FREE ENERGY PREDICTED BY IDOCK:   -3.80 KCAL/MOL
REMARK 922        TOTAL FREE ENERGY PREDICTED BY IDOCK:   -4.67 KCAL/MOL
REMARK 923 INTER-LIGAND FREE ENERGY PREDICTED BY IDOCK:   -4.16 KCAL/MOL
REMARK 924 INTRA-LIGAND FREE ENERGY PREDICTED BY IDOCK:   -0.52 KCAL/MOL
REMARK 927      BINDING AFFINITY PREDICTED BY RF-SCORE:    0.00 PKD
ROOT
HETATM    1  C   UNL     1     -12.062  15.415  64.147  1.00  0.00    -0.104 C  
HETATM    2  C   UNL     1     -12.087  14.374  65.261  1.00  0.00    -0.380 C  
HETATM    3  C   UNL     1     -12.001  12.955  64.692  1.00  0.00    -0.392 C  
HETATM    4  C   UNL     1     -11.038  14.687  66.320  1.00  0.00    -0.336 A  
HETATM    5  O   UNL     1     -11.966  11.987  65.644  1.00  0.00    -0.479 OA 
HETATM    6  O   UNL     1     -12.013  12.674  63.501  1.00  0.00    -0.480 OA 
HETATM    7  C   UNL     1      -9.731  14.185  66.233  1.00  0.00    -0.315 A  
HETATM    8  C   UNL     1      -8.845  14.315  67.310  1.00  0.00    -0.214 A  
HETATM    9  C   UNL     1     -11.378  15.479  67.427  1.00  0.00    -0.203 A  
HETATM   10  C   UNL     1      -9.193  15.119  68.395  1.00  0.00    -0.189 A  
HETATM   11  C   UNL     1     -10.451  15.717  68.443  1.00  0.00    -0.245 A  
ENDROOT
BRANCH   8  12
HETATM   12  O   UNL     1      -7.613  13.700  67.383  1.00  0.00    -0.167 OA 
BRANCH  12  13
HETATM   13  C   UNL     1      -7.545  12.340  67.599  1.00  0.00    -0.144 A  
HETATM   14  C   UNL     1      -6.616  11.642  66.827  1.00  0.00    -0.094 A  
HETATM   15  C   UNL     1      -6.547  10.249  66.905  1.00  0.00    -0.076 A  
HETATM   16  C   UNL     1      -7.411   9.554  67.753  1.00  0.00    -0.083 A  
HETATM   17  C   UNL     1      -8.289  10.253  68.576  1.00  0.00    -0.116 A  
HETATM   18  C   UNL     1      -8.322  11.646  68.533  1.00  0.00    -0.140 A  
ENDBRANCH  12  13
ENDBRANCH   8  12
TORSDOF 2
ENDMDL
MODEL      149
REMARK 921   NORMALIZED FREE ENERGY PREDICTED BY IDOCK:   -3.79 KCAL/MOL
REMARK 922        TOTAL FREE ENERGY PREDICTED BY IDOCK:   -4.66 KCAL/MOL
REMARK 923 INTER-LIGAND FREE ENERGY PREDICTED BY IDOCK:   -4.19 KCAL/MOL
REMARK 924 INTRA-LIGAND FREE ENERGY PREDICTED BY IDOCK:   -0.47 KCAL/MOL
REMARK 927      BINDING AFFINITY PREDICTED BY RF-SCORE:    0.00 PKD
ROOT
HETATM    1  C   UNL     1      -9.742  12.518  65.603  1.00  0.00    -0.169 C  
HETATM    2  C   UNL     1     -10.091  12.565  67.086  1.00  0.00    -0.219 C  
HETATM    3  C   UNL     1     -11.569  12.240  67.316  1.00  0.00    -0.357 C  
HETATM    4  C   UNL     1      -9.129  11.706  67.897  1.00  0.00    -0.171 A  
HETATM    5  O   UNL     1     -11.925  12.216  68.626  1.00  0.00    -0.318 OA 
HETATM    6  O   UNL     1     -12.396  12.064  66.431  1.00  0.00    -0.403 OA 
HETATM    7  C   UNL     1      -9.383  10.349  68.146  1.00  0.00    -0.149 A  
HETATM    8  C   UNL     1      -8.596   9.632  69.056  1.00  0.00    -0.133 A  
HETATM    9  C   UNL     1      -7.965  12.277  68.434  1.00  0.00    -0.152 A  
HETATM   10  C   UNL     1      -7.434  10.210  69.567  1.00  0.00    -0.133 A  
HETATM   11  C   UNL     1      -7.109  11.525  69.240  1.00  0.00    -0.077 A  
ENDROOT
BRANCH   8  12
HETATM   12  O   UNL     1      -8.881   8.356  69.495  1.00  0.00    -0.142 OA 
BRANCH  12  13
HETATM   13  C   UNL     1      -9.928   8.158  70.370  1.00  0.00    -0.188 A  
HETATM   14  C   UNL     1      -9.746   8.645  71.665  1.00  0.00    -0.348 A  
HETATM   15  C   UNL     1     -10.709   8.400  72.646  1.00  0.00    -0.312 A  
HETATM   16  C   UNL     1     -11.854   7.666  72.334  1.00  0.00    -0.336 A  
HETATM   17  C   UNL     1     -12.071   7.241  71.026  1.00  0.00    -0.361 A  
HETATM   18  C   UNL     1     -11.132   7.528  70.037  1.00  0.00    -0.219 A  
ENDBRANCH  12  13
ENDBRANCH   8  12
TORSDOF 2
ENDMDL
MODEL      150
REMARK 921   NORMALIZED FREE ENERGY PREDICTED BY IDOCK:   -3.78 KCAL/MOL
REMARK 922        TOTAL FREE ENERGY PREDICTED BY IDOCK:   -4.65 KCAL/MOL
REMARK 923 INTER-LIGAND FREE ENERGY PREDICTED BY IDOCK:   -4.18 KCAL/MOL
REMARK 924 INTRA-LIGAND FREE ENERGY PREDICTED BY IDOCK:   -0.47 KCAL/MOL
REMARK 927      BINDING AFFINITY PREDICTED BY RF-SCORE:    0.00 PKD
ROOT
HETATM    1  C   UNL     1      -9.859  11.748  66.097  1.00  0.00    -0.254 C  
HETATM    2  C   UNL     1      -9.456  12.662  67.249  1.00  0.00    -0.199 C  
HETATM    3  C   UNL     1      -7.969  12.508  67.581  1.00  0.00    -0.170 C  
HETATM    4  C   UNL     1      -9.891  14.097  66.980  1.00  0.00    -0.258 A  
HETATM    5  O   UNL     1      -7.543  13.338  68.567  1.00  0.00    -0.128 OA 
HETATM    6  O   UNL     1      -7.216  11.691  67.069  1.00  0.00    -0.135 OA 
HETATM    7  C   UNL     1      -9.058  15.005  66.310  1.00  0.00    -0.288 A  
HETATM    8  C   UNL     1      -9.390  16.365  66.251  1.00  0.00    -0.315 A  
HETATM    9  C   UNL     1     -11.144  14.542  67.427  1.00  0.00    -0.320 A  
HETATM   10  C   UNL     1     -10.646  16.788  66.685  1.00  0.00    -0.198 A  
HETATM   11  C   UNL     1     -11.530  15.873  67.254  1.00  0.00     0.099 A  
ENDROOT
BRANCH   8  12
HETATM   12  O   UNL     1      -8.551  17.350  65.774  1.00  0.00    -0.526 OA 
BRANCH  12  13
HETATM   13  C   UNL     1      -7.832  18.119  66.665  1.00  0.00    -0.242 A  
HETATM   14  C   UNL     1      -6.621  17.582  67.103  1.00  0.00    -0.194 A  
HETATM   15  C   UNL     1      -5.876  18.243  68.082  1.00  0.00    -0.173 A  
HETATM   16  C   UNL     1      -6.343  19.440  68.625  1.00  0.00    -0.284 A  
HETATM   17  C   UNL     1      -7.514  20.014  68.139  1.00  0.00    -0.301 A  
HETATM   18  C   UNL     1      -8.232  19.378  67.127  1.00  0.00    -0.299 A  
ENDBRANCH  12  13
ENDBRANCH   8  12
TORSDOF 2
ENDMDL
MODEL      151
REMARK 921   NORMALIZED FREE ENERGY PREDICTED BY IDOCK:   -3.75 KCAL/MOL
REMARK 922        TOTAL FREE ENERGY PREDICTED BY IDOCK:   -4.61 KCAL/MOL
REMARK 923 INTER-LIGAND FREE ENERGY PREDICTED BY IDOCK:   -4.14 KCAL/MOL
REMARK 924 INTRA-LIGAND FREE ENERGY PREDICTED BY IDOCK:   -0.47 KCAL/MOL
REMARK 927      BINDING AFFINITY PREDICTED BY RF-SCORE:    0.00 PKD
ROOT
HETATM    1  C   UNL     1      -6.778   8.668  67.817  1.00  0.00    -0.066 C  
HETATM    2  C   UNL     1      -6.983   9.647  66.665  1.00  0.00    -0.085 C  
HETATM    3  C   UNL     1      -8.077   9.155  65.712  1.00  0.00    -0.112 C  
HETATM    4  C   UNL     1      -7.198  11.061  67.187  1.00  0.00    -0.112 A  
HETATM    5  O   UNL     1      -8.339  10.015  64.695  1.00  0.00    -0.148 OA 
HETATM    6  O   UNL     1      -8.647   8.076  65.795  1.00  0.00    -0.143 OA 
HETATM    7  C   UNL     1      -8.479  11.549  67.487  1.00  0.00    -0.143 A  
HETATM    8  C   UNL     1      -8.675  12.907  67.771  1.00  0.00    -0.188 A  
HETATM    9  C   UNL     1      -6.100  11.918  67.356  1.00  0.00    -0.119 A  
HETATM   10  C   UNL     1      -7.572  13.740  67.952  1.00  0.00    -0.157 A  
HETATM   11  C   UNL     1      -6.285  13.240  67.764  1.00  0.00    -0.159 A  
ENDROOT
BRANCH   8  12
HETATM   12  O   UNL     1      -9.912  13.503  67.899  1.00  0.00    -0.231 OA 
BRANCH  12  13
HETATM   13  C   UNL     1     -10.667  13.749  66.772  1.00  0.00    -0.276 A  
HETATM   14  C   UNL     1     -10.273  14.838  65.994  1.00  0.00    -0.320 A  
HETATM   15  C   UNL     1     -11.038  15.223  64.891  1.00  0.00    -0.435 A  
HETATM   16  C   UNL     1     -12.200  14.521  64.567  1.00  0.00    -0.483 A  
HETATM   17  C   UNL     1     -12.556  13.391  65.298  1.00  0.00    -0.518 A  
HETATM   18  C   UNL     1     -11.764  12.979  66.370  1.00  0.00    -0.444 A  
ENDBRANCH  12  13
ENDBRANCH   8  12
TORSDOF 2
ENDMDL
MODEL      152
REMARK 921   NORMALIZED FREE ENERGY PREDICTED BY IDOCK:   -3.73 KCAL/MOL
REMARK 922        TOTAL FREE ENERGY PREDICTED BY IDOCK:   -4.59 KCAL/MOL
REMARK 923 INTER-LIGAND FREE ENERGY PREDICTED BY IDOCK:   -4.56 KCAL/MOL
REMARK 924 INTRA-LIGAND FREE ENERGY PREDICTED BY IDOCK:   -0.03 KCAL/MOL
REMARK 927      BINDING AFFINITY PREDICTED BY RF-SCORE:    0.00 PKD
ROOT
HETATM    1  C   UNL     1      -9.539  15.703  69.781  1.00  0.00    -0.192 C  
HETATM    2  C   UNL     1      -8.719  15.898  68.511  1.00  0.00    -0.194 C  
HETATM    3  C   UNL     1      -7.717  14.755  68.320  1.00  0.00    -0.120 C  
HETATM    4  C   UNL     1      -9.626  16.140  67.311  1.00  0.00    -0.231 A  
HETATM    5  O   UNL     1      -6.995  14.850  67.175  1.00  0.00    -0.233 OA 
HETATM    6  O   UNL     1      -7.519  13.854  69.123  1.00  0.00    -0.081 OA 
HETATM    7  C   UNL     1     -10.109  15.082  66.527  1.00  0.00    -0.286 A  
HETATM    8  C   UNL     1     -10.771  15.336  65.319  1.00  0.00    -0.415 A  
HETATM    9  C   UNL     1      -9.979  17.451  66.956  1.00  0.00    -0.295 A  
HETATM   10  C   UNL     1     -11.128  16.643  64.989  1.00  0.00    -0.121 A  
HETATM   11  C   UNL     1     -10.749  17.697  65.818  1.00  0.00    -0.110 A  
ENDROOT
BRANCH   8  12
HETATM   12  O   UNL     1     -11.117  14.364  64.404  1.00  0.00    -0.318 OA 
BRANCH  12  13
HETATM   13  C   UNL     1     -10.855  13.040  64.687  1.00  0.00    -0.354 A  
HETATM   14  C   UNL     1     -11.466  12.523  65.829  1.00  0.00    -0.407 A  
HETATM   15  C   UNL     1     -11.178  11.224  66.250  1.00  0.00    -0.160 A  
HETATM   16  C   UNL     1     -10.275  10.440  65.530  1.00  0.00    -0.316 A  
HETATM   17  C   UNL     1      -9.719  10.928  64.351  1.00  0.00    -0.342 A  
HETATM   18  C   UNL     1     -10.045  12.208  63.905  1.00  0.00    -0.387 A  
ENDBRANCH  12  13
ENDBRANCH   8  12
TORSDOF 2
ENDMDL
MODEL      153
REMARK 921   NORMALIZED FREE ENERGY PREDICTED BY IDOCK:   -3.68 KCAL/MOL
REMARK 922        TOTAL FREE ENERGY PREDICTED BY IDOCK:   -4.53 KCAL/MOL
REMARK 923 INTER-LIGAND FREE ENERGY PREDICTED BY IDOCK:   -4.35 KCAL/MOL
REMARK 924 INTRA-LIGAND FREE ENERGY PREDICTED BY IDOCK:   -0.18 KCAL/MOL
REMARK 927      BINDING AFFINITY PREDICTED BY RF-SCORE:    0.00 PKD
ROOT
HETATM    1  C   UNL     1     -11.173  13.280  69.201  1.00  0.00    -0.305 C  
HETATM    2  C   UNL     1     -10.688  14.362  68.244  1.00  0.00    -0.246 C  
HETATM    3  C   UNL     1     -11.429  15.681  68.481  1.00  0.00    -0.375 C  
HETATM    4  C   UNL     1      -9.170  14.482  68.285  1.00  0.00    -0.201 A  
HETATM    5  O   UNL     1     -11.000  16.697  67.689  1.00  0.00    -0.296 OA 
HETATM    6  O   UNL     1     -12.360  15.834  69.261  1.00  0.00    -0.227 OA 
HETATM    7  C   UNL     1      -8.524  15.348  69.180  1.00  0.00    -0.241 A  
HETATM    8  C   UNL     1      -7.149  15.594  69.066  1.00  0.00    -0.151 A  
HETATM    9  C   UNL     1      -8.385  13.731  67.398  1.00  0.00    -0.201 A  
HETATM   10  C   UNL     1      -6.382  14.826  68.190  1.00  0.00    -0.144 A  
HETATM   11  C   UNL     1      -6.998  13.881  67.371  1.00  0.00    -0.065 A  
ENDROOT
BRANCH   8  12
HETATM   12  O   UNL     1      -6.470  16.558  69.780  1.00  0.00    -0.218 OA 
BRANCH  12  13
HETATM   13  C   UNL     1      -6.540  17.875  69.379  1.00  0.00    -0.200 A  
HETATM   14  C   UNL     1      -7.266  18.124  68.214  1.00  0.00    -0.257 A  
HETATM   15  C   UNL     1      -7.306  19.413  67.677  1.00  0.00    -0.277 A  
HETATM   16  C   UNL     1      -6.618  20.453  68.303  1.00  0.00    -0.327 A  
HETATM   17  C   UNL     1      -5.953  20.221  69.504  1.00  0.00    -0.377 A  
HETATM   18  C   UNL     1      -5.954  18.945  70.065  1.00  0.00    -0.238 A  
ENDBRANCH  12  13
ENDBRANCH   8  12
TORSDOF 2
ENDMDL
MODEL      154
REMARK 921   NORMALIZED FREE ENERGY PREDICTED BY IDOCK:   -3.67 KCAL/MOL
REMARK 922        TOTAL FREE ENERGY PREDICTED BY IDOCK:   -4.53 KCAL/MOL
REMARK 923 INTER-LIGAND FREE ENERGY PREDICTED BY IDOCK:   -4.08 KCAL/MOL
REMARK 924 INTRA-LIGAND FREE ENERGY PREDICTED BY IDOCK:   -0.44 KCAL/MOL
REMARK 927      BINDING AFFINITY PREDICTED BY RF-SCORE:    0.00 PKD
ROOT
HETATM    1  C   UNL     1      -6.053  12.348  70.127  1.00  0.00    -0.102 C  
HETATM    2  C   UNL     1      -6.336  12.643  68.658  1.00  0.00    -0.074 C  
HETATM    3  C   UNL     1      -7.109  11.495  68.003  1.00  0.00    -0.079 C  
HETATM    4  C   UNL     1      -6.989  14.010  68.495  1.00  0.00    -0.103 A  
HETATM    5  O   UNL     1      -7.434  11.728  66.705  1.00  0.00    -0.131 OA 
HETATM    6  O   UNL     1      -7.382  10.433  68.545  1.00  0.00    -0.081 OA 
HETATM    7  C   UNL     1      -8.383  14.168  68.527  1.00  0.00    -0.155 A  
HETATM    8  C   UNL     1      -8.968  15.392  68.176  1.00  0.00    -0.176 A  
HETATM    9  C   UNL     1      -6.192  15.145  68.286  1.00  0.00    -0.122 A  
HETATM   10  C   UNL     1      -8.162  16.513  67.987  1.00  0.00    -0.172 A  
HETATM   11  C   UNL     1      -6.775  16.393  68.063  1.00  0.00    -0.145 A  
ENDROOT
BRANCH   8  12
HETATM   12  O   UNL     1     -10.323  15.585  68.006  1.00  0.00    -0.240 OA 
BRANCH  12  13
HETATM   13  C   UNL     1     -10.943  15.088  66.879  1.00  0.00    -0.324 A  
HETATM   14  C   UNL     1     -10.532  15.632  65.662  1.00  0.00    -0.402 A  
HETATM   15  C   UNL     1     -11.175  15.263  64.478  1.00  0.00    -0.291 A  
HETATM   16  C   UNL     1     -12.231  14.353  64.511  1.00  0.00    -0.483 A  
HETATM   17  C   UNL     1     -12.596  13.755  65.714  1.00  0.00    -0.525 A  
HETATM   18  C   UNL     1     -11.921  14.087  66.888  1.00  0.00    -0.479 A  
ENDBRANCH  12  13
ENDBRANCH   8  12
TORSDOF 2
ENDMDL
MODEL      155
REMARK 921   NORMALIZED FREE ENERGY PREDICTED BY IDOCK:   -3.66 KCAL/MOL
REMARK 922        TOTAL FREE ENERGY PREDICTED BY IDOCK:   -4.51 KCAL/MOL
REMARK 923 INTER-LIGAND FREE ENERGY PREDICTED BY IDOCK:   -4.39 KCAL/MOL
REMARK 924 INTRA-LIGAND FREE ENERGY PREDICTED BY IDOCK:   -0.12 KCAL/MOL
REMARK 927      BINDING AFFINITY PREDICTED BY RF-SCORE:    0.00 PKD
ROOT
HETATM    1  C   UNL     1     -11.967  14.568  73.709  1.00  0.00     0.056 C  
HETATM    2  C   UNL     1     -13.025  14.450  72.618  1.00  0.00    -0.533 C  
HETATM    3  C   UNL     1     -13.054  15.703  71.738  1.00  0.00    -0.466 C  
HETATM    4  C   UNL     1     -12.864  13.147  71.845  1.00  0.00    -0.328 A  
HETATM    5  O   UNL     1     -13.944  15.630  70.715  1.00  0.00    -0.395 OA 
HETATM    6  O   UNL     1     -12.392  16.714  71.934  1.00  0.00     0.007 OA 
HETATM    7  C   UNL     1     -12.052  13.063  70.704  1.00  0.00    -0.333 A  
HETATM    8  C   UNL     1     -12.076  11.918  69.897  1.00  0.00    -0.272 A  
HETATM    9  C   UNL     1     -13.557  11.999  72.259  1.00  0.00    -0.164 A  
HETATM   10  C   UNL     1     -12.756  10.782  70.331  1.00  0.00    -0.346 A  
HETATM   11  C   UNL     1     -13.479  10.816  71.522  1.00  0.00    -0.176 A  
ENDROOT
BRANCH   8  12
HETATM   12  O   UNL     1     -11.452  11.820  68.670  1.00  0.00    -0.236 OA 
BRANCH  12  13
HETATM   13  C   UNL     1     -10.591  10.770  68.429  1.00  0.00    -0.197 A  
HETATM   14  C   UNL     1      -9.818  10.349  69.512  1.00  0.00    -0.211 A  
HETATM   15  C   UNL     1      -8.846   9.362  69.336  1.00  0.00    -0.159 A  
HETATM   16  C   UNL     1      -8.645   8.797  68.076  1.00  0.00    -0.134 A  
HETATM   17  C   UNL     1      -9.463   9.163  67.012  1.00  0.00    -0.201 A  
HETATM   18  C   UNL     1     -10.465  10.114  67.200  1.00  0.00    -0.305 A  
ENDBRANCH  12  13
ENDBRANCH   8  12
TORSDOF 2
ENDMDL
MODEL      156
REMARK 921   NORMALIZED FREE ENERGY PREDICTED BY IDOCK:   -3.61 KCAL/MOL
REMARK 922        TOTAL FREE ENERGY PREDICTED BY IDOCK:   -4.46 KCAL/MOL
REMARK 923 INTER-LIGAND FREE ENERGY PREDICTED BY IDOCK:   -3.91 KCAL/MOL
REMARK 924 INTRA-LIGAND FREE ENERGY PREDICTED BY IDOCK:   -0.55 KCAL/MOL
REMARK 927      BINDING AFFINITY PREDICTED BY RF-SCORE:    0.00 PKD
ROOT
HETATM    1  C   UNL     1     -10.594  16.790  67.559  1.00  0.00    -0.309 C  
HETATM    2  C   UNL     1      -9.501  16.098  66.752  1.00  0.00    -0.256 C  
HETATM    3  C   UNL     1      -8.201  16.000  67.554  1.00  0.00    -0.152 C  
HETATM    4  C   UNL     1      -9.996  14.767  66.199  1.00  0.00    -0.324 A  
HETATM    5  O   UNL     1      -7.207  15.344  66.902  1.00  0.00    -0.172 OA 
HETATM    6  O   UNL     1      -8.016  16.497  68.657  1.00  0.00    -0.207 OA 
HETATM    7  C   UNL     1      -9.859  13.573  66.921  1.00  0.00    -0.257 A  
HETATM    8  C   UNL     1     -10.134  12.339  66.317  1.00  0.00    -0.234 A  
HETATM    9  C   UNL     1     -10.587  14.716  64.927  1.00  0.00    -0.446 A  
HETATM   10  C   UNL     1     -10.735  12.307  65.059  1.00  0.00    -0.336 A  
HETATM   11  C   UNL     1     -10.980  13.496  64.374  1.00  0.00    -0.399 A  
ENDROOT
BRANCH   8  12
HETATM   12  O   UNL     1      -9.857  11.115  66.887  1.00  0.00    -0.188 OA 
BRANCH  12  13
HETATM   13  C   UNL     1      -8.597  10.871  67.392  1.00  0.00    -0.127 A  
HETATM   14  C   UNL     1      -8.521  10.637  68.766  1.00  0.00    -0.149 A  
HETATM   15  C   UNL     1      -7.277  10.481  69.380  1.00  0.00    -0.117 A  
HETATM   16  C   UNL     1      -6.108  10.561  68.622  1.00  0.00    -0.043 A  
HETATM   17  C   UNL     1      -6.185  10.723  67.242  1.00  0.00    -0.061 A  
HETATM   18  C   UNL     1      -7.429  10.829  66.623  1.00  0.00    -0.135 A  
ENDBRANCH  12  13
ENDBRANCH   8  12
TORSDOF 2
ENDMDL
MODEL      157
REMARK 921   NORMALIZED FREE ENERGY PREDICTED BY IDOCK:   -3.58 KCAL/MOL
REMARK 922        TOTAL FREE ENERGY PREDICTED BY IDOCK:   -4.43 KCAL/MOL
REMARK 923 INTER-LIGAND FREE ENERGY PREDICTED BY IDOCK:   -4.06 KCAL/MOL
REMARK 924 INTRA-LIGAND FREE ENERGY PREDICTED BY IDOCK:   -0.37 KCAL/MOL
REMARK 927      BINDING AFFINITY PREDICTED BY RF-SCORE:    0.00 PKD
ROOT
HETATM    1  C   UNL     1     -10.201  12.028  64.893  1.00  0.00    -0.302 C  
HETATM    2  C   UNL     1     -11.065  12.831  65.858  1.00  0.00    -0.318 C  
HETATM    3  C   UNL     1     -11.147  12.147  67.226  1.00  0.00    -0.287 C  
HETATM    4  C   UNL     1     -10.611  14.284  65.912  1.00  0.00    -0.306 A  
HETATM    5  O   UNL     1     -11.863  12.847  68.143  1.00  0.00    -0.336 OA 
HETATM    6  O   UNL     1     -10.672  11.052  67.493  1.00  0.00    -0.211 OA 
HETATM    7  C   UNL     1      -9.641  14.719  66.827  1.00  0.00    -0.267 A  
HETATM    8  C   UNL     1      -9.385  16.086  66.998  1.00  0.00    -0.218 A  
HETATM    9  C   UNL     1     -11.183  15.228  65.046  1.00  0.00    -0.409 A  
HETATM   10  C   UNL     1      -9.950  17.008  66.118  1.00  0.00    -0.314 A  
HETATM   11  C   UNL     1     -10.833  16.576  65.130  1.00  0.00    -0.247 A  
ENDROOT
BRANCH   8  12
HETATM   12  O   UNL     1      -8.586  16.609  67.993  1.00  0.00    -0.186 OA 
BRANCH  12  13
HETATM   13  C   UNL     1      -7.516  15.875  68.460  1.00  0.00    -0.139 A  
HETATM   14  C   UNL     1      -7.509  15.602  69.829  1.00  0.00    -0.046 A  
HETATM   15  C   UNL     1      -6.416  14.954  70.407  1.00  0.00    -0.075 A  
HETATM   16  C   UNL     1      -5.327  14.580  69.618  1.00  0.00    -0.092 A  
HETATM   17  C   UNL     1      -5.363  14.787  68.242  1.00  0.00    -0.113 A  
HETATM   18  C   UNL     1      -6.477  15.391  67.658  1.00  0.00    -0.190 A  
ENDBRANCH  12  13
ENDBRANCH   8  12
TORSDOF 2
ENDMDL
MODEL      158
REMARK 921   NORMALIZED FREE ENERGY PREDICTED BY IDOCK:   -3.58 KCAL/MOL
REMARK 922        TOTAL FREE ENERGY PREDICTED BY IDOCK:   -4.42 KCAL/MOL
REMARK 923 INTER-LIGAND FREE ENERGY PREDICTED BY IDOCK:   -4.00 KCAL/MOL
REMARK 924 INTRA-LIGAND FREE ENERGY PREDICTED BY IDOCK:   -0.42 KCAL/MOL
REMARK 927      BINDING AFFINITY PREDICTED BY RF-SCORE:    0.00 PKD
ROOT
HETATM    1  C   UNL     1     -10.887   7.885  72.834  1.00  0.00    -0.451 C  
HETATM    2  C   UNL     1     -10.246   7.450  71.521  1.00  0.00    -0.205 C  
HETATM    3  C   UNL     1     -11.308   7.029  70.501  1.00  0.00    -0.312 C  
HETATM    4  C   UNL     1      -9.277   8.510  71.014  1.00  0.00    -0.227 A  
HETATM    5  O   UNL     1     -10.795   6.681  69.293  1.00  0.00    -0.243 OA 
HETATM    6  O   UNL     1     -12.507   6.950  70.728  1.00  0.00    -0.356 OA 
HETATM    7  C   UNL     1      -9.696   9.546  70.165  1.00  0.00    -0.289 A  
HETATM    8  C   UNL     1      -8.759  10.387  69.551  1.00  0.00    -0.084 A  
HETATM    9  C   UNL     1      -7.923   8.451  71.377  1.00  0.00    -0.152 A  
HETATM   10  C   UNL     1      -7.421  10.324  69.936  1.00  0.00    -0.165 A  
HETATM   11  C   UNL     1      -7.007   9.370  70.864  1.00  0.00    -0.099 A  
ENDROOT
BRANCH   8  12
HETATM   12  O   UNL     1      -9.065  11.307  68.571  1.00  0.00    -0.168 OA 
BRANCH  12  13
HETATM   13  C   UNL     1      -9.221  10.885  67.268  1.00  0.00    -0.151 A  
HETATM   14  C   UNL     1      -8.046  10.621  66.563  1.00  0.00    -0.140 A  
HETATM   15  C   UNL     1      -8.102  10.286  65.209  1.00  0.00    -0.151 A  
HETATM   16  C   UNL     1      -9.334  10.218  64.557  1.00  0.00    -0.328 A  
HETATM   17  C   UNL     1     -10.512  10.411  65.274  1.00  0.00    -0.178 A  
HETATM   18  C   UNL     1     -10.456  10.697  66.638  1.00  0.00    -0.296 A  
ENDBRANCH  12  13
ENDBRANCH   8  12
TORSDOF 2
ENDMDL
MODEL      159
REMARK 921   NORMALIZED FREE ENERGY PREDICTED BY IDOCK:   -3.57 KCAL/MOL
REMARK 922        TOTAL FREE ENERGY PREDICTED BY IDOCK:   -4.41 KCAL/MOL
REMARK 923 INTER-LIGAND FREE ENERGY PREDICTED BY IDOCK:   -3.98 KCAL/MOL
REMARK 924 INTRA-LIGAND FREE ENERGY PREDICTED BY IDOCK:   -0.43 KCAL/MOL
REMARK 927      BINDING AFFINITY PREDICTED BY RF-SCORE:    0.00 PKD
ROOT
HETATM    1  C   UNL     1      -6.232   7.706  66.505  1.00  0.00    -0.045 C  
HETATM    2  C   UNL     1      -6.546   8.835  65.530  1.00  0.00    -0.067 C  
HETATM    3  C   UNL     1      -7.444   8.346  64.390  1.00  0.00    -0.104 C  
HETATM    4  C   UNL     1      -7.080  10.056  66.267  1.00  0.00    -0.105 A  
HETATM    5  O   UNL     1      -7.799   9.324  63.518  1.00  0.00    -0.117 OA 
HETATM    6  O   UNL     1      -7.789   7.185  64.216  1.00  0.00    -0.112 OA 
HETATM    7  C   UNL     1      -8.452  10.230  66.506  1.00  0.00    -0.126 A  
HETATM    8  C   UNL     1      -8.939  11.446  67.003  1.00  0.00    -0.166 A  
HETATM    9  C   UNL     1      -6.194  11.051  66.706  1.00  0.00    -0.110 A  
HETATM   10  C   UNL     1      -8.043  12.417  67.449  1.00  0.00    -0.177 A  
HETATM   11  C   UNL     1      -6.671  12.210  67.319  1.00  0.00    -0.144 A  
ENDROOT
BRANCH   8  12
HETATM   12  O   UNL     1     -10.277  11.767  67.097  1.00  0.00    -0.208 OA 
BRANCH  12  13
HETATM   13  C   UNL     1     -10.896  12.412  66.048  1.00  0.00    -0.273 A  
HETATM   14  C   UNL     1     -11.914  13.303  66.389  1.00  0.00    -0.465 A  
HETATM   15  C   UNL     1     -12.665  13.924  65.389  1.00  0.00    -0.525 A  
HETATM   16  C   UNL     1     -12.399  13.653  64.046  1.00  0.00    -0.382 A  
HETATM   17  C   UNL     1     -11.338  12.821  63.702  1.00  0.00    -0.514 A  
HETATM   18  C   UNL     1     -10.558  12.240  64.701  1.00  0.00    -0.338 A  
ENDBRANCH  12  13
ENDBRANCH   8  12
TORSDOF 2
ENDMDL
MODEL      160
REMARK 921   NORMALIZED FREE ENERGY PREDICTED BY IDOCK:   -3.53 KCAL/MOL
REMARK 922        TOTAL FREE ENERGY PREDICTED BY IDOCK:   -4.37 KCAL/MOL
REMARK 923 INTER-LIGAND FREE ENERGY PREDICTED BY IDOCK:   -3.92 KCAL/MOL
REMARK 924 INTRA-LIGAND FREE ENERGY PREDICTED BY IDOCK:   -0.44 KCAL/MOL
REMARK 927      BINDING AFFINITY PREDICTED BY RF-SCORE:    0.00 PKD
ROOT
HETATM    1  C   UNL     1     -13.408  10.706  71.121  1.00  0.00    -0.179 C  
HETATM    2  C   UNL     1     -11.903  10.593  70.904  1.00  0.00    -0.433 C  
HETATM    3  C   UNL     1     -11.403   9.182  71.229  1.00  0.00    -0.336 C  
HETATM    4  C   UNL     1     -11.517  11.089  69.516  1.00  0.00    -0.370 A  
HETATM    5  O   UNL     1     -10.075   9.010  71.002  1.00  0.00    -0.232 OA 
HETATM    6  O   UNL     1     -12.089   8.285  71.698  1.00  0.00    -0.281 OA 
HETATM    7  C   UNL     1     -11.479  10.227  68.410  1.00  0.00    -0.163 A  
HETATM    8  C   UNL     1     -10.930  10.653  67.194  1.00  0.00    -0.247 A  
HETATM    9  C   UNL     1     -11.166  12.434  69.328  1.00  0.00    -0.264 A  
HETATM   10  C   UNL     1     -10.602  11.997  67.019  1.00  0.00    -0.258 A  
HETATM   11  C   UNL     1     -10.739  12.891  68.080  1.00  0.00    -0.244 A  
ENDROOT
BRANCH   8  12
HETATM   12  O   UNL     1     -10.690   9.826  66.117  1.00  0.00    -0.024 OA 
BRANCH  12  13
HETATM   13  C   UNL     1      -9.517   9.102  66.066  1.00  0.00    -0.255 A  
HETATM   14  C   UNL     1      -8.559   9.548  65.154  1.00  0.00    -0.181 A  
HETATM   15  C   UNL     1      -7.385   8.818  64.961  1.00  0.00    -0.089 A  
HETATM   16  C   UNL     1      -7.167   7.641  65.678  1.00  0.00    -0.065 A  
HETATM   17  C   UNL     1      -8.088   7.233  66.640  1.00  0.00    -0.113 A  
HETATM   18  C   UNL     1      -9.238   7.989  66.866  1.00  0.00    -0.191 A  
ENDBRANCH  12  13
ENDBRANCH   8  12
TORSDOF 2
ENDMDL
MODEL      161
REMARK 921   NORMALIZED FREE ENERGY PREDICTED BY IDOCK:   -3.51 KCAL/MOL
REMARK 922        TOTAL FREE ENERGY PREDICTED BY IDOCK:   -4.35 KCAL/MOL
REMARK 923 INTER-LIGAND FREE ENERGY PREDICTED BY IDOCK:   -3.89 KCAL/MOL
REMARK 924 INTRA-LIGAND FREE ENERGY PREDICTED BY IDOCK:   -0.46 KCAL/MOL
REMARK 927      BINDING AFFINITY PREDICTED BY RF-SCORE:    0.00 PKD
ROOT
HETATM    1  C   UNL     1      -5.854   6.286  67.492  1.00  0.00    -0.016 C  
HETATM    2  C   UNL     1      -7.036   5.721  66.713  1.00  0.00    -0.070 C  
HETATM    3  C   UNL     1      -7.142   4.204  66.894  1.00  0.00    -0.067 C  
HETATM    4  C   UNL     1      -8.315   6.481  67.042  1.00  0.00    -0.113 A  
HETATM    5  O   UNL     1      -8.211   3.654  66.263  1.00  0.00    -0.099 OA 
HETATM    6  O   UNL     1      -6.334   3.511  67.497  1.00  0.00    -0.035 OA 
HETATM    7  C   UNL     1      -9.155   6.088  68.095  1.00  0.00    -0.118 A  
HETATM    8  C   UNL     1     -10.419   6.671  68.253  1.00  0.00    -0.209 A  
HETATM    9  C   UNL     1      -8.688   7.590  66.267  1.00  0.00    -0.165 A  
HETATM   10  C   UNL     1     -10.766   7.782  67.486  1.00  0.00    -0.265 A  
HETATM   11  C   UNL     1      -9.892   8.254  66.508  1.00  0.00    -0.323 A  
ENDROOT
BRANCH   8  12
HETATM   12  O   UNL     1     -11.375   6.226  69.141  1.00  0.00    -0.395 OA 
BRANCH  12  13
HETATM   13  C   UNL     1     -11.228   6.493  70.486  1.00  0.00    -0.344 A  
HETATM   14  C   UNL     1     -11.732   7.717  70.928  1.00  0.00    -0.291 A  
HETATM   15  C   UNL     1     -11.539   8.116  72.252  1.00  0.00    -0.436 A  
HETATM   16  C   UNL     1     -10.839   7.293  73.135  1.00  0.00    -0.401 A  
HETATM   17  C   UNL     1     -10.397   6.041  72.716  1.00  0.00    -0.223 A  
HETATM   18  C   UNL     1     -10.634   5.623  71.407  1.00  0.00    -0.317 A  
ENDBRANCH  12  13
ENDBRANCH   8  12
TORSDOF 2
ENDMDL
MODEL      162
REMARK 921   NORMALIZED FREE ENERGY PREDICTED BY IDOCK:   -3.44 KCAL/MOL
REMARK 922        TOTAL FREE ENERGY PREDICTED BY IDOCK:   -4.27 KCAL/MOL
REMARK 923 INTER-LIGAND FREE ENERGY PREDICTED BY IDOCK:   -3.91 KCAL/MOL
REMARK 924 INTRA-LIGAND FREE ENERGY PREDICTED BY IDOCK:   -0.36 KCAL/MOL
REMARK 927      BINDING AFFINITY PREDICTED BY RF-SCORE:    0.00 PKD
ROOT
HETATM    1  C   UNL     1      -6.322   8.304  66.204  1.00  0.00    -0.049 C  
HETATM    2  C   UNL     1      -7.147   9.353  65.468  1.00  0.00    -0.087 C  
HETATM    3  C   UNL     1      -8.128   8.698  64.492  1.00  0.00    -0.162 C  
HETATM    4  C   UNL     1      -7.795  10.321  66.450  1.00  0.00    -0.119 A  
HETATM    5  O   UNL     1      -8.927   9.585  63.845  1.00  0.00    -0.228 OA 
HETATM    6  O   UNL     1      -8.183   7.500  64.249  1.00  0.00    -0.103 OA 
HETATM    7  C   UNL     1      -9.065  10.079  66.993  1.00  0.00    -0.159 A  
HETATM    8  C   UNL     1      -9.725  11.070  67.731  1.00  0.00    -0.170 A  
HETATM    9  C   UNL     1      -7.126  11.500  66.813  1.00  0.00    -0.112 A  
HETATM   10  C   UNL     1      -9.040  12.228  68.096  1.00  0.00    -0.196 A  
HETATM   11  C   UNL     1      -7.734  12.433  67.654  1.00  0.00    -0.151 A  
ENDROOT
BRANCH   8  12
HETATM   12  O   UNL     1     -11.038  10.986  68.146  1.00  0.00    -0.226 OA 
BRANCH  12  13
HETATM   13  C   UNL     1     -11.329  10.404  69.361  1.00  0.00    -0.250 A  
HETATM   14  C   UNL     1     -12.492  10.849  69.992  1.00  0.00    -0.332 A  
HETATM   15  C   UNL     1     -12.813  10.391  71.271  1.00  0.00    -0.533 A  
HETATM   16  C   UNL     1     -11.970   9.489  71.922  1.00  0.00    -0.381 A  
HETATM   17  C   UNL     1     -10.848   8.989  71.267  1.00  0.00    -0.385 A  
HETATM   18  C   UNL     1     -10.555   9.411  69.971  1.00  0.00    -0.267 A  
ENDBRANCH  12  13
ENDBRANCH   8  12
TORSDOF 2
ENDMDL
MODEL      163
REMARK 921   NORMALIZED FREE ENERGY PREDICTED BY IDOCK:   -3.41 KCAL/MOL
REMARK 922        TOTAL FREE ENERGY PREDICTED BY IDOCK:   -4.24 KCAL/MOL
REMARK 923 INTER-LIGAND FREE ENERGY PREDICTED BY IDOCK:   -3.99 KCAL/MOL
REMARK 924 INTRA-LIGAND FREE ENERGY PREDICTED BY IDOCK:   -0.24 KCAL/MOL
REMARK 927      BINDING AFFINITY PREDICTED BY RF-SCORE:    0.00 PKD
ROOT
HETATM    1  C   UNL     1     -12.195  13.873  73.339  1.00  0.00     0.932 C  
HETATM    2  C   UNL     1     -12.993  14.021  72.048  1.00  0.00    -0.450 C  
HETATM    3  C   UNL     1     -13.708  15.374  71.994  1.00  0.00    -0.509 C  
HETATM    4  C   UNL     1     -12.121  13.725  70.835  1.00  0.00    -0.366 A  
HETATM    5  O   UNL     1     -14.393  15.582  70.840  1.00  0.00    -0.392 OA 
HETATM    6  O   UNL     1     -13.728  16.195  72.901  1.00  0.00    -0.494 OA 
HETATM    7  C   UNL     1     -11.387  14.733  70.192  1.00  0.00    -0.291 A  
HETATM    8  C   UNL     1     -10.757  14.483  68.966  1.00  0.00    -0.251 A  
HETATM    9  C   UNL     1     -12.056  12.421  70.322  1.00  0.00    -0.377 A  
HETATM   10  C   UNL     1     -10.689  13.179  68.480  1.00  0.00    -0.277 A  
HETATM   11  C   UNL     1     -11.321  12.145  69.169  1.00  0.00    -0.333 A  
ENDROOT
BRANCH   8  12
HETATM   12  O   UNL     1     -10.171  15.454  68.181  1.00  0.00    -0.226 OA 
BRANCH  12  13
HETATM   13  C   UNL     1      -8.823  15.711  68.313  1.00  0.00    -0.180 A  
HETATM   14  C   UNL     1      -8.448  17.055  68.283  1.00  0.00    -0.233 A  
HETATM   15  C   UNL     1      -7.097  17.406  68.308  1.00  0.00    -0.203 A  
HETATM   16  C   UNL     1      -6.119  16.412  68.360  1.00  0.00    -0.119 A  
HETATM   17  C   UNL     1      -6.491  15.075  68.462  1.00  0.00    -0.094 A  
HETATM   18  C   UNL     1      -7.841  14.729  68.487  1.00  0.00    -0.130 A  
ENDBRANCH  12  13
ENDBRANCH   8  12
TORSDOF 2
ENDMDL
MODEL      164
REMARK 921   NORMALIZED FREE ENERGY PREDICTED BY IDOCK:   -3.38 KCAL/MOL
REMARK 922        TOTAL FREE ENERGY PREDICTED BY IDOCK:   -4.20 KCAL/MOL
REMARK 923 INTER-LIGAND FREE ENERGY PREDICTED BY IDOCK:   -3.68 KCAL/MOL
REMARK 924 INTRA-LIGAND FREE ENERGY PREDICTED BY IDOCK:   -0.52 KCAL/MOL
REMARK 927      BINDING AFFINITY PREDICTED BY RF-SCORE:    0.00 PKD
ROOT
HETATM    1  C   UNL     1      -5.390  10.824  67.991  1.00  0.00    -0.036 C  
HETATM    2  C   UNL     1      -6.242   9.563  67.898  1.00  0.00    -0.053 C  
HETATM    3  C   UNL     1      -6.545   8.998  69.289  1.00  0.00    -0.049 C  
HETATM    4  C   UNL     1      -7.477   9.805  67.039  1.00  0.00    -0.091 A  
HETATM    5  O   UNL     1      -7.346   7.902  69.269  1.00  0.00    -0.078 OA 
HETATM    6  O   UNL     1      -6.087   9.431  70.337  1.00  0.00    -0.043 OA 
HETATM    7  C   UNL     1      -8.681  10.265  67.593  1.00  0.00    -0.121 A  
HETATM    8  C   UNL     1      -9.854  10.288  66.828  1.00  0.00    -0.197 A  
HETATM    9  C   UNL     1      -7.432   9.545  65.661  1.00  0.00    -0.094 A  
HETATM   10  C   UNL     1      -9.787  10.043  65.457  1.00  0.00    -0.373 A  
HETATM   11  C   UNL     1      -8.573   9.691  64.871  1.00  0.00    -0.188 A  
ENDROOT
BRANCH   8  12
HETATM   12  O   UNL     1     -11.108  10.552  67.336  1.00  0.00    -0.303 OA 
BRANCH  12  13
HETATM   13  C   UNL     1     -11.415  11.828  67.760  1.00  0.00    -0.311 A  
HETATM   14  C   UNL     1     -11.657  11.979  69.126  1.00  0.00    -0.370 A  
HETATM   15  C   UNL     1     -12.074  13.214  69.629  1.00  0.00    -0.317 A  
HETATM   16  C   UNL     1     -12.250  14.296  68.767  1.00  0.00    -0.226 A  
HETATM   17  C   UNL     1     -11.940  14.167  67.416  1.00  0.00    -0.439 A  
HETATM   18  C   UNL     1     -11.478  12.947  66.923  1.00  0.00    -0.393 A  
ENDBRANCH  12  13
ENDBRANCH   8  12
TORSDOF 2
ENDMDL
MODEL      165
REMARK 921   NORMALIZED FREE ENERGY PREDICTED BY IDOCK:   -3.36 KCAL/MOL
REMARK 922        TOTAL FREE ENERGY PREDICTED BY IDOCK:   -4.18 KCAL/MOL
REMARK 923 INTER-LIGAND FREE ENERGY PREDICTED BY IDOCK:   -3.62 KCAL/MOL
REMARK 924 INTRA-LIGAND FREE ENERGY PREDICTED BY IDOCK:   -0.55 KCAL/MOL
REMARK 927      BINDING AFFINITY PREDICTED BY RF-SCORE:    0.00 PKD
ROOT
HETATM    1  C   UNL     1     -10.109  10.271  64.931  1.00  0.00    -0.346 C  
HETATM    2  C   UNL     1      -8.960  10.822  65.768  1.00  0.00    -0.203 C  
HETATM    3  C   UNL     1      -9.424  11.994  66.638  1.00  0.00    -0.217 C  
HETATM    4  C   UNL     1      -8.267   9.707  66.540  1.00  0.00    -0.119 A  
HETATM    5  O   UNL     1      -8.452  12.492  67.445  1.00  0.00    -0.163 OA 
HETATM    6  O   UNL     1     -10.539  12.497  66.602  1.00  0.00    -0.234 OA 
HETATM    7  C   UNL     1      -8.682   9.333  67.827  1.00  0.00    -0.120 A  
HETATM    8  C   UNL     1      -7.912   8.451  68.596  1.00  0.00    -0.121 A  
HETATM    9  C   UNL     1      -7.170   9.041  65.972  1.00  0.00    -0.093 A  
HETATM   10  C   UNL     1      -6.835   7.787  68.010  1.00  0.00    -0.072 A  
HETATM   11  C   UNL     1      -6.478   8.066  66.692  1.00  0.00    -0.055 A  
ENDROOT
BRANCH   8  12
HETATM   12  O   UNL     1      -8.146   8.172  69.926  1.00  0.00    -0.111 OA 
BRANCH  12  13
HETATM   13  C   UNL     1      -9.430   7.898  70.346  1.00  0.00    -0.163 A  
HETATM   14  C   UNL     1      -9.957   6.668  69.951  1.00  0.00    -0.188 A  
HETATM   15  C   UNL     1     -11.285   6.349  70.244  1.00  0.00    -0.445 A  
HETATM   16  C   UNL     1     -12.087   7.262  70.930  1.00  0.00    -0.326 A  
HETATM   17  C   UNL     1     -11.544   8.459  71.387  1.00  0.00    -0.332 A  
HETATM   18  C   UNL     1     -10.204   8.755  71.136  1.00  0.00    -0.316 A  
ENDBRANCH  12  13
ENDBRANCH   8  12
TORSDOF 2
ENDMDL
MODEL      166
REMARK 921   NORMALIZED FREE ENERGY PREDICTED BY IDOCK:   -3.33 KCAL/MOL
REMARK 922        TOTAL FREE ENERGY PREDICTED BY IDOCK:   -4.14 KCAL/MOL
REMARK 923 INTER-LIGAND FREE ENERGY PREDICTED BY IDOCK:   -3.68 KCAL/MOL
REMARK 924 INTRA-LIGAND FREE ENERGY PREDICTED BY IDOCK:   -0.46 KCAL/MOL
REMARK 927      BINDING AFFINITY PREDICTED BY RF-SCORE:    0.00 PKD
ROOT
HETATM    1  C   UNL     1      -6.933  11.600  66.963  1.00  0.00    -0.144 C  
HETATM    2  C   UNL     1      -7.826  10.365  67.026  1.00  0.00    -0.112 C  
HETATM    3  C   UNL     1      -7.042   9.142  67.510  1.00  0.00    -0.079 C  
HETATM    4  C   UNL     1      -9.092  10.651  67.822  1.00  0.00    -0.144 A  
HETATM    5  O   UNL     1      -7.802   8.023  67.635  1.00  0.00    -0.117 OA 
HETATM    6  O   UNL     1      -5.838   9.119  67.724  1.00  0.00    -0.042 OA 
HETATM    7  C   UNL     1      -9.153  10.446  69.209  1.00  0.00    -0.188 A  
HETATM    8  C   UNL     1     -10.376  10.522  69.887  1.00  0.00    -0.114 A  
HETATM    9  C   UNL     1     -10.243  11.112  67.164  1.00  0.00    -0.235 A  
HETATM   10  C   UNL     1     -11.506  10.996  69.221  1.00  0.00    -0.370 A  
HETATM   11  C   UNL     1     -11.433  11.310  67.865  1.00  0.00    -0.360 A  
ENDROOT
BRANCH   8  12
HETATM   12  O   UNL     1     -10.558  10.161  71.206  1.00  0.00     0.099 OA 
BRANCH  12  13
HETATM   13  C   UNL     1     -10.975   8.882  71.508  1.00  0.00    -0.328 A  
HETATM   14  C   UNL     1      -9.966   7.947  71.746  1.00  0.00    -0.228 A  
HETATM   15  C   UNL     1     -10.292   6.606  71.960  1.00  0.00    -0.218 A  
HETATM   16  C   UNL     1     -11.626   6.199  71.933  1.00  0.00    -0.352 A  
HETATM   17  C   UNL     1     -12.638   7.141  71.768  1.00  0.00    -0.381 A  
HETATM   18  C   UNL     1     -12.314   8.487  71.603  1.00  0.00    -0.371 A  
ENDBRANCH  12  13
ENDBRANCH   8  12
TORSDOF 2
ENDMDL
MODEL      167
REMARK 921   NORMALIZED FREE ENERGY PREDICTED BY IDOCK:   -3.27 KCAL/MOL
REMARK 922        TOTAL FREE ENERGY PREDICTED BY IDOCK:   -4.08 KCAL/MOL
REMARK 923 INTER-LIGAND FREE ENERGY PREDICTED BY IDOCK:   -3.58 KCAL/MOL
REMARK 924 INTRA-LIGAND FREE ENERGY PREDICTED BY IDOCK:   -0.49 KCAL/MOL
REMARK 927      BINDING AFFINITY PREDICTED BY RF-SCORE:    0.00 PKD
ROOT
HETATM    1  C   UNL     1      -7.696   4.836  68.011  1.00  0.00    -0.082 C  
HETATM    2  C   UNL     1      -7.735   5.410  66.599  1.00  0.00    -0.100 C  
HETATM    3  C   UNL     1      -8.791   4.703  65.745  1.00  0.00    -0.127 C  
HETATM    4  C   UNL     1      -7.872   6.927  66.634  1.00  0.00    -0.107 A  
HETATM    5  O   UNL     1      -8.905   5.210  64.491  1.00  0.00    -0.140 OA 
HETATM    6  O   UNL     1      -9.451   3.737  66.102  1.00  0.00    -0.169 OA 
HETATM    7  C   UNL     1      -9.127   7.553  66.644  1.00  0.00    -0.189 A  
HETATM    8  C   UNL     1      -9.233   8.939  66.473  1.00  0.00    -0.183 A  
HETATM    9  C   UNL     1      -6.723   7.733  66.634  1.00  0.00    -0.066 A  
HETATM   10  C   UNL     1      -8.083   9.726  66.492  1.00  0.00    -0.116 A  
HETATM   11  C   UNL     1      -6.830   9.124  66.593  1.00  0.00    -0.080 A  
ENDROOT
BRANCH   8  12
HETATM   12  O   UNL     1     -10.424   9.611  66.291  1.00  0.00    -0.191 OA 
BRANCH  12  13
HETATM   13  C   UNL     1     -10.910  10.416  67.299  1.00  0.00    -0.264 A  
HETATM   14  C   UNL     1     -11.341  11.687  66.917  1.00  0.00    -0.364 A  
HETATM   15  C   UNL     1     -11.753  12.606  67.883  1.00  0.00    -0.412 A  
HETATM   16  C   UNL     1     -11.733  12.256  69.234  1.00  0.00    -0.388 A  
HETATM   17  C   UNL     1     -11.372  10.966  69.612  1.00  0.00    -0.362 A  
HETATM   18  C   UNL     1     -11.007  10.034  68.641  1.00  0.00    -0.247 A  
ENDBRANCH  12  13
ENDBRANCH   8  12
TORSDOF 2
ENDMDL
MODEL      168
REMARK 921   NORMALIZED FREE ENERGY PREDICTED BY IDOCK:   -3.16 KCAL/MOL
REMARK 922        TOTAL FREE ENERGY PREDICTED BY IDOCK:   -3.96 KCAL/MOL
REMARK 923 INTER-LIGAND FREE ENERGY PREDICTED BY IDOCK:   -3.44 KCAL/MOL
REMARK 924 INTRA-LIGAND FREE ENERGY PREDICTED BY IDOCK:   -0.52 KCAL/MOL
REMARK 927      BINDING AFFINITY PREDICTED BY RF-SCORE:    0.00 PKD
ROOT
HETATM    1  C   UNL     1      -8.584   4.174  68.851  1.00  0.00    -0.110 C  
HETATM    2  C   UNL     1      -8.254   5.295  67.872  1.00  0.00    -0.099 C  
HETATM    3  C   UNL     1      -9.022   5.125  66.559  1.00  0.00    -0.118 C  
HETATM    4  C   UNL     1      -8.432   6.658  68.529  1.00  0.00    -0.122 A  
HETATM    5  O   UNL     1      -8.806   6.127  65.668  1.00  0.00    -0.153 OA 
HETATM    6  O   UNL     1      -9.731   4.169  66.279  1.00  0.00    -0.189 OA 
HETATM    7  C   UNL     1      -9.658   7.339  68.492  1.00  0.00    -0.140 A  
HETATM    8  C   UNL     1      -9.746   8.669  68.922  1.00  0.00    -0.170 A  
HETATM    9  C   UNL     1      -7.346   7.271  69.172  1.00  0.00    -0.087 A  
HETATM   10  C   UNL     1      -8.663   9.257  69.573  1.00  0.00    -0.146 A  
HETATM   11  C   UNL     1      -7.470   8.551  69.716  1.00  0.00    -0.071 A  
ENDROOT
BRANCH   8  12
HETATM   12  O   UNL     1     -10.859   9.467  68.756  1.00  0.00    -0.211 OA 
BRANCH  12  13
HETATM   13  C   UNL     1     -10.845  10.461  67.801  1.00  0.00    -0.297 A  
HETATM   14  C   UNL     1     -11.183  11.741  68.241  1.00  0.00    -0.313 A  
HETATM   15  C   UNL     1     -11.294  12.790  67.325  1.00  0.00    -0.364 A  
HETATM   16  C   UNL     1     -11.069  12.558  65.968  1.00  0.00    -0.329 A  
HETATM   17  C   UNL     1     -10.661  11.299  65.536  1.00  0.00    -0.283 A  
HETATM   18  C   UNL     1     -10.504  10.265  66.458  1.00  0.00    -0.241 A  
ENDBRANCH  12  13
ENDBRANCH   8  12
TORSDOF 2
ENDMDL
MODEL      169
REMARK 921   NORMALIZED FREE ENERGY PREDICTED BY IDOCK:   -3.12 KCAL/MOL
REMARK 922        TOTAL FREE ENERGY PREDICTED BY IDOCK:   -3.91 KCAL/MOL
REMARK 923 INTER-LIGAND FREE ENERGY PREDICTED BY IDOCK:   -3.39 KCAL/MOL
REMARK 924 INTRA-LIGAND FREE ENERGY PREDICTED BY IDOCK:   -0.52 KCAL/MOL
REMARK 927      BINDING AFFINITY PREDICTED BY RF-SCORE:    0.00 PKD
ROOT
HETATM    1  C   UNL     1      -9.983   8.852  71.621  1.00  0.00    -0.397 C  
HETATM    2  C   UNL     1     -11.288   8.670  70.853  1.00  0.00    -0.314 C  
HETATM    3  C   UNL     1     -12.404   9.531  71.451  1.00  0.00    -0.364 C  
HETATM    4  C   UNL     1     -11.071   8.876  69.359  1.00  0.00     0.026 A  
HETATM    5  O   UNL     1     -13.578   9.448  70.773  1.00  0.00    -0.089 OA 
HETATM    6  O   UNL     1     -12.305  10.201  72.469  1.00  0.00     0.281 OA 
HETATM    7  C   UNL     1     -11.199  10.140  68.764  1.00  0.00    -0.217 A  
HETATM    8  C   UNL     1     -11.195  10.274  67.370  1.00  0.00    -0.068 A  
HETATM    9  C   UNL     1     -10.757   7.781  68.541  1.00  0.00    -0.080 A  
HETATM   10  C   UNL     1     -10.866   9.179  66.573  1.00  0.00     0.231 A  
HETATM   11  C   UNL     1     -10.626   7.938  67.160  1.00  0.00    -0.383 A  
ENDROOT
BRANCH   8  12
HETATM   12  O   UNL     1     -11.493  11.443  66.700  1.00  0.00    -0.408 OA 
BRANCH  12  13
HETATM   13  C   UNL     1     -11.045  12.646  67.203  1.00  0.00    -0.280 A  
HETATM   14  C   UNL     1      -9.703  12.949  66.967  1.00  0.00    -0.230 A  
HETATM   15  C   UNL     1      -9.137  14.097  67.526  1.00  0.00    -0.195 A  
HETATM   16  C   UNL     1      -9.911  14.941  68.323  1.00  0.00    -0.218 A  
HETATM   17  C   UNL     1     -11.266  14.679  68.500  1.00  0.00    -0.288 A  
HETATM   18  C   UNL     1     -11.842  13.559  67.902  1.00  0.00    -0.397 A  
ENDBRANCH  12  13
ENDBRANCH   8  12
TORSDOF 2
ENDMDL
MODEL      170
REMARK 921   NORMALIZED FREE ENERGY PREDICTED BY IDOCK:   -3.05 KCAL/MOL
REMARK 922        TOTAL FREE ENERGY PREDICTED BY IDOCK:   -3.83 KCAL/MOL
REMARK 923 INTER-LIGAND FREE ENERGY PREDICTED BY IDOCK:   -3.42 KCAL/MOL
REMARK 924 INTRA-LIGAND FREE ENERGY PREDICTED BY IDOCK:   -0.41 KCAL/MOL
REMARK 927      BINDING AFFINITY PREDICTED BY RF-SCORE:    0.00 PKD
ROOT
HETATM    1  C   UNL     1      -9.920   8.846  66.381  1.00  0.00    -0.354 C  
HETATM    2  C   UNL     1      -8.515   9.383  66.128  1.00  0.00    -0.127 C  
HETATM    3  C   UNL     1      -8.317   9.732  64.650  1.00  0.00    -0.162 C  
HETATM    4  C   UNL     1      -8.188  10.519  67.088  1.00  0.00    -0.123 A  
HETATM    5  O   UNL     1      -7.098  10.265  64.376  1.00  0.00    -0.131 OA 
HETATM    6  O   UNL     1      -9.131   9.519  63.762  1.00  0.00    -0.224 OA 
HETATM    7  C   UNL     1      -8.475  11.856  66.773  1.00  0.00    -0.167 A  
HETATM    8  C   UNL     1      -7.987  12.897  67.573  1.00  0.00    -0.178 A  
HETATM    9  C   UNL     1      -7.563  10.241  68.313  1.00  0.00    -0.091 A  
HETATM   10  C   UNL     1      -7.383  12.602  68.795  1.00  0.00    -0.066 A  
HETATM   11  C   UNL     1      -7.190  11.275  69.173  1.00  0.00    -0.115 A  
ENDROOT
BRANCH   8  12
HETATM   12  O   UNL     1      -8.066  14.234  67.244  1.00  0.00    -0.188 OA 
BRANCH  12  13
HETATM   13  C   UNL     1      -9.071  15.007  67.786  1.00  0.00    -0.180 A  
HETATM   14  C   UNL     1      -8.784  16.364  67.944  1.00  0.00    -0.179 A  
HETATM   15  C   UNL     1      -9.702  17.204  68.577  1.00  0.00    -0.291 A  
HETATM   16  C   UNL     1     -10.907  16.688  69.054  1.00  0.00    -0.314 A  
HETATM   17  C   UNL     1     -11.227  15.351  68.834  1.00  0.00    -0.296 A  
HETATM   18  C   UNL     1     -10.330  14.524  68.158  1.00  0.00    -0.232 A  
ENDBRANCH  12  13
ENDBRANCH   8  12
TORSDOF 2
ENDMDL
MODEL      171
REMARK 921   NORMALIZED FREE ENERGY PREDICTED BY IDOCK:   -2.98 KCAL/MOL
REMARK 922        TOTAL FREE ENERGY PREDICTED BY IDOCK:   -3.75 KCAL/MOL
REMARK 923 INTER-LIGAND FREE ENERGY PREDICTED BY IDOCK:   -3.21 KCAL/MOL
REMARK 924 INTRA-LIGAND FREE ENERGY PREDICTED BY IDOCK:   -0.54 KCAL/MOL
REMARK 927      BINDING AFFINITY PREDICTED BY RF-SCORE:    0.00 PKD
ROOT
HETATM    1  C   UNL     1      -8.357   8.644  72.385  1.00  0.00    -0.100 C  
HETATM    2  C   UNL     1      -9.595   7.792  72.641  1.00  0.00    -0.261 C  
HETATM    3  C   UNL     1     -10.840   8.426  72.013  1.00  0.00    -0.320 C  
HETATM    4  C   UNL     1      -9.353   6.346  72.228  1.00  0.00    -0.141 A  
HETATM    5  O   UNL     1     -11.965   7.682  72.165  1.00  0.00    -0.296 OA 
HETATM    6  O   UNL     1     -10.871   9.519  71.464  1.00  0.00    -0.355 OA 
HETATM    7  C   UNL     1      -9.630   5.895  70.929  1.00  0.00    -0.202 A  
HETATM    8  C   UNL     1      -9.593   4.528  70.627  1.00  0.00    -0.190 A  
HETATM    9  C   UNL     1      -8.863   5.425  73.166  1.00  0.00    -0.119 A  
HETATM   10  C   UNL     1      -9.088   3.628  71.565  1.00  0.00    -0.175 A  
HETATM   11  C   UNL     1      -8.704   4.080  72.826  1.00  0.00    -0.105 A  
ENDROOT
BRANCH   8  12
HETATM   12  O   UNL     1     -10.022   3.983  69.435  1.00  0.00    -0.124 OA 
BRANCH  12  13
HETATM   13  C   UNL     1      -9.495   4.447  68.248  1.00  0.00    -0.153 A  
HETATM   14  C   UNL     1     -10.398   5.044  67.368  1.00  0.00    -0.174 A  
HETATM   15  C   UNL     1      -9.974   5.451  66.101  1.00  0.00    -0.164 A  
HETATM   16  C   UNL     1      -8.647   5.260  65.713  1.00  0.00    -0.139 A  
HETATM   17  C   UNL     1      -7.729   4.730  66.616  1.00  0.00    -0.095 A  
HETATM   18  C   UNL     1      -8.143   4.369  67.897  1.00  0.00    -0.094 A  
ENDBRANCH  12  13
ENDBRANCH   8  12
TORSDOF 2
ENDMDL
MODEL      172
REMARK 921   NORMALIZED FREE ENERGY PREDICTED BY IDOCK:   -2.76 KCAL/MOL
REMARK 922        TOTAL FREE ENERGY PREDICTED BY IDOCK:   -3.50 KCAL/MOL
REMARK 923 INTER-LIGAND FREE ENERGY PREDICTED BY IDOCK:   -3.34 KCAL/MOL
REMARK 924 INTRA-LIGAND FREE ENERGY PREDICTED BY IDOCK:   -0.17 KCAL/MOL
REMARK 927      BINDING AFFINITY PREDICTED BY RF-SCORE:    0.00 PKD
ROOT
HETATM    1  C   UNL     1      -7.995   3.164  67.912  1.00  0.00    -0.075 C  
HETATM    2  C   UNL     1      -8.046   4.324  68.900  1.00  0.00    -0.073 C  
HETATM    3  C   UNL     1      -6.645   4.685  69.400  1.00  0.00    -0.040 C  
HETATM    4  C   UNL     1      -8.825   5.497  68.320  1.00  0.00    -0.104 A  
HETATM    5  O   UNL     1      -6.625   5.748  70.245  1.00  0.00    -0.043 OA 
HETATM    6  O   UNL     1      -5.622   4.070  69.129  1.00  0.00    -0.015 OA 
HETATM    7  C   UNL     1      -8.195   6.502  67.572  1.00  0.00    -0.121 A  
HETATM    8  C   UNL     1      -8.886   7.669  67.222  1.00  0.00    -0.120 A  
HETATM    9  C   UNL     1     -10.206   5.600  68.549  1.00  0.00    -0.253 A  
HETATM   10  C   UNL     1     -10.261   7.748  67.442  1.00  0.00    -0.320 A  
HETATM   11  C   UNL     1     -10.923   6.705  68.087  1.00  0.00    -0.323 A  
ENDROOT
BRANCH   8  12
HETATM   12  O   UNL     1      -8.300   8.778  66.649  1.00  0.00    -0.106 OA 
BRANCH  12  13
HETATM   13  C   UNL     1      -8.865   9.340  65.524  1.00  0.00    -0.187 A  
HETATM   14  C   UNL     1      -8.341   8.922  64.300  1.00  0.00    -0.176 A  
HETATM   15  C   UNL     1      -8.781   9.511  63.113  1.00  0.00    -0.234 A  
HETATM   16  C   UNL     1      -9.743  10.521  63.149  1.00  0.00    -0.351 A  
HETATM   17  C   UNL     1     -10.319  10.889  64.362  1.00  0.00    -0.430 A  
HETATM   18  C   UNL     1      -9.914  10.266  65.541  1.00  0.00    -0.364 A  
ENDBRANCH  12  13
ENDBRANCH   8  12
TORSDOF 2
ENDMDL
MODEL      173
REMARK 921   NORMALIZED FREE ENERGY PREDICTED BY IDOCK:   -2.61 KCAL/MOL
REMARK 922        TOTAL FREE ENERGY PREDICTED BY IDOCK:   -3.34 KCAL/MOL
REMARK 923 INTER-LIGAND FREE ENERGY PREDICTED BY IDOCK:   -2.86 KCAL/MOL
REMARK 924 INTRA-LIGAND FREE ENERGY PREDICTED BY IDOCK:   -0.49 KCAL/MOL
REMARK 927      BINDING AFFINITY PREDICTED BY RF-SCORE:    0.00 PKD
ROOT
HETATM    1  C   UNL     1     -12.434   9.197  71.881  1.00  0.00    -0.459 C  
HETATM    2  C   UNL     1     -11.953   8.043  71.007  1.00  0.00    -0.260 C  
HETATM    3  C   UNL     1     -11.198   8.559  69.779  1.00  0.00     0.031 C  
HETATM    4  C   UNL     1     -11.182   7.022  71.833  1.00  0.00    -0.282 A  
HETATM    5  O   UNL     1     -10.700   7.571  68.991  1.00  0.00    -0.207 OA 
HETATM    6  O   UNL     1     -11.075   9.737  69.474  1.00  0.00    -0.232 OA 
HETATM    7  C   UNL     1      -9.795   7.120  72.016  1.00  0.00    -0.174 A  
HETATM    8  C   UNL     1      -9.079   6.069  72.604  1.00  0.00    -0.137 A  
HETATM    9  C   UNL     1     -11.858   5.939  72.414  1.00  0.00    -0.263 A  
HETATM   10  C   UNL     1      -9.768   5.008  73.190  1.00  0.00    -0.167 A  
HETATM   11  C   UNL     1     -11.158   4.954  73.113  1.00  0.00    -0.396 A  
ENDROOT
BRANCH   8  12
HETATM   12  O   UNL     1      -7.702   6.002  72.660  1.00  0.00    -0.098 OA 
BRANCH  12  13
HETATM   13  C   UNL     1      -7.000   5.542  71.566  1.00  0.00    -0.067 A  
HETATM   14  C   UNL     1      -6.413   6.517  70.759  1.00  0.00    -0.052 A  
HETATM   15  C   UNL     1      -5.769   6.151  69.575  1.00  0.00    -0.017 A  
HETATM   16  C   UNL     1      -5.715   4.809  69.196  1.00  0.00    -0.016 A  
HETATM   17  C   UNL     1      -6.236   3.828  70.035  1.00  0.00    -0.027 A  
HETATM   18  C   UNL     1      -6.836   4.192  71.240  1.00  0.00    -0.035 A  
ENDBRANCH  12  13
ENDBRANCH   8  12
TORSDOF 2
ENDMDL
MODEL      174
REMARK 921   NORMALIZED FREE ENERGY PREDICTED BY IDOCK:   -2.57 KCAL/MOL
REMARK 922        TOTAL FREE ENERGY PREDICTED BY IDOCK:   -3.29 KCAL/MOL
REMARK 923 INTER-LIGAND FREE ENERGY PREDICTED BY IDOCK:   -2.92 KCAL/MOL
REMARK 924 INTRA-LIGAND FREE ENERGY PREDICTED BY IDOCK:   -0.37 KCAL/MOL
REMARK 927      BINDING AFFINITY PREDICTED BY RF-SCORE:    0.00 PKD
ROOT
HETATM    1  C   UNL     1      -5.922  19.434  68.627  1.00  0.00    -0.252 C  
HETATM    2  C   UNL     1      -6.386  18.694  67.377  1.00  0.00    -0.192 C  
HETATM    3  C   UNL     1      -5.944  17.228  67.408  1.00  0.00    -0.142 C  
HETATM    4  C   UNL     1      -7.879  18.892  67.153  1.00  0.00    -0.252 A  
HETATM    5  O   UNL     1      -6.375  16.507  66.341  1.00  0.00    -0.225 OA 
HETATM    6  O   UNL     1      -5.227  16.728  68.264  1.00  0.00    -0.110 OA 
HETATM    7  C   UNL     1      -8.829  18.020  67.706  1.00  0.00    -0.255 A  
HETATM    8  C   UNL     1     -10.175  18.100  67.325  1.00  0.00    -0.367 A  
HETATM    9  C   UNL     1      -8.331  19.956  66.358  1.00  0.00    -0.368 A  
HETATM   10  C   UNL     1     -10.609  19.172  66.547  1.00  0.00    -0.523 A  
HETATM   11  C   UNL     1      -9.691  20.111  66.081  1.00  0.00    -0.481 A  
ENDROOT
BRANCH   8  12
HETATM   12  O   UNL     1     -11.138  17.177  67.676  1.00  0.00    -0.219 OA 
BRANCH  12  13
HETATM   13  C   UNL     1     -10.790  16.099  68.463  1.00  0.00    -0.313 A  
HETATM   14  C   UNL     1     -11.129  16.189  69.813  1.00  0.00    -0.350 A  
HETATM   15  C   UNL     1     -10.727  15.192  70.704  1.00  0.00    -0.160 A  
HETATM   16  C   UNL     1      -9.983  14.104  70.245  1.00  0.00     1.556 A  
HETATM   17  C   UNL     1      -9.706  13.975  68.886  1.00  0.00    -0.049 A  
HETATM   18  C   UNL     1     -10.150  14.948  67.991  1.00  0.00    -0.221 A  
ENDBRANCH  12  13
ENDBRANCH   8  12
TORSDOF 2
ENDMDL
MODEL      175
REMARK 921   NORMALIZED FREE ENERGY PREDICTED BY IDOCK:   -2.54 KCAL/MOL
REMARK 922        TOTAL FREE ENERGY PREDICTED BY IDOCK:   -3.27 KCAL/MOL
REMARK 923 INTER-LIGAND FREE ENERGY PREDICTED BY IDOCK:   -2.94 KCAL/MOL
REMARK 924 INTRA-LIGAND FREE ENERGY PREDICTED BY IDOCK:   -0.33 KCAL/MOL
REMARK 927      BINDING AFFINITY PREDICTED BY RF-SCORE:    0.00 PKD
ROOT
HETATM    1  C   UNL     1      -7.415  10.375  69.892  1.00  0.00    -0.134 C  
HETATM    2  C   UNL     1      -7.104  11.124  68.601  1.00  0.00    -0.090 C  
HETATM    3  C   UNL     1      -8.140  10.810  67.518  1.00  0.00    -0.111 C  
HETATM    4  C   UNL     1      -6.911  12.611  68.869  1.00  0.00    -0.097 A  
HETATM    5  O   UNL     1      -7.942  11.492  66.361  1.00  0.00    -0.139 OA 
HETATM    6  O   UNL     1      -9.044   9.992  67.626  1.00  0.00    -0.134 OA 
HETATM    7  C   UNL     1      -7.985  13.512  68.828  1.00  0.00    -0.002 A  
HETATM    8  C   UNL     1      -7.757  14.894  68.877  1.00  0.00    -0.148 A  
HETATM    9  C   UNL     1      -5.629  13.110  69.144  1.00  0.00    -0.073 A  
HETATM   10  C   UNL     1      -6.480  15.372  69.167  1.00  0.00    -0.128 A  
HETATM   11  C   UNL     1      -5.421  14.479  69.321  1.00  0.00    -0.091 A  
ENDROOT
BRANCH   8  12
HETATM   12  O   UNL     1      -8.728  15.850  68.663  1.00  0.00    -0.178 OA 
BRANCH  12  13
HETATM   13  C   UNL     1      -8.412  16.992  67.959  1.00  0.00    -0.216 A  
HETATM   14  C   UNL     1      -7.992  16.805  66.642  1.00  0.00    -0.306 A  
HETATM   15  C   UNL     1      -7.555  17.895  65.886  1.00  0.00    -0.177 A  
HETATM   16  C   UNL     1      -7.535  19.172  66.447  1.00  0.00    -0.271 A  
HETATM   17  C   UNL     1      -8.021  19.372  67.736  1.00  0.00    -0.321 A  
HETATM   18  C   UNL     1      -8.503  18.290  68.473  1.00  0.00    -0.325 A  
ENDBRANCH  12  13
ENDBRANCH   8  12
TORSDOF 2
ENDMDL
MODEL      176
REMARK 921   NORMALIZED FREE ENERGY PREDICTED BY IDOCK:   -2.37 KCAL/MOL
REMARK 922        TOTAL FREE ENERGY PREDICTED BY IDOCK:   -3.07 KCAL/MOL
REMARK 923 INTER-LIGAND FREE ENERGY PREDICTED BY IDOCK:   -2.85 KCAL/MOL
REMARK 924 INTRA-LIGAND FREE ENERGY PREDICTED BY IDOCK:   -0.21 KCAL/MOL
REMARK 927      BINDING AFFINITY PREDICTED BY RF-SCORE:    0.00 PKD
ROOT
HETATM    1  C   UNL     1      -7.997   3.153  67.914  1.00  0.00    -0.075 C  
HETATM    2  C   UNL     1      -8.084   4.357  68.846  1.00  0.00    -0.072 C  
HETATM    3  C   UNL     1      -6.690   4.834  69.263  1.00  0.00    -0.048 C  
HETATM    4  C   UNL     1      -8.963   5.446  68.244  1.00  0.00    -0.112 A  
HETATM    5  O   UNL     1      -6.706   5.938  70.052  1.00  0.00    -0.048 OA 
HETATM    6  O   UNL     1      -5.641   4.273  68.977  1.00  0.00    -0.015 OA 
HETATM    7  C   UNL     1      -8.433   6.450  67.420  1.00  0.00    -0.108 A  
HETATM    8  C   UNL     1      -9.215   7.549  67.044  1.00  0.00    -0.138 A  
HETATM    9  C   UNL     1     -10.337   5.472  68.530  1.00  0.00    -0.247 A  
HETATM   10  C   UNL     1     -10.581   7.551  67.322  1.00  0.00    -0.394 A  
HETATM   11  C   UNL     1     -11.145   6.502  68.047  1.00  0.00    -0.332 A  
ENDROOT
BRANCH   8  12
HETATM   12  O   UNL     1      -8.728   8.662  66.392  1.00  0.00    -0.119 OA 
BRANCH  12  13
HETATM   13  C   UNL     1      -9.025   9.918  66.878  1.00  0.00    -0.138 A  
HETATM   14  C   UNL     1     -10.136  10.548  66.316  1.00  0.00    -0.290 A  
HETATM   15  C   UNL     1     -10.451  11.860  66.673  1.00  0.00    -0.250 A  
HETATM   16  C   UNL     1      -9.655  12.545  67.592  1.00  0.00    -0.190 A  
HETATM   17  C   UNL     1      -8.589  11.895  68.208  1.00  0.00    -0.162 A  
HETATM   18  C   UNL     1      -8.304  10.568  67.886  1.00  0.00    -0.115 A  
ENDBRANCH  12  13
ENDBRANCH   8  12
TORSDOF 2
ENDMDL
MODEL      177
REMARK 921   NORMALIZED FREE ENERGY PREDICTED BY IDOCK:   -2.36 KCAL/MOL
REMARK 922        TOTAL FREE ENERGY PREDICTED BY IDOCK:   -3.06 KCAL/MOL
REMARK 923 INTER-LIGAND FREE ENERGY PREDICTED BY IDOCK:   -2.58 KCAL/MOL
REMARK 924 INTRA-LIGAND FREE ENERGY PREDICTED BY IDOCK:   -0.48 KCAL/MOL
REMARK 927      BINDING AFFINITY PREDICTED BY RF-SCORE:    0.00 PKD
ROOT
HETATM    1  C   UNL     1      -6.677  12.009  68.244  1.00  0.00    -0.061 C  
HETATM    2  C   UNL     1      -6.341  10.561  67.904  1.00  0.00    -0.059 C  
HETATM    3  C   UNL     1      -6.199   9.715  69.173  1.00  0.00    -0.041 C  
HETATM    4  C   UNL     1      -7.327  10.000  66.887  1.00  0.00    -0.092 A  
HETATM    5  O   UNL     1      -5.951   8.403  68.927  1.00  0.00    -0.041 OA 
HETATM    6  O   UNL     1      -6.244  10.150  70.316  1.00  0.00    -0.076 OA 
HETATM    7  C   UNL     1      -8.511   9.360  67.283  1.00  0.00    -0.125 A  
HETATM    8  C   UNL     1      -9.298   8.678  66.347  1.00  0.00    -0.211 A  
HETATM    9  C   UNL     1      -7.047  10.099  65.515  1.00  0.00    -0.138 A  
HETATM   10  C   UNL     1      -9.015   8.800  64.988  1.00  0.00    -0.113 A  
HETATM   11  C   UNL     1      -7.902   9.528  64.571  1.00  0.00    -0.126 A  
ENDROOT
BRANCH   8  12
HETATM   12  O   UNL     1     -10.372   7.876  66.673  1.00  0.00    -0.291 OA 
BRANCH  12  13
HETATM   13  C   UNL     1     -10.151   6.576  67.076  1.00  0.00    -0.179 A  
HETATM   14  C   UNL     1     -10.117   6.359  68.454  1.00  0.00    -0.173 A  
HETATM   15  C   UNL     1      -9.798   5.095  68.955  1.00  0.00    -0.246 A  
HETATM   16  C   UNL     1      -9.511   4.048  68.078  1.00  0.00    -0.220 A  
HETATM   17  C   UNL     1      -9.615   4.244  66.704  1.00  0.00    -0.218 A  
HETATM   18  C   UNL     1      -9.980   5.494  66.206  1.00  0.00    -0.174 A  
ENDBRANCH  12  13
ENDBRANCH   8  12
TORSDOF 2
ENDMDL
MODEL      178
REMARK 921   NORMALIZED FREE ENERGY PREDICTED BY IDOCK:   -2.28 KCAL/MOL
REMARK 922        TOTAL FREE ENERGY PREDICTED BY IDOCK:   -2.97 KCAL/MOL
REMARK 923 INTER-LIGAND FREE ENERGY PREDICTED BY IDOCK:   -2.51 KCAL/MOL
REMARK 924 INTRA-LIGAND FREE ENERGY PREDICTED BY IDOCK:   -0.46 KCAL/MOL
REMARK 927      BINDING AFFINITY PREDICTED BY RF-SCORE:    0.00 PKD
ROOT
HETATM    1  C   UNL     1     -11.041   8.751  71.572  1.00  0.00    -0.377 C  
HETATM    2  C   UNL     1     -11.022   7.319  71.047  1.00  0.00    -0.272 C  
HETATM    3  C   UNL     1     -10.689   7.284  69.553  1.00  0.00    -0.232 C  
HETATM    4  C   UNL     1     -10.126   6.439  71.909  1.00  0.00    -0.204 A  
HETATM    5  O   UNL     1     -10.607   6.028  69.043  1.00  0.00    -0.227 OA 
HETATM    6  O   UNL     1     -10.555   8.269  68.840  1.00  0.00    -0.211 OA 
HETATM    7  C   UNL     1      -8.760   6.283  71.631  1.00  0.00    -0.134 A  
HETATM    8  C   UNL     1      -8.002   5.318  72.307  1.00  0.00    -0.106 A  
HETATM    9  C   UNL     1     -10.671   5.741  72.997  1.00  0.00    -0.290 A  
HETATM   10  C   UNL     1      -8.554   4.646  73.396  1.00  0.00    -0.101 A  
HETATM   11  C   UNL     1      -9.882   4.873  73.753  1.00  0.00    -0.172 A  
ENDROOT
BRANCH   8  12
HETATM   12  O   UNL     1      -6.708   4.975  71.976  1.00  0.00    -0.044 OA 
BRANCH  12  13
HETATM   13  C   UNL     1      -6.485   3.954  71.076  1.00  0.00    -0.026 A  
HETATM   14  C   UNL     1      -5.846   2.820  71.580  1.00  0.00    -0.013 A  
HETATM   15  C   UNL     1      -5.489   1.779  70.721  1.00  0.00    -0.008 A  
HETATM   16  C   UNL     1      -5.768   1.872  69.356  1.00  0.00    -0.022 A  
HETATM   17  C   UNL     1      -6.469   2.969  68.864  1.00  0.00    -0.029 A  
HETATM   18  C   UNL     1      -6.868   3.985  69.731  1.00  0.00    -0.041 A  
ENDBRANCH  12  13
ENDBRANCH   8  12
TORSDOF 2
ENDMDL
MODEL      179
REMARK 921   NORMALIZED FREE ENERGY PREDICTED BY IDOCK:   -1.56 KCAL/MOL
REMARK 922        TOTAL FREE ENERGY PREDICTED BY IDOCK:   -2.17 KCAL/MOL
REMARK 923 INTER-LIGAND FREE ENERGY PREDICTED BY IDOCK:   -1.65 KCAL/MOL
REMARK 924 INTRA-LIGAND FREE ENERGY PREDICTED BY IDOCK:   -0.52 KCAL/MOL
REMARK 927      BINDING AFFINITY PREDICTED BY RF-SCORE:    0.00 PKD
ROOT
HETATM    1  C   UNL     1      -7.973   3.186  67.763  1.00  0.00    -0.075 C  
HETATM    2  C   UNL     1      -8.149   4.425  68.634  1.00  0.00    -0.077 C  
HETATM    3  C   UNL     1      -7.051   4.511  69.698  1.00  0.00    -0.050 C  
HETATM    4  C   UNL     1      -8.290   5.676  67.777  1.00  0.00    -0.100 A  
HETATM    5  O   UNL     1      -7.128   5.625  70.471  1.00  0.00    -0.062 OA 
HETATM    6  O   UNL     1      -6.199   3.657  69.899  1.00  0.00    -0.026 OA 
HETATM    7  C   UNL     1      -7.173   6.429  67.385  1.00  0.00    -0.082 A  
HETATM    8  C   UNL     1      -7.337   7.678  66.772  1.00  0.00    -0.089 A  
HETATM    9  C   UNL     1      -9.563   6.111  67.380  1.00  0.00    -0.122 A  
HETATM   10  C   UNL     1      -8.607   8.088  66.370  1.00  0.00    -0.155 A  
HETATM   11  C   UNL     1      -9.717   7.295  66.656  1.00  0.00    -0.249 A  
ENDROOT
BRANCH   8  12
HETATM   12  O   UNL     1      -6.307   8.560  66.519  1.00  0.00    -0.056 OA 
BRANCH  12  13
HETATM   13  C   UNL     1      -6.308   9.798  67.127  1.00  0.00    -0.068 A  
HETATM   14  C   UNL     1      -6.254   9.797  68.521  1.00  0.00    -0.046 A  
HETATM   15  C   UNL     1      -6.353  10.998  69.226  1.00  0.00    -0.065 A  
HETATM   16  C   UNL     1      -6.509  12.201  68.537  1.00  0.00    -0.059 A  
HETATM   17  C   UNL     1      -6.492  12.212  67.145  1.00  0.00    -0.135 A  
HETATM   18  C   UNL     1      -6.344  11.017  66.442  1.00  0.00    -0.133 A  
ENDBRANCH  12  13
ENDBRANCH   8  12
TORSDOF 2
ENDMDL
MODEL      180
REMARK 921   NORMALIZED FREE ENERGY PREDICTED BY IDOCK:   -1.50 KCAL/MOL
REMARK 922        TOTAL FREE ENERGY PREDICTED BY IDOCK:   -2.10 KCAL/MOL
REMARK 923 INTER-LIGAND FREE ENERGY PREDICTED BY IDOCK:   -1.72 KCAL/MOL
REMARK 924 INTRA-LIGAND FREE ENERGY PREDICTED BY IDOCK:   -0.38 KCAL/MOL
REMARK 927      BINDING AFFINITY PREDICTED BY RF-SCORE:    0.00 PKD
ROOT
HETATM    1  C   UNL     1      -8.749  10.775  68.053  1.00  0.00    -0.132 C  
HETATM    2  C   UNL     1      -8.638  11.981  67.128  1.00  0.00    -0.182 C  
HETATM    3  C   UNL     1      -9.823  12.046  66.161  1.00  0.00    -0.235 C  
HETATM    4  C   UNL     1      -8.411  13.258  67.926  1.00  0.00    -0.177 A  
HETATM    5  O   UNL     1      -9.802  13.132  65.346  1.00  0.00    -0.217 OA 
HETATM    6  O   UNL     1     -10.697  11.196  66.063  1.00  0.00    -0.259 OA 
HETATM    7  C   UNL     1      -9.482  14.039  68.387  1.00  0.00    -0.213 A  
HETATM    8  C   UNL     1      -9.255  15.305  68.939  1.00  0.00    -0.211 A  
HETATM    9  C   UNL     1      -7.104  13.691  68.197  1.00  0.00    -0.118 A  
HETATM   10  C   UNL     1      -7.950  15.712  69.216  1.00  0.00    -0.237 A  
HETATM   11  C   UNL     1      -6.877  14.896  68.863  1.00  0.00    -0.104 A  
ENDROOT
BRANCH   8  12
HETATM   12  O   UNL     1     -10.250  16.208  69.250  1.00  0.00    -0.226 OA 
BRANCH  12  13
HETATM   13  C   UNL     1     -11.011  16.016  70.384  1.00  0.00    -0.336 A  
HETATM   14  C   UNL     1     -10.305  15.840  71.575  1.00  0.00     1.310 A  
HETATM   15  C   UNL     1     -10.989  15.538  72.754  1.00  0.00     0.775 A  
HETATM   16  C   UNL     1     -12.378  15.409  72.743  1.00  0.00    -0.508 A  
HETATM   17  C   UNL     1     -13.090  15.654  71.572  1.00  0.00    -0.561 A  
HETATM   18  C   UNL     1     -12.410  16.003  70.406  1.00  0.00    -0.088 A  
ENDBRANCH  12  13
ENDBRANCH   8  12
TORSDOF 2
ENDMDL
MODEL      181
REMARK 921   NORMALIZED FREE ENERGY PREDICTED BY IDOCK:   -1.32 KCAL/MOL
REMARK 922        TOTAL FREE ENERGY PREDICTED BY IDOCK:   -1.90 KCAL/MOL
REMARK 923 INTER-LIGAND FREE ENERGY PREDICTED BY IDOCK:   -1.46 KCAL/MOL
REMARK 924 INTRA-LIGAND FREE ENERGY PREDICTED BY IDOCK:   -0.44 KCAL/MOL
REMARK 927      BINDING AFFINITY PREDICTED BY RF-SCORE:    0.00 PKD
ROOT
HETATM    1  C   UNL     1      -7.086  12.369  66.185  1.00  0.00     1.619 C  
HETATM    2  C   UNL     1      -7.490  13.098  67.462  1.00  0.00    -0.164 C  
HETATM    3  C   UNL     1      -6.476  12.849  68.583  1.00  0.00    -0.087 C  
HETATM    4  C   UNL     1      -7.765  14.570  67.183  1.00  0.00    -0.093 A  
HETATM    5  O   UNL     1      -6.759  13.517  69.730  1.00  0.00    -0.045 OA 
HETATM    6  O   UNL     1      -5.520  12.089  68.509  1.00  0.00    -0.052 OA 
HETATM    7  C   UNL     1      -6.752  15.536  67.261  1.00  0.00    -0.128 A  
HETATM    8  C   UNL     1      -7.063  16.901  67.201  1.00  0.00    -0.181 A  
HETATM    9  C   UNL     1      -9.065  14.988  66.860  1.00  0.00    -0.269 A  
HETATM   10  C   UNL     1      -8.355  17.299  66.863  1.00  0.00    -0.253 A  
HETATM   11  C   UNL     1      -9.351  16.342  66.673  1.00  0.00    -0.272 A  
ENDROOT
BRANCH   8  12
HETATM   12  O   UNL     1      -6.162  17.915  67.447  1.00  0.00    -0.148 OA 
BRANCH  12  13
HETATM   13  C   UNL     1      -6.103  18.480  68.704  1.00  0.00    -0.204 A  
HETATM   14  C   UNL     1      -6.731  19.717  68.851  1.00  0.00    -0.362 A  
HETATM   15  C   UNL     1      -6.636  20.411  70.059  1.00  0.00    -0.050 A  
HETATM   16  C   UNL     1      -5.910  19.869  71.121  1.00  0.00    -0.306 A  
HETATM   17  C   UNL     1      -5.343  18.603  71.000  1.00  0.00    -0.248 A  
HETATM   18  C   UNL     1      -5.480  17.891  69.809  1.00  0.00    -0.216 A  
ENDBRANCH  12  13
ENDBRANCH   8  12
TORSDOF 2
ENDMDL
MODEL      182
REMARK 921   NORMALIZED FREE ENERGY PREDICTED BY IDOCK:   -1.27 KCAL/MOL
REMARK 922        TOTAL FREE ENERGY PREDICTED BY IDOCK:   -1.84 KCAL/MOL
REMARK 923 INTER-LIGAND FREE ENERGY PREDICTED BY IDOCK:   -2.18 KCAL/MOL
REMARK 924 INTRA-LIGAND FREE ENERGY PREDICTED BY IDOCK:    0.34 KCAL/MOL
REMARK 927      BINDING AFFINITY PREDICTED BY RF-SCORE:    0.00 PKD
ROOT
HETATM    1  C   UNL     1      -8.400  20.337  70.976  1.00  0.00     1.929 C  
HETATM    2  C   UNL     1      -7.467  20.402  69.772  1.00  0.00     0.656 C  
HETATM    3  C   UNL     1      -6.059  19.925  70.139  1.00  0.00    -0.334 C  
HETATM    4  C   UNL     1      -8.077  19.686  68.574  1.00  0.00    -0.339 A  
HETATM    5  O   UNL     1      -5.197  19.912  69.089  1.00  0.00    -0.179 OA 
HETATM    6  O   UNL     1      -5.690  19.625  71.267  1.00  0.00    -0.261 OA 
HETATM    7  C   UNL     1      -7.858  18.320  68.342  1.00  0.00    -0.318 A  
HETATM    8  C   UNL     1      -8.257  17.730  67.136  1.00  0.00    -0.219 A  
HETATM    9  C   UNL     1      -8.862  20.402  67.657  1.00  0.00    -0.329 A  
HETATM   10  C   UNL     1      -9.050  18.451  66.244  1.00  0.00    -0.213 A  
HETATM   11  C   UNL     1      -9.369  19.780  66.515  1.00  0.00    -0.486 A  
ENDROOT
BRANCH   8  12
HETATM   12  O   UNL     1      -7.926  16.447  66.751  1.00  0.00    -0.202 OA 
BRANCH  12  13
HETATM   13  C   UNL     1      -8.921  15.577  66.359  1.00  0.00    -0.324 A  
HETATM   14  C   UNL     1      -8.835  14.279  66.863  1.00  0.00    -0.234 A  
HETATM   15  C   UNL     1      -9.741  13.304  66.441  1.00  0.00    -0.279 A  
HETATM   16  C   UNL     1     -10.731  13.625  65.512  1.00  0.00    -0.296 A  
HETATM   17  C   UNL     1     -10.863  14.936  65.063  1.00  0.00    -0.439 A  
HETATM   18  C   UNL     1      -9.989  15.920  65.523  1.00  0.00    -0.313 A  
ENDBRANCH  12  13
ENDBRANCH   8  12
TORSDOF 2
ENDMDL
MODEL      183
REMARK 921   NORMALIZED FREE ENERGY PREDICTED BY IDOCK:    0.17 KCAL/MOL
REMARK 922        TOTAL FREE ENERGY PREDICTED BY IDOCK:   -0.24 KCAL/MOL
REMARK 923 INTER-LIGAND FREE ENERGY PREDICTED BY IDOCK:   -0.17 KCAL/MOL
REMARK 924 INTRA-LIGAND FREE ENERGY PREDICTED BY IDOCK:   -0.07 KCAL/MOL
REMARK 927      BINDING AFFINITY PREDICTED BY RF-SCORE:    0.00 PKD
ROOT
HETATM    1  C   UNL     1     -11.888   9.005  72.769  1.00  0.00     0.397 C  
HETATM    2  C   UNL     1     -12.218   7.628  72.204  1.00  0.00    -0.301 C  
HETATM    3  C   UNL     1     -12.624   7.720  70.730  1.00  0.00     0.096 C  
HETATM    4  C   UNL     1     -11.090   6.643  72.481  1.00  0.00    -0.296 A  
HETATM    5  O   UNL     1     -12.879   6.514  70.159  1.00  0.00     0.634 OA 
HETATM    6  O   UNL     1     -12.768   8.761  70.105  1.00  0.00     0.766 OA 
HETATM    7  C   UNL     1     -10.025   6.470  71.583  1.00  0.00    -0.194 A  
HETATM    8  C   UNL     1      -9.111   5.424  71.756  1.00  0.00    -0.138 A  
HETATM    9  C   UNL     1     -11.112   5.865  73.648  1.00  0.00     0.029 A  
HETATM   10  C   UNL     1      -9.137   4.672  72.929  1.00  0.00    -0.131 A  
HETATM   11  C   UNL     1     -10.125   4.907  73.884  1.00  0.00    -0.219 A  
ENDROOT
BRANCH   8  12
HETATM   12  O   UNL     1      -8.149   5.072  70.832  1.00  0.00    -0.092 OA 
BRANCH  12  13
HETATM   13  C   UNL     1      -8.404   4.049  69.942  1.00  0.00    -0.060 A  
HETATM   14  C   UNL     1      -9.056   2.931  70.463  1.00  0.00    -0.190 A  
HETATM   15  C   UNL     1      -9.265   1.807  69.660  1.00  0.00    -0.166 A  
HETATM   16  C   UNL     1      -8.820   1.800  68.338  1.00  0.00    -0.137 A  
HETATM   17  C   UNL     1      -8.233   2.941  67.796  1.00  0.00    -0.087 A  
HETATM   18  C   UNL     1      -8.069   4.079  68.584  1.00  0.00    -0.078 A  
ENDBRANCH  12  13
ENDBRANCH   8  12
TORSDOF 2
ENDMDL
MODEL      184
REMARK 921   NORMALIZED FREE ENERGY PREDICTED BY IDOCK:    0.20 KCAL/MOL
REMARK 922        TOTAL FREE ENERGY PREDICTED BY IDOCK:   -0.20 KCAL/MOL
REMARK 923 INTER-LIGAND FREE ENERGY PREDICTED BY IDOCK:    0.21 KCAL/MOL
REMARK 924 INTRA-LIGAND FREE ENERGY PREDICTED BY IDOCK:   -0.41 KCAL/MOL
REMARK 927      BINDING AFFINITY PREDICTED BY RF-SCORE:    0.00 PKD
ROOT
HETATM    1  C   UNL     1      -7.920   9.543  70.297  1.00  0.00    -0.190 C  
HETATM    2  C   UNL     1      -7.810  10.688  69.296  1.00  0.00    -0.140 C  
HETATM    3  C   UNL     1      -6.980  10.277  68.077  1.00  0.00    -0.082 C  
HETATM    4  C   UNL     1      -9.186  11.246  68.957  1.00  0.00     0.005 A  
HETATM    5  O   UNL     1      -6.892  11.244  67.127  1.00  0.00    -0.095 OA 
HETATM    6  O   UNL     1      -6.393   9.211  67.954  1.00  0.00    -0.054 OA 
HETATM    7  C   UNL     1      -9.946  10.736  67.894  1.00  0.00    -0.196 A  
HETATM    8  C   UNL     1     -11.111  11.390  67.473  1.00  0.00    -0.281 A  
HETATM    9  C   UNL     1      -9.711  12.313  69.703  1.00  0.00     1.541 A  
HETATM   10  C   UNL     1     -11.627  12.438  68.235  1.00  0.00    -0.384 A  
HETATM   11  C   UNL     1     -10.937  12.885  69.361  1.00  0.00    -0.048 A  
ENDROOT
BRANCH   8  12
HETATM   12  O   UNL     1     -11.816  11.065  66.334  1.00  0.00     0.070 OA 
BRANCH  12  13
HETATM   13  C   UNL     1     -11.694  11.856  65.211  1.00  0.00    -0.169 A  
HETATM   14  C   UNL     1     -12.726  12.767  64.985  1.00  0.00    -0.455 A  
HETATM   15  C   UNL     1     -12.738  13.537  63.821  1.00  0.00     0.056 A  
HETATM   16  C   UNL     1     -11.718  13.395  62.879  1.00  0.00     0.889 A  
HETATM   17  C   UNL     1     -10.650  12.540  63.135  1.00  0.00     0.128 A  
HETATM   18  C   UNL     1     -10.615  11.808  64.321  1.00  0.00    -0.386 A  
ENDBRANCH  12  13
ENDBRANCH   8  12
TORSDOF 2
ENDMDL
MODEL      185
REMARK 921   NORMALIZED FREE ENERGY PREDICTED BY IDOCK:    3.82 KCAL/MOL
REMARK 922        TOTAL FREE ENERGY PREDICTED BY IDOCK:    3.84 KCAL/MOL
REMARK 923 INTER-LIGAND FREE ENERGY PREDICTED BY IDOCK:    3.56 KCAL/MOL
REMARK 924 INTRA-LIGAND FREE ENERGY PREDICTED BY IDOCK:    0.28 KCAL/MOL
REMARK 927      BINDING AFFINITY PREDICTED BY RF-SCORE:    0.00 PKD
ROOT
HETATM    1  C   UNL     1      -8.713  20.366  71.254  1.00  0.00     2.094 C  
HETATM    2  C   UNL     1      -7.733  20.605  70.110  1.00  0.00     1.848 C  
HETATM    3  C   UNL     1      -6.349  20.041  70.443  1.00  0.00    -0.288 C  
HETATM    4  C   UNL     1      -8.309  20.111  68.790  1.00  0.00     0.165 A  
HETATM    5  O   UNL     1      -5.448  20.180  69.437  1.00  0.00    -0.219 OA 
HETATM    6  O   UNL     1      -6.030  19.551  71.518  1.00  0.00    -0.142 OA 
HETATM    7  C   UNL     1      -8.106  18.797  68.343  1.00  0.00    -0.371 A  
HETATM    8  C   UNL     1      -8.468  18.422  67.043  1.00  0.00    -0.253 A  
HETATM    9  C   UNL     1      -9.045  20.987  67.977  1.00  0.00     0.302 A  
HETATM   10  C   UNL     1      -9.213  19.299  66.255  1.00  0.00    -0.362 A  
HETATM   11  C   UNL     1      -9.518  20.573  66.731  1.00  0.00    -0.420 A  
ENDROOT
BRANCH   8  12
HETATM   12  O   UNL     1      -8.145  17.213  66.463  1.00  0.00    -0.232 OA 
BRANCH  12  13
HETATM   13  C   UNL     1      -7.562  16.227  67.231  1.00  0.00    -0.171 A  
HETATM   14  C   UNL     1      -6.662  15.388  66.572  1.00  0.00     1.587 A  
HETATM   15  C   UNL     1      -6.101  14.300  67.243  1.00  0.00     0.471 A  
HETATM   16  C   UNL     1      -6.441  14.048  68.573  1.00  0.00    -0.093 A  
HETATM   17  C   UNL     1      -7.282  14.924  69.253  1.00  0.00    -0.172 A  
HETATM   18  C   UNL     1      -7.803  16.038  68.596  1.00  0.00    -0.179 A  
ENDBRANCH  12  13
ENDBRANCH   8  12
TORSDOF 2
ENDMDL
MODEL      186
REMARK 921   NORMALIZED FREE ENERGY PREDICTED BY IDOCK:   11.10 KCAL/MOL
REMARK 922        TOTAL FREE ENERGY PREDICTED BY IDOCK:   11.97 KCAL/MOL
REMARK 923 INTER-LIGAND FREE ENERGY PREDICTED BY IDOCK:   11.70 KCAL/MOL
REMARK 924 INTRA-LIGAND FREE ENERGY PREDICTED BY IDOCK:    0.27 KCAL/MOL
REMARK 927      BINDING AFFINITY PREDICTED BY RF-SCORE:    0.00 PKD
ROOT
HETATM    1  C   UNL     1     -12.463   9.469  71.845  1.00  0.00    -0.465 C  
HETATM    2  C   UNL     1     -12.754   8.243  70.988  1.00  0.00    -0.021 C  
HETATM    3  C   UNL     1     -13.379   8.642  69.648  1.00  0.00     4.043 C  
HETATM    4  C   UNL     1     -11.518   7.362  70.863  1.00  0.00    -0.311 A  
HETATM    5  O   UNL     1     -13.612   7.590  68.821  1.00  0.00     8.681 OA 
HETATM    6  O   UNL     1     -13.702   9.780  69.335  1.00  0.00     1.939 OA 
HETATM    7  C   UNL     1     -10.586   7.542  69.829  1.00  0.00    -0.245 A  
HETATM    8  C   UNL     1      -9.571   6.602  69.614  1.00  0.00    -0.151 A  
HETATM    9  C   UNL     1     -11.301   6.326  71.784  1.00  0.00    -0.346 A  
HETATM   10  C   UNL     1      -9.360   5.589  70.548  1.00  0.00    -0.195 A  
HETATM   11  C   UNL     1     -10.213   5.464  71.644  1.00  0.00    -0.268 A  
ENDROOT
BRANCH   8  12
HETATM   12  O   UNL     1      -8.729   6.603  68.522  1.00  0.00    -0.124 OA 
BRANCH  12  13
HETATM   13  C   UNL     1      -8.820   5.587  67.593  1.00  0.00    -0.105 A  
HETATM   14  C   UNL     1      -8.973   4.298  68.106  1.00  0.00    -0.151 A  
HETATM   15  C   UNL     1      -8.972   3.199  67.246  1.00  0.00    -0.181 A  
HETATM   16  C   UNL     1      -8.816   3.387  65.872  1.00  0.00    -0.135 A  
HETATM   17  C   UNL     1      -8.735   4.675  65.352  1.00  0.00    -0.134 A  
HETATM   18  C   UNL     1      -8.785   5.775  66.207  1.00  0.00    -0.134 A  
ENDBRANCH  12  13
ENDBRANCH   8  12
TORSDOF 2
ENDMDL
