MODEL        1
REMARK 921   NORMALIZED FREE ENERGY PREDICTED BY IDOCK:   -6.50 KCAL/MOL
REMARK 922        TOTAL FREE ENERGY PREDICTED BY IDOCK:   -9.45 KCAL/MOL
REMARK 923 INTER-LIGAND FREE ENERGY PREDICTED BY IDOCK:   -8.40 KCAL/MOL
REMARK 924 INTRA-LIGAND FREE ENERGY PREDICTED BY IDOCK:   -1.05 KCAL/MOL
REMARK 927      BINDING AFFINITY PREDICTED BY RF-SCORE:    0.00 PKD
ROOT
HETATM    1  C   UNL     1      -9.891   6.707  70.239  1.00  0.00    -0.188 C  
HETATM    2  C   UNL     1     -10.392   8.002  70.861  1.00  0.00    -0.200 C  
HETATM    3  C   UNL     1      -9.669   8.281  72.173  1.00  0.00    -0.344 C  
ENDROOT
BRANCH   2   4
HETATM    4  O   UNL     1     -10.096   9.095  69.970  1.00  0.00    -0.186 OA 
BRANCH   4   5
HETATM    5  C   UNL     1     -11.125   9.950  69.668  1.00  0.00    -0.241 C  
HETATM    6  O   UNL     1     -12.116  10.105  70.369  1.00  0.00    -0.272 OA 
HETATM    7  C   UNL     1     -10.832  10.683  68.333  1.00  0.00    -0.237 C  
HETATM    8  C   UNL     1      -9.528  11.474  68.576  1.00  0.00    -0.175 C  
HETATM    9  C   UNL     1     -10.711   9.605  67.248  1.00  0.00    -0.284 C  
HETATM   10  O   UNL     1     -11.994  11.496  68.050  1.00  0.00    -0.595 OA 
BRANCH  10  11
HETATM   11  C   UNL     1     -11.893  12.646  67.326  1.00  0.00    -0.328 A  
HETATM   12  C   UNL     1     -11.799  12.722  65.941  1.00  0.00    -0.490 A  
HETATM   13  C   UNL     1     -11.493  13.930  65.318  1.00  0.00    -0.319 A  
HETATM   14  C   UNL     1     -11.343  15.091  66.078  1.00  0.00    -0.270 A  
HETATM   15  C   UNL     1     -11.625  15.057  67.447  1.00  0.00    -0.304 A  
HETATM   16  C   UNL     1     -11.885  13.830  68.068  1.00  0.00    -0.408 A  
BRANCH  14  17
HETATM   17  C   UNL     1     -10.868  16.312  65.383  1.00  0.00    -0.273 C  
HETATM   18  O   UNL     1     -11.191  16.487  64.210  1.00  0.00    -0.992 OA 
BRANCH  17  19
HETATM   19  C   UNL     1      -9.953  17.293  66.031  1.00  0.00    -0.249 A  
HETATM   20  C   UNL     1     -10.462  18.564  66.332  1.00  0.00    -0.443 A  
HETATM   21  C   UNL     1      -9.635  19.545  66.883  1.00  0.00    -0.440 A  
HETATM   22  C   UNL     1      -8.294  19.260  67.133  1.00  0.00    -0.280 A  
HETATM   23  C   UNL     1      -7.775  18.003  66.834  1.00  0.00    -0.245 A  
HETATM   24 CL   UNL     1      -7.268  20.475  67.787  1.00  0.00    -0.334 Cl 
HETATM   25  C   UNL     1      -8.598  17.022  66.271  1.00  0.00    -0.298 A  
ENDBRANCH  17  19
ENDBRANCH  14  17
ENDBRANCH  10  11
ENDBRANCH   4   5
ENDBRANCH   2   4
TORSDOF 5
ENDMDL
MODEL        2
REMARK 921   NORMALIZED FREE ENERGY PREDICTED BY IDOCK:   -6.47 KCAL/MOL
REMARK 922        TOTAL FREE ENERGY PREDICTED BY IDOCK:   -9.41 KCAL/MOL
REMARK 923 INTER-LIGAND FREE ENERGY PREDICTED BY IDOCK:   -8.94 KCAL/MOL
REMARK 924 INTRA-LIGAND FREE ENERGY PREDICTED BY IDOCK:   -0.48 KCAL/MOL
REMARK 927      BINDING AFFINITY PREDICTED BY RF-SCORE:    0.00 PKD
ROOT
HETATM    1  C   UNL     1     -10.057  19.188  68.030  1.00  0.00    -0.482 C  
HETATM    2  C   UNL     1     -10.638  18.876  66.659  1.00  0.00    -0.395 C  
HETATM    3  C   UNL     1     -10.488  20.074  65.729  1.00  0.00    -0.469 C  
ENDROOT
BRANCH   2   4
HETATM    4  O   UNL     1      -9.900  17.786  66.074  1.00  0.00    -0.490 OA 
BRANCH   4   5
HETATM    5  C   UNL     1     -10.628  16.798  65.462  1.00  0.00    -0.230 C  
HETATM    6  O   UNL     1     -11.224  16.940  64.402  1.00  0.00    -1.159 OA 
HETATM    7  C   UNL     1     -10.565  15.495  66.302  1.00  0.00    -0.307 C  
HETATM    8  C   UNL     1      -9.070  15.111  66.353  1.00  0.00    -0.331 C  
HETATM    9  C   UNL     1     -11.170  15.819  67.674  1.00  0.00    -0.246 C  
HETATM   10  O   UNL     1     -11.418  14.537  65.634  1.00  0.00    -0.334 OA 
BRANCH  10  11
HETATM   11  C   UNL     1     -11.186  13.197  65.729  1.00  0.00    -0.286 A  
HETATM   12  C   UNL     1     -11.495  12.401  66.827  1.00  0.00    -0.423 A  
HETATM   13  C   UNL     1     -11.030  11.090  66.902  1.00  0.00    -0.311 A  
HETATM   14  C   UNL     1     -10.305  10.542  65.842  1.00  0.00    -0.275 A  
HETATM   15  C   UNL     1     -10.159  11.274  64.660  1.00  0.00    -0.343 A  
HETATM   16  C   UNL     1     -10.589  12.605  64.614  1.00  0.00    -0.357 A  
BRANCH  14  17
HETATM   17  C   UNL     1      -9.706   9.200  66.039  1.00  0.00    -0.287 C  
HETATM   18  O   UNL     1      -9.028   8.718  65.134  1.00  0.00    -0.184 OA 
BRANCH  17  19
HETATM   19  C   UNL     1      -9.960   8.385  67.259  1.00  0.00    -0.291 A  
HETATM   20  C   UNL     1     -10.668   7.185  67.109  1.00  0.00    -0.422 A  
HETATM   21  C   UNL     1     -10.989   6.408  68.225  1.00  0.00    -0.396 A  
HETATM   22  C   UNL     1     -10.606   6.831  69.496  1.00  0.00    -0.232 A  
HETATM   23  C   UNL     1      -9.906   8.025  69.659  1.00  0.00    -0.184 A  
HETATM   24 CL   UNL     1     -11.023   5.890  70.873  1.00  0.00    -0.346 Cl 
HETATM   25  C   UNL     1      -9.595   8.810  68.544  1.00  0.00    -0.158 A  
ENDBRANCH  17  19
ENDBRANCH  14  17
ENDBRANCH  10  11
ENDBRANCH   4   5
ENDBRANCH   2   4
TORSDOF 5
ENDMDL
MODEL        3
REMARK 921   NORMALIZED FREE ENERGY PREDICTED BY IDOCK:   -6.44 KCAL/MOL
REMARK 922        TOTAL FREE ENERGY PREDICTED BY IDOCK:   -9.37 KCAL/MOL
REMARK 923 INTER-LIGAND FREE ENERGY PREDICTED BY IDOCK:   -8.31 KCAL/MOL
REMARK 924 INTRA-LIGAND FREE ENERGY PREDICTED BY IDOCK:   -1.07 KCAL/MOL
REMARK 927      BINDING AFFINITY PREDICTED BY RF-SCORE:    0.00 PKD
ROOT
HETATM    1  C   UNL     1     -10.976   6.779  70.264  1.00  0.00    -0.339 C  
HETATM    2  C   UNL     1     -10.411   7.975  71.017  1.00  0.00    -0.201 C  
HETATM    3  C   UNL     1      -9.102   7.605  71.703  1.00  0.00    -0.157 C  
ENDROOT
BRANCH   2   4
HETATM    4  O   UNL     1     -10.118   9.025  70.075  1.00  0.00    -0.181 OA 
BRANCH   4   5
HETATM    5  C   UNL     1     -11.150   9.858  69.729  1.00  0.00    -0.254 C  
HETATM    6  O   UNL     1     -12.169  10.002  70.393  1.00  0.00    -0.246 OA 
HETATM    7  C   UNL     1     -10.824  10.585  68.399  1.00  0.00    -0.240 C  
HETATM    8  C   UNL     1      -9.543  11.401  68.681  1.00  0.00    -0.179 C  
HETATM    9  C   UNL     1     -10.645   9.500  67.329  1.00  0.00    -0.317 C  
HETATM   10  O   UNL     1     -11.989  11.375  68.067  1.00  0.00    -0.613 OA 
BRANCH  10  11
HETATM   11  C   UNL     1     -11.882  12.521  67.337  1.00  0.00    -0.312 A  
HETATM   12  C   UNL     1     -11.766  12.587  65.952  1.00  0.00    -0.480 A  
HETATM   13  C   UNL     1     -11.456  13.792  65.326  1.00  0.00    -0.320 A  
HETATM   14  C   UNL     1     -11.326  14.960  66.080  1.00  0.00    -0.307 A  
HETATM   15  C   UNL     1     -11.631  14.934  67.444  1.00  0.00    -0.347 A  
HETATM   16  C   UNL     1     -11.894  13.709  68.070  1.00  0.00    -0.397 A  
BRANCH  14  17
HETATM   17  C   UNL     1     -10.847  16.179  65.385  1.00  0.00    -0.307 C  
HETATM   18  O   UNL     1     -11.153  16.344  64.206  1.00  0.00    -0.845 OA 
BRANCH  17  19
HETATM   19  C   UNL     1      -9.947  17.168  66.040  1.00  0.00    -0.270 A  
HETATM   20  C   UNL     1      -8.640  16.765  66.343  1.00  0.00    -0.338 A  
HETATM   21  C   UNL     1      -7.769  17.628  67.011  1.00  0.00    -0.234 A  
HETATM   22  C   UNL     1      -8.204  18.898  67.383  1.00  0.00    -0.270 A  
HETATM   23  C   UNL     1      -9.502  19.311  67.092  1.00  0.00    -0.388 A  
HETATM   24 CL   UNL     1      -7.142  19.953  68.229  1.00  0.00    -0.330 Cl 
HETATM   25  C   UNL     1     -10.380  18.443  66.433  1.00  0.00    -0.430 A  
ENDBRANCH  17  19
ENDBRANCH  14  17
ENDBRANCH  10  11
ENDBRANCH   4   5
ENDBRANCH   2   4
TORSDOF 5
ENDMDL
MODEL        4
REMARK 921   NORMALIZED FREE ENERGY PREDICTED BY IDOCK:   -6.29 KCAL/MOL
REMARK 922        TOTAL FREE ENERGY PREDICTED BY IDOCK:   -9.18 KCAL/MOL
REMARK 923 INTER-LIGAND FREE ENERGY PREDICTED BY IDOCK:   -8.13 KCAL/MOL
REMARK 924 INTRA-LIGAND FREE ENERGY PREDICTED BY IDOCK:   -1.05 KCAL/MOL
REMARK 927      BINDING AFFINITY PREDICTED BY RF-SCORE:    0.00 PKD
ROOT
HETATM    1  C   UNL     1     -10.747  19.632  67.068  1.00  0.00    -0.575 C  
HETATM    2  C   UNL     1      -9.574  19.139  66.233  1.00  0.00    -0.348 C  
HETATM    3  C   UNL     1      -8.317  19.939  66.552  1.00  0.00    -0.372 C  
ENDROOT
BRANCH   2   4
HETATM    4  O   UNL     1      -9.303  17.765  66.571  1.00  0.00    -0.271 OA 
BRANCH   4   5
HETATM    5  C   UNL     1     -10.166  16.820  66.077  1.00  0.00    -0.346 C  
HETATM    6  O   UNL     1     -10.684  16.875  64.969  1.00  0.00    -0.700 OA 
HETATM    7  C   UNL     1     -10.366  15.688  67.119  1.00  0.00    -0.285 C  
HETATM    8  C   UNL     1      -8.964  15.078  67.335  1.00  0.00    -0.196 C  
HETATM    9  C   UNL     1     -10.961  16.337  68.375  1.00  0.00    -0.351 C  
HETATM   10  O   UNL     1     -11.344  14.784  66.556  1.00  0.00    -0.347 OA 
BRANCH  10  11
HETATM   11  C   UNL     1     -11.353  13.460  66.883  1.00  0.00    -0.323 A  
HETATM   12  C   UNL     1     -11.818  12.928  68.081  1.00  0.00    -0.380 A  
HETATM   13  C   UNL     1     -11.592  11.590  68.394  1.00  0.00    -0.375 A  
HETATM   14  C   UNL     1     -10.954  10.753  67.475  1.00  0.00    -0.372 A  
HETATM   15  C   UNL     1     -10.660  11.236  66.197  1.00  0.00    -0.312 A  
HETATM   16  C   UNL     1     -10.848  12.594  65.911  1.00  0.00    -0.300 A  
BRANCH  14  17
HETATM   17  C   UNL     1     -10.605   9.383  67.919  1.00  0.00    -0.237 C  
HETATM   18  O   UNL     1     -10.596   8.477  67.088  1.00  0.00    -0.303 OA 
BRANCH  17  19
HETATM   19  C   UNL     1     -10.340   9.051  69.347  1.00  0.00    -0.217 A  
HETATM   20  C   UNL     1      -9.079   9.368  69.870  1.00  0.00    -0.221 A  
HETATM   21  C   UNL     1      -8.751   9.027  71.184  1.00  0.00    -0.266 A  
HETATM   22  C   UNL     1      -9.682   8.362  71.979  1.00  0.00    -0.283 A  
HETATM   23  C   UNL     1     -10.937   8.037  71.470  1.00  0.00    -0.279 A  
HETATM   24 CL   UNL     1      -9.271   7.917  73.588  1.00  0.00    -0.340 Cl 
HETATM   25  C   UNL     1     -11.263   8.367  70.150  1.00  0.00    -0.136 A  
ENDBRANCH  17  19
ENDBRANCH  14  17
ENDBRANCH  10  11
ENDBRANCH   4   5
ENDBRANCH   2   4
TORSDOF 5
ENDMDL
MODEL        5
REMARK 921   NORMALIZED FREE ENERGY PREDICTED BY IDOCK:   -6.16 KCAL/MOL
REMARK 922        TOTAL FREE ENERGY PREDICTED BY IDOCK:   -9.02 KCAL/MOL
REMARK 923 INTER-LIGAND FREE ENERGY PREDICTED BY IDOCK:   -8.13 KCAL/MOL
REMARK 924 INTRA-LIGAND FREE ENERGY PREDICTED BY IDOCK:   -0.89 KCAL/MOL
REMARK 927      BINDING AFFINITY PREDICTED BY RF-SCORE:    0.00 PKD
ROOT
HETATM    1  C   UNL     1     -10.749  19.096  67.206  1.00  0.00    -0.585 C  
HETATM    2  C   UNL     1      -9.832  18.114  66.491  1.00  0.00    -0.362 C  
HETATM    3  C   UNL     1      -8.464  18.738  66.249  1.00  0.00    -0.256 C  
ENDROOT
BRANCH   2   4
HETATM    4  O   UNL     1      -9.633  16.962  67.333  1.00  0.00    -0.236 OA 
BRANCH   4   5
HETATM    5  C   UNL     1     -10.572  15.966  67.259  1.00  0.00    -0.314 C  
HETATM    6  O   UNL     1     -11.160  15.651  66.232  1.00  0.00    -0.258 OA 
HETATM    7  C   UNL     1     -10.758  15.306  68.651  1.00  0.00    -0.245 C  
HETATM    8  C   UNL     1      -9.376  14.719  69.014  1.00  0.00    -0.160 C  
HETATM    9  C   UNL     1     -11.235  16.407  69.607  1.00  0.00    -0.257 C  
HETATM   10  O   UNL     1     -11.815  14.330  68.502  1.00  0.00    -0.329 OA 
BRANCH  10  11
HETATM   11  C   UNL     1     -11.868  13.220  69.291  1.00  0.00    -0.331 A  
HETATM   12  C   UNL     1     -11.448  11.947  68.922  1.00  0.00    -0.358 A  
HETATM   13  C   UNL     1     -11.736  10.847  69.727  1.00  0.00    -0.413 A  
HETATM   14  C   UNL     1     -12.391  11.023  70.947  1.00  0.00    -0.503 A  
HETATM   15  C   UNL     1     -12.643  12.318  71.409  1.00  0.00    -0.303 A  
HETATM   16  C   UNL     1     -12.392  13.412  70.572  1.00  0.00    -0.401 A  
BRANCH  14  17
HETATM   17  C   UNL     1     -12.807   9.808  71.687  1.00  0.00    -0.421 C  
HETATM   18  O   UNL     1     -13.855   9.837  72.329  1.00  0.00    -0.338 OA 
BRANCH  17  19
HETATM   19  C   UNL     1     -11.963   8.582  71.745  1.00  0.00    -0.393 A  
HETATM   20  C   UNL     1     -10.691   8.689  72.323  1.00  0.00    -0.383 A  
HETATM   21  C   UNL     1      -9.830   7.589  72.351  1.00  0.00    -0.219 A  
HETATM   22  C   UNL     1     -10.238   6.378  71.796  1.00  0.00    -0.197 A  
HETATM   23  C   UNL     1     -11.498   6.259  71.214  1.00  0.00    -0.352 A  
HETATM   24 CL   UNL     1      -9.170   5.030  71.805  1.00  0.00    -0.163 Cl 
HETATM   25  C   UNL     1     -12.356   7.363  71.175  1.00  0.00    -0.349 A  
ENDBRANCH  17  19
ENDBRANCH  14  17
ENDBRANCH  10  11
ENDBRANCH   4   5
ENDBRANCH   2   4
TORSDOF 5
ENDMDL
MODEL        6
REMARK 921   NORMALIZED FREE ENERGY PREDICTED BY IDOCK:   -6.13 KCAL/MOL
REMARK 922        TOTAL FREE ENERGY PREDICTED BY IDOCK:   -8.97 KCAL/MOL
REMARK 923 INTER-LIGAND FREE ENERGY PREDICTED BY IDOCK:   -8.84 KCAL/MOL
REMARK 924 INTRA-LIGAND FREE ENERGY PREDICTED BY IDOCK:   -0.13 KCAL/MOL
REMARK 927      BINDING AFFINITY PREDICTED BY RF-SCORE:    0.00 PKD
ROOT
HETATM    1  C   UNL     1      -8.642  20.732  67.105  1.00  0.00    -0.213 C  
HETATM    2  C   UNL     1      -8.391  19.678  66.037  1.00  0.00    -0.280 C  
HETATM    3  C   UNL     1      -7.031  19.891  65.383  1.00  0.00    -0.323 C  
ENDROOT
BRANCH   2   4
HETATM    4  O   UNL     1      -8.368  18.379  66.658  1.00  0.00    -0.249 OA 
BRANCH   4   5
HETATM    5  C   UNL     1      -9.542  17.671  66.668  1.00  0.00    -0.295 C  
HETATM    6  O   UNL     1     -10.252  17.505  65.685  1.00  0.00    -0.595 OA 
HETATM    7  C   UNL     1      -9.815  17.115  68.090  1.00  0.00    -0.281 C  
HETATM    8  C   UNL     1      -8.622  16.185  68.403  1.00  0.00    -0.189 C  
HETATM    9  C   UNL     1      -9.922  18.323  69.030  1.00  0.00    -0.293 C  
HETATM   10  O   UNL     1     -11.102  16.458  68.032  1.00  0.00    -0.348 OA 
BRANCH  10  11
HETATM   11  C   UNL     1     -11.403  15.419  68.862  1.00  0.00    -0.314 A  
HETATM   12  C   UNL     1     -11.602  14.101  68.466  1.00  0.00    -0.351 A  
HETATM   13  C   UNL     1     -12.107  13.163  69.364  1.00  0.00    -0.285 A  
HETATM   14  C   UNL     1     -12.354  13.523  70.690  1.00  0.00    -0.432 A  
HETATM   15  C   UNL     1     -11.975  14.792  71.138  1.00  0.00    -0.392 A  
HETATM   16  C   UNL     1     -11.514  15.740  70.217  1.00  0.00    -0.369 A  
BRANCH  14  17
HETATM   17  C   UNL     1     -13.031  12.531  71.559  1.00  0.00    -0.280 C  
HETATM   18  O   UNL     1     -13.777  12.936  72.448  1.00  0.00    -0.565 OA 
BRANCH  17  19
HETATM   19  C   UNL     1     -12.780  11.067  71.443  1.00  0.00    -0.534 A  
HETATM   20  C   UNL     1     -13.648  10.198  72.117  1.00  0.00    -0.295 A  
HETATM   21  C   UNL     1     -13.428   8.819  72.095  1.00  0.00    -0.469 A  
HETATM   22  C   UNL     1     -12.335   8.304  71.402  1.00  0.00    -0.299 A  
HETATM   23  C   UNL     1     -11.461   9.157  70.732  1.00  0.00    -0.337 A  
HETATM   24 CL   UNL     1     -12.047   6.609  71.396  1.00  0.00    -0.402 Cl 
HETATM   25  C   UNL     1     -11.674  10.539  70.762  1.00  0.00    -0.454 A  
ENDBRANCH  17  19
ENDBRANCH  14  17
ENDBRANCH  10  11
ENDBRANCH   4   5
ENDBRANCH   2   4
TORSDOF 5
ENDMDL
MODEL        7
REMARK 921   NORMALIZED FREE ENERGY PREDICTED BY IDOCK:   -6.08 KCAL/MOL
REMARK 922        TOTAL FREE ENERGY PREDICTED BY IDOCK:   -8.91 KCAL/MOL
REMARK 923 INTER-LIGAND FREE ENERGY PREDICTED BY IDOCK:   -7.83 KCAL/MOL
REMARK 924 INTRA-LIGAND FREE ENERGY PREDICTED BY IDOCK:   -1.08 KCAL/MOL
REMARK 927      BINDING AFFINITY PREDICTED BY RF-SCORE:    0.00 PKD
ROOT
HETATM    1  C   UNL     1      -8.687   6.636  70.201  1.00  0.00    -0.141 C  
HETATM    2  C   UNL     1      -8.905   8.142  70.203  1.00  0.00    -0.145 C  
HETATM    3  C   UNL     1      -7.667   8.861  70.725  1.00  0.00    -0.126 C  
ENDROOT
BRANCH   2   4
HETATM    4  O   UNL     1      -9.118   8.587  68.850  1.00  0.00    -0.145 OA 
BRANCH   4   5
HETATM    5  C   UNL     1     -10.252   9.318  68.605  1.00  0.00    -0.199 C  
HETATM    6  O   UNL     1     -11.253   9.289  69.310  1.00  0.00    -0.078 OA 
HETATM    7  C   UNL     1     -10.065  10.178  67.329  1.00  0.00    -0.206 C  
HETATM    8  C   UNL     1      -8.876  11.115  67.636  1.00  0.00    -0.136 C  
HETATM    9  C   UNL     1      -9.806   9.207  66.169  1.00  0.00    -0.363 C  
HETATM   10  O   UNL     1     -11.326  10.849  67.099  1.00  0.00    -0.394 OA 
BRANCH  10  11
HETATM   11  C   UNL     1     -11.380  12.052  66.461  1.00  0.00    -0.354 A  
HETATM   12  C   UNL     1     -10.930  12.301  65.169  1.00  0.00    -0.344 A  
HETATM   13  C   UNL     1     -10.844  13.607  64.690  1.00  0.00    -0.416 A  
HETATM   14  C   UNL     1     -11.274  14.673  65.483  1.00  0.00    -0.343 A  
HETATM   15  C   UNL     1     -11.903  14.411  66.703  1.00  0.00    -0.417 A  
HETATM   16  C   UNL     1     -11.941  13.101  67.194  1.00  0.00    -0.397 A  
BRANCH  14  17
HETATM   17  C   UNL     1     -11.019  16.046  64.986  1.00  0.00    -0.380 C  
HETATM   18  O   UNL     1     -11.506  16.385  63.909  1.00  0.00    -1.063 OA 
BRANCH  17  19
HETATM   19  C   UNL     1     -10.131  17.002  65.705  1.00  0.00    -0.219 A  
HETATM   20  C   UNL     1      -8.882  16.538  66.138  1.00  0.00    -0.342 A  
HETATM   21  C   UNL     1      -8.032  17.369  66.870  1.00  0.00    -0.257 A  
HETATM   22  C   UNL     1      -8.430  18.668  67.177  1.00  0.00    -0.265 A  
HETATM   23  C   UNL     1      -9.671  19.142  66.757  1.00  0.00    -0.396 A  
HETATM   24 CL   UNL     1      -7.396  19.686  68.101  1.00  0.00    -0.328 Cl 
HETATM   25  C   UNL     1     -10.529  18.306  66.034  1.00  0.00    -0.380 A  
ENDBRANCH  17  19
ENDBRANCH  14  17
ENDBRANCH  10  11
ENDBRANCH   4   5
ENDBRANCH   2   4
TORSDOF 5
ENDMDL
MODEL        8
REMARK 921   NORMALIZED FREE ENERGY PREDICTED BY IDOCK:   -6.02 KCAL/MOL
REMARK 922        TOTAL FREE ENERGY PREDICTED BY IDOCK:   -8.83 KCAL/MOL
REMARK 923 INTER-LIGAND FREE ENERGY PREDICTED BY IDOCK:   -7.96 KCAL/MOL
REMARK 924 INTRA-LIGAND FREE ENERGY PREDICTED BY IDOCK:   -0.87 KCAL/MOL
REMARK 927      BINDING AFFINITY PREDICTED BY RF-SCORE:    0.00 PKD
ROOT
HETATM    1  C   UNL     1     -11.399  15.822  64.459  1.00  0.00    -0.324 C  
HETATM    2  C   UNL     1     -10.600  14.946  65.412  1.00  0.00    -0.373 C  
HETATM    3  C   UNL     1      -9.325  15.655  65.851  1.00  0.00    -0.357 C  
ENDROOT
BRANCH   2   4
HETATM    4  O   UNL     1     -11.384  14.706  66.597  1.00  0.00    -0.342 OA 
BRANCH   4   5
HETATM    5  C   UNL     1     -11.866  13.435  66.780  1.00  0.00    -0.403 C  
HETATM    6  O   UNL     1     -12.404  12.773  65.903  1.00  0.00    -0.551 OA 
HETATM    7  C   UNL     1     -11.612  12.976  68.239  1.00  0.00    -0.340 C  
HETATM    8  C   UNL     1     -10.078  13.002  68.417  1.00  0.00    -0.225 C  
HETATM    9  C   UNL     1     -12.359  13.957  69.152  1.00  0.00    -0.159 C  
HETATM   10  O   UNL     1     -12.218  11.669  68.367  1.00  0.00    -0.498 OA 
BRANCH  10  11
HETATM   11  C   UNL     1     -11.741  10.753  69.257  1.00  0.00    -0.303 A  
HETATM   12  C   UNL     1     -12.168  10.607  70.573  1.00  0.00    -0.449 A  
HETATM   13  C   UNL     1     -11.473   9.782  71.454  1.00  0.00    -0.435 A  
HETATM   14  C   UNL     1     -10.379   9.040  71.003  1.00  0.00    -0.348 A  
HETATM   15  C   UNL     1     -10.066   9.037  69.641  1.00  0.00    -0.202 A  
HETATM   16  C   UNL     1     -10.741   9.906  68.775  1.00  0.00    -0.247 A  
BRANCH  14  17
HETATM   17  C   UNL     1      -9.586   8.300  72.014  1.00  0.00    -0.248 C  
HETATM   18  O   UNL     1      -8.603   8.847  72.510  1.00  0.00    -0.396 OA 
BRANCH  17  19
HETATM   19  C   UNL     1      -9.893   6.892  72.393  1.00  0.00    -0.172 A  
HETATM   20  C   UNL     1      -9.702   5.897  71.424  1.00  0.00    -0.196 A  
HETATM   21  C   UNL     1     -10.030   4.568  71.701  1.00  0.00    -0.266 A  
HETATM   22  C   UNL     1     -10.554   4.229  72.946  1.00  0.00    -0.180 A  
HETATM   23  C   UNL     1     -10.754   5.209  73.916  1.00  0.00    -0.342 A  
HETATM   24 CL   UNL     1     -10.983   2.598  73.280  1.00  0.00    -0.276 Cl 
HETATM   25  C   UNL     1     -10.437   6.543  73.637  1.00  0.00    -0.330 A  
ENDBRANCH  17  19
ENDBRANCH  14  17
ENDBRANCH  10  11
ENDBRANCH   4   5
ENDBRANCH   2   4
TORSDOF 5
ENDMDL
MODEL        9
REMARK 921   NORMALIZED FREE ENERGY PREDICTED BY IDOCK:   -5.93 KCAL/MOL
REMARK 922        TOTAL FREE ENERGY PREDICTED BY IDOCK:   -8.72 KCAL/MOL
REMARK 923 INTER-LIGAND FREE ENERGY PREDICTED BY IDOCK:   -8.53 KCAL/MOL
REMARK 924 INTRA-LIGAND FREE ENERGY PREDICTED BY IDOCK:   -0.19 KCAL/MOL
REMARK 927      BINDING AFFINITY PREDICTED BY RF-SCORE:    0.00 PKD
ROOT
HETATM    1  C   UNL     1      -7.532  19.147  65.936  1.00  0.00    -0.263 C  
HETATM    2  C   UNL     1      -8.851  18.633  66.492  1.00  0.00    -0.304 C  
HETATM    3  C   UNL     1      -9.965  19.645  66.252  1.00  0.00    -0.563 C  
ENDROOT
BRANCH   2   4
HETATM    4  O   UNL     1      -9.214  17.425  65.796  1.00  0.00    -0.517 OA 
BRANCH   4   5
HETATM    5  C   UNL     1      -8.973  16.238  66.438  1.00  0.00    -0.308 C  
HETATM    6  O   UNL     1      -7.854  15.814  66.699  1.00  0.00    -0.234 OA 
HETATM    7  C   UNL     1     -10.313  15.539  66.786  1.00  0.00    -0.288 C  
HETATM    8  C   UNL     1     -11.055  16.518  67.723  1.00  0.00    -0.179 C  
HETATM    9  C   UNL     1     -11.039  15.280  65.460  1.00  0.00    -0.330 C  
HETATM   10  O   UNL     1      -9.969  14.268  67.382  1.00  0.00    -0.238 OA 
BRANCH  10  11
HETATM   11  C   UNL     1     -10.793  13.664  68.285  1.00  0.00    -0.251 A  
HETATM   12  C   UNL     1     -11.261  14.240  69.461  1.00  0.00    -0.286 A  
HETATM   13  C   UNL     1     -11.927  13.467  70.409  1.00  0.00    -0.367 A  
HETATM   14  C   UNL     1     -12.190  12.119  70.156  1.00  0.00    -0.308 A  
HETATM   15  C   UNL     1     -11.891  11.587  68.899  1.00  0.00    -0.406 A  
HETATM   16  C   UNL     1     -11.180  12.359  67.972  1.00  0.00    -0.317 A  
BRANCH  14  17
HETATM   17  C   UNL     1     -12.763  11.311  71.258  1.00  0.00    -0.405 C  
HETATM   18  O   UNL     1     -13.485  11.866  72.085  1.00  0.00    -0.458 OA 
BRANCH  17  19
HETATM   19  C   UNL     1     -12.434   9.870  71.444  1.00  0.00    -0.495 A  
HETATM   20  C   UNL     1     -13.497   8.961  71.527  1.00  0.00    -0.381 A  
HETATM   21  C   UNL     1     -13.254   7.606  71.761  1.00  0.00    -0.360 A  
HETATM   22  C   UNL     1     -11.945   7.155  71.919  1.00  0.00    -0.307 A  
HETATM   23  C   UNL     1     -10.879   8.048  71.844  1.00  0.00    -0.316 A  
HETATM   24 CL   UNL     1     -11.645   5.491  72.234  1.00  0.00    -0.237 Cl 
HETATM   25  C   UNL     1     -11.122   9.408  71.621  1.00  0.00    -0.409 A  
ENDBRANCH  17  19
ENDBRANCH  14  17
ENDBRANCH  10  11
ENDBRANCH   4   5
ENDBRANCH   2   4
TORSDOF 5
ENDMDL
MODEL       10
REMARK 921   NORMALIZED FREE ENERGY PREDICTED BY IDOCK:   -5.90 KCAL/MOL
REMARK 922        TOTAL FREE ENERGY PREDICTED BY IDOCK:   -8.68 KCAL/MOL
REMARK 923 INTER-LIGAND FREE ENERGY PREDICTED BY IDOCK:   -7.76 KCAL/MOL
REMARK 924 INTRA-LIGAND FREE ENERGY PREDICTED BY IDOCK:   -0.92 KCAL/MOL
REMARK 927      BINDING AFFINITY PREDICTED BY RF-SCORE:    0.00 PKD
ROOT
HETATM    1  C   UNL     1     -11.218   8.053  72.305  1.00  0.00    -0.402 C  
HETATM    2  C   UNL     1     -10.729   7.862  70.877  1.00  0.00    -0.221 C  
HETATM    3  C   UNL     1     -11.294   6.577  70.285  1.00  0.00    -0.456 C  
ENDROOT
BRANCH   2   4
HETATM    4  O   UNL     1     -11.210   8.953  70.067  1.00  0.00    -0.213 OA 
BRANCH   4   5
HETATM    5  C   UNL     1     -10.330   9.971  69.807  1.00  0.00    -0.255 C  
HETATM    6  O   UNL     1      -9.119   9.890  69.967  1.00  0.00    -0.225 OA 
HETATM    7  C   UNL     1     -11.095  11.212  69.276  1.00  0.00    -0.259 C  
HETATM    8  C   UNL     1     -11.780  10.745  67.973  1.00  0.00    -0.127 C  
HETATM    9  C   UNL     1     -12.077  11.635  70.376  1.00  0.00    -0.462 C  
HETATM   10  O   UNL     1     -10.110  12.258  69.107  1.00  0.00     0.056 OA 
BRANCH  10  11
HETATM   11  C   UNL     1     -10.277  13.241  68.177  1.00  0.00    -0.243 A  
HETATM   12  C   UNL     1      -9.794  13.209  66.873  1.00  0.00    -0.249 A  
HETATM   13  C   UNL     1      -9.842  14.349  66.074  1.00  0.00    -0.342 A  
HETATM   14  C   UNL     1     -10.437  15.517  66.555  1.00  0.00    -0.301 A  
HETATM   15  C   UNL     1     -11.092  15.495  67.789  1.00  0.00    -0.315 A  
HETATM   16  C   UNL     1     -10.997  14.360  68.602  1.00  0.00    -0.264 A  
BRANCH  14  17
HETATM   17  C   UNL     1     -10.324  16.739  65.724  1.00  0.00    -0.305 C  
HETATM   18  O   UNL     1     -10.922  16.781  64.650  1.00  0.00    -0.839 OA 
BRANCH  17  19
HETATM   19  C   UNL     1      -9.453  17.885  66.106  1.00  0.00    -0.169 A  
HETATM   20  C   UNL     1      -8.076  17.651  66.223  1.00  0.00    -0.281 A  
HETATM   21  C   UNL     1      -7.216  18.671  66.637  1.00  0.00    -0.242 A  
HETATM   22  C   UNL     1      -7.731  19.929  66.939  1.00  0.00    -0.286 A  
HETATM   23  C   UNL     1      -9.098  20.175  66.831  1.00  0.00    -0.469 A  
HETATM   24 CL   UNL     1      -6.679  21.179  67.474  1.00  0.00    -0.431 Cl 
HETATM   25  C   UNL     1      -9.962  19.151  66.428  1.00  0.00    -0.458 A  
ENDBRANCH  17  19
ENDBRANCH  14  17
ENDBRANCH  10  11
ENDBRANCH   4   5
ENDBRANCH   2   4
TORSDOF 5
ENDMDL
MODEL       11
REMARK 921   NORMALIZED FREE ENERGY PREDICTED BY IDOCK:   -5.86 KCAL/MOL
REMARK 922        TOTAL FREE ENERGY PREDICTED BY IDOCK:   -8.63 KCAL/MOL
REMARK 923 INTER-LIGAND FREE ENERGY PREDICTED BY IDOCK:   -8.01 KCAL/MOL
REMARK 924 INTRA-LIGAND FREE ENERGY PREDICTED BY IDOCK:   -0.62 KCAL/MOL
REMARK 927      BINDING AFFINITY PREDICTED BY RF-SCORE:    0.00 PKD
ROOT
HETATM    1  C   UNL     1     -10.519   4.576  74.480  1.00  0.00    -0.298 C  
HETATM    2  C   UNL     1     -10.016   5.466  73.353  1.00  0.00    -0.173 C  
HETATM    3  C   UNL     1      -9.962   4.691  72.042  1.00  0.00    -0.251 C  
ENDROOT
BRANCH   2   4
HETATM    4  O   UNL     1     -10.941   6.555  73.168  1.00  0.00    -0.258 OA 
BRANCH   4   5
HETATM    5  C   UNL     1     -10.427   7.737  72.700  1.00  0.00    -0.302 C  
HETATM    6  O   UNL     1      -9.319   8.166  72.991  1.00  0.00    -0.251 OA 
HETATM    7  C   UNL     1     -11.447   8.421  71.753  1.00  0.00    -0.301 C  
HETATM    8  C   UNL     1     -11.658   7.427  70.590  1.00  0.00    -0.295 C  
HETATM    9  C   UNL     1     -12.713   8.689  72.577  1.00  0.00    -0.357 C  
HETATM   10  O   UNL     1     -10.864   9.689  71.372  1.00  0.00    -0.340 OA 
BRANCH  10  11
HETATM   11  C   UNL     1     -11.167  10.277  70.180  1.00  0.00    -0.318 A  
HETATM   12  C   UNL     1     -10.840   9.772  68.926  1.00  0.00    -0.220 A  
HETATM   13  C   UNL     1     -11.014  10.551  67.784  1.00  0.00    -0.372 A  
HETATM   14  C   UNL     1     -11.582  11.823  67.884  1.00  0.00    -0.377 A  
HETATM   15  C   UNL     1     -12.087  12.255  69.113  1.00  0.00    -0.214 A  
HETATM   16  C   UNL     1     -11.864  11.485  70.261  1.00  0.00    -0.431 A  
BRANCH  14  17
HETATM   17  C   UNL     1     -11.602  12.665  66.663  1.00  0.00    -0.381 C  
HETATM   18  O   UNL     1     -12.352  12.350  65.741  1.00  0.00    -0.644 OA 
BRANCH  17  19
HETATM   19  C   UNL     1     -10.694  13.831  66.484  1.00  0.00    -0.284 A  
HETATM   20  C   UNL     1      -9.445  13.792  67.119  1.00  0.00    -0.244 A  
HETATM   21  C   UNL     1      -8.574  14.881  67.038  1.00  0.00    -0.265 A  
HETATM   22  C   UNL     1      -8.952  16.017  66.324  1.00  0.00    -0.345 A  
HETATM   23  C   UNL     1     -10.192  16.071  65.692  1.00  0.00    -0.412 A  
HETATM   24 CL   UNL     1      -7.893  17.369  66.245  1.00  0.00    -0.329 Cl 
HETATM   25  C   UNL     1     -11.070  14.985  65.783  1.00  0.00    -0.346 A  
ENDBRANCH  17  19
ENDBRANCH  14  17
ENDBRANCH  10  11
ENDBRANCH   4   5
ENDBRANCH   2   4
TORSDOF 5
ENDMDL
MODEL       12
REMARK 921   NORMALIZED FREE ENERGY PREDICTED BY IDOCK:   -5.86 KCAL/MOL
REMARK 922        TOTAL FREE ENERGY PREDICTED BY IDOCK:   -8.62 KCAL/MOL
REMARK 923 INTER-LIGAND FREE ENERGY PREDICTED BY IDOCK:   -7.86 KCAL/MOL
REMARK 924 INTRA-LIGAND FREE ENERGY PREDICTED BY IDOCK:   -0.76 KCAL/MOL
REMARK 927      BINDING AFFINITY PREDICTED BY RF-SCORE:    0.00 PKD
ROOT
HETATM    1  C   UNL     1     -10.042  19.534  66.623  1.00  0.00    -0.523 C  
HETATM    2  C   UNL     1      -8.818  18.775  66.133  1.00  0.00    -0.132 C  
HETATM    3  C   UNL     1      -7.540  19.501  66.536  1.00  0.00    -0.279 C  
ENDROOT
BRANCH   2   4
HETATM    4  O   UNL     1      -8.789  17.478  66.760  1.00  0.00    -0.239 OA 
BRANCH   4   5
HETATM    5  C   UNL     1      -9.863  16.656  66.541  1.00  0.00    -0.281 C  
HETATM    6  O   UNL     1     -10.392  16.493  65.449  1.00  0.00    -0.558 OA 
HETATM    7  C   UNL     1     -10.285  15.968  67.867  1.00  0.00    -0.258 C  
HETATM    8  C   UNL     1      -9.056  15.144  68.310  1.00  0.00    -0.183 C  
HETATM    9  C   UNL     1     -10.669  17.084  68.846  1.00  0.00    -0.300 C  
HETATM   10  O   UNL     1     -11.465  15.189  67.565  1.00  0.00    -0.337 OA 
BRANCH  10  11
HETATM   11  C   UNL     1     -11.770  14.065  68.274  1.00  0.00    -0.357 A  
HETATM   12  C   UNL     1     -12.159  14.034  69.609  1.00  0.00    -0.408 A  
HETATM   13  C   UNL     1     -12.246  12.822  70.291  1.00  0.00    -0.351 A  
HETATM   14  C   UNL     1     -12.008  11.622  69.620  1.00  0.00    -0.390 A  
HETATM   15  C   UNL     1     -11.806  11.637  68.237  1.00  0.00    -0.335 A  
HETATM   16  C   UNL     1     -11.673  12.862  67.572  1.00  0.00    -0.422 A  
BRANCH  14  17
HETATM   17  C   UNL     1     -11.965  10.378  70.427  1.00  0.00    -0.320 C  
HETATM   18  O   UNL     1     -13.020   9.916  70.855  1.00  0.00    -0.335 OA 
BRANCH  17  19
HETATM   19  C   UNL     1     -10.685   9.715  70.801  1.00  0.00    -0.401 A  
HETATM   20  C   UNL     1     -10.687   8.871  71.920  1.00  0.00    -0.426 A  
HETATM   21  C   UNL     1      -9.504   8.269  72.355  1.00  0.00    -0.357 A  
HETATM   22  C   UNL     1      -8.313   8.512  71.675  1.00  0.00    -0.165 A  
HETATM   23  C   UNL     1      -8.296   9.352  70.564  1.00  0.00    -0.233 A  
HETATM   24 CL   UNL     1      -6.851   7.793  72.224  1.00  0.00    -0.058 Cl 
HETATM   25  C   UNL     1      -9.477   9.966  70.134  1.00  0.00    -0.214 A  
ENDBRANCH  17  19
ENDBRANCH  14  17
ENDBRANCH  10  11
ENDBRANCH   4   5
ENDBRANCH   2   4
TORSDOF 5
ENDMDL
MODEL       13
REMARK 921   NORMALIZED FREE ENERGY PREDICTED BY IDOCK:   -5.84 KCAL/MOL
REMARK 922        TOTAL FREE ENERGY PREDICTED BY IDOCK:   -8.60 KCAL/MOL
REMARK 923 INTER-LIGAND FREE ENERGY PREDICTED BY IDOCK:   -7.59 KCAL/MOL
REMARK 924 INTRA-LIGAND FREE ENERGY PREDICTED BY IDOCK:   -1.00 KCAL/MOL
REMARK 927      BINDING AFFINITY PREDICTED BY RF-SCORE:    0.00 PKD
ROOT
HETATM    1  C   UNL     1     -11.036   3.572  73.646  1.00  0.00    -0.329 C  
HETATM    2  C   UNL     1      -9.968   3.677  72.567  1.00  0.00    -0.161 C  
HETATM    3  C   UNL     1      -9.841   2.361  71.810  1.00  0.00    -0.228 C  
ENDROOT
BRANCH   2   4
HETATM    4  O   UNL     1     -10.363   4.682  71.613  1.00  0.00    -0.187 OA 
BRANCH   4   5
HETATM    5  C   UNL     1      -9.986   5.974  71.876  1.00  0.00    -0.169 C  
HETATM    6  O   UNL     1      -8.989   6.281  72.517  1.00  0.00    -0.138 OA 
HETATM    7  C   UNL     1     -10.994   6.963  71.234  1.00  0.00    -0.243 C  
HETATM    8  C   UNL     1     -10.935   6.682  69.717  1.00  0.00    -0.367 C  
HETATM    9  C   UNL     1     -12.363   6.677  71.865  1.00  0.00    -0.364 C  
HETATM   10  O   UNL     1     -10.570   8.289  71.626  1.00  0.00    -0.216 OA 
BRANCH  10  11
HETATM   11  C   UNL     1     -10.834   9.374  70.844  1.00  0.00    -0.322 A  
HETATM   12  C   UNL     1     -12.039  10.066  70.804  1.00  0.00    -0.418 A  
HETATM   13  C   UNL     1     -12.269  11.029  69.823  1.00  0.00    -0.388 A  
HETATM   14  C   UNL     1     -11.262  11.355  68.912  1.00  0.00    -0.310 A  
HETATM   15  C   UNL     1      -9.989  10.801  69.069  1.00  0.00    -0.214 A  
HETATM   16  C   UNL     1      -9.784   9.801  70.027  1.00  0.00    -0.292 A  
BRANCH  14  17
HETATM   17  C   UNL     1     -11.611  12.271  67.800  1.00  0.00    -0.351 C  
HETATM   18  O   UNL     1     -12.137  11.804  66.792  1.00  0.00    -0.547 OA 
BRANCH  17  19
HETATM   19  C   UNL     1     -11.276  13.722  67.828  1.00  0.00    -0.312 A  
HETATM   20  C   UNL     1     -11.803  14.496  68.872  1.00  0.00    -0.359 A  
HETATM   21  C   UNL     1     -11.574  15.873  68.918  1.00  0.00    -0.392 A  
HETATM   22  C   UNL     1     -10.820  16.483  67.918  1.00  0.00    -0.326 A  
HETATM   23  C   UNL     1     -10.294  15.727  66.872  1.00  0.00    -0.295 A  
HETATM   24 CL   UNL     1     -10.559  18.182  67.958  1.00  0.00    -0.391 Cl 
HETATM   25  C   UNL     1     -10.533  14.349  66.818  1.00  0.00    -0.273 A  
ENDBRANCH  17  19
ENDBRANCH  14  17
ENDBRANCH  10  11
ENDBRANCH   4   5
ENDBRANCH   2   4
TORSDOF 5
ENDMDL
MODEL       14
REMARK 921   NORMALIZED FREE ENERGY PREDICTED BY IDOCK:   -5.77 KCAL/MOL
REMARK 922        TOTAL FREE ENERGY PREDICTED BY IDOCK:   -8.51 KCAL/MOL
REMARK 923 INTER-LIGAND FREE ENERGY PREDICTED BY IDOCK:   -7.76 KCAL/MOL
REMARK 924 INTRA-LIGAND FREE ENERGY PREDICTED BY IDOCK:   -0.75 KCAL/MOL
REMARK 927      BINDING AFFINITY PREDICTED BY RF-SCORE:    0.00 PKD
ROOT
HETATM    1  C   UNL     1     -11.236   2.338  73.541  1.00  0.00    -0.313 C  
HETATM    2  C   UNL     1     -10.549   3.671  73.280  1.00  0.00    -0.188 C  
HETATM    3  C   UNL     1      -9.542   3.541  72.144  1.00  0.00    -0.207 C  
ENDROOT
BRANCH   2   4
HETATM    4  O   UNL     1     -11.537   4.635  72.868  1.00  0.00    -0.148 OA 
BRANCH   4   5
HETATM    5  C   UNL     1     -11.245   5.957  73.082  1.00  0.00    -0.174 C  
HETATM    6  O   UNL     1     -10.529   6.364  73.988  1.00  0.00    -0.306 OA 
HETATM    7  C   UNL     1     -11.941   6.835  72.010  1.00  0.00    -0.317 C  
HETATM    8  C   UNL     1     -11.361   6.367  70.657  1.00  0.00    -0.419 C  
HETATM    9  C   UNL     1     -13.451   6.601  72.151  1.00  0.00     0.092 C  
HETATM   10  O   UNL     1     -11.651   8.209  72.355  1.00  0.00    -0.350 OA 
BRANCH  10  11
HETATM   11  C   UNL     1     -11.598   9.182  71.401  1.00  0.00    -0.341 A  
HETATM   12  C   UNL     1     -10.494   9.475  70.609  1.00  0.00    -0.374 A  
HETATM   13  C   UNL     1     -10.480  10.619  69.813  1.00  0.00    -0.189 A  
HETATM   14  C   UNL     1     -11.604  11.445  69.753  1.00  0.00    -0.407 A  
HETATM   15  C   UNL     1     -12.780  11.050  70.397  1.00  0.00    -0.297 A  
HETATM   16  C   UNL     1     -12.768   9.926  71.231  1.00  0.00    -0.482 A  
BRANCH  14  17
HETATM   17  C   UNL     1     -11.480  12.724  69.014  1.00  0.00    -0.309 C  
HETATM   18  O   UNL     1     -11.311  13.761  69.651  1.00  0.00    -0.243 OA 
BRANCH  17  19
HETATM   19  C   UNL     1     -11.629  12.806  67.534  1.00  0.00    -0.412 A  
HETATM   20  C   UNL     1     -12.388  13.862  67.010  1.00  0.00    -0.287 A  
HETATM   21  C   UNL     1     -12.613  13.957  65.635  1.00  0.00    -0.553 A  
HETATM   22  C   UNL     1     -12.084  12.995  64.778  1.00  0.00    -0.415 A  
HETATM   23  C   UNL     1     -11.332  11.938  65.286  1.00  0.00    -0.333 A  
HETATM   24 CL   UNL     1     -12.383  13.095  63.088  1.00  0.00    -0.426 Cl 
HETATM   25  C   UNL     1     -11.115  11.834  66.664  1.00  0.00    -0.364 A  
ENDBRANCH  17  19
ENDBRANCH  14  17
ENDBRANCH  10  11
ENDBRANCH   4   5
ENDBRANCH   2   4
TORSDOF 5
ENDMDL
MODEL       15
REMARK 921   NORMALIZED FREE ENERGY PREDICTED BY IDOCK:   -5.73 KCAL/MOL
REMARK 922        TOTAL FREE ENERGY PREDICTED BY IDOCK:   -8.46 KCAL/MOL
REMARK 923 INTER-LIGAND FREE ENERGY PREDICTED BY IDOCK:   -7.81 KCAL/MOL
REMARK 924 INTRA-LIGAND FREE ENERGY PREDICTED BY IDOCK:   -0.64 KCAL/MOL
REMARK 927      BINDING AFFINITY PREDICTED BY RF-SCORE:    0.00 PKD
ROOT
HETATM    1  C   UNL     1     -10.847  19.628  67.096  1.00  0.00    -0.526 C  
HETATM    2  C   UNL     1      -9.859  18.883  66.210  1.00  0.00    -0.365 C  
HETATM    3  C   UNL     1      -8.550  19.656  66.100  1.00  0.00    -0.357 C  
ENDROOT
BRANCH   2   4
HETATM    4  O   UNL     1      -9.554  17.611  66.814  1.00  0.00    -0.273 OA 
BRANCH   4   5
HETATM    5  C   UNL     1     -10.054  16.493  66.198  1.00  0.00    -0.348 C  
HETATM    6  O   UNL     1     -10.333  16.432  65.007  1.00  0.00    -0.615 OA 
HETATM    7  C   UNL     1     -10.194  15.339  67.224  1.00  0.00    -0.248 C  
HETATM    8  C   UNL     1      -8.763  15.075  67.743  1.00  0.00    -0.167 C  
HETATM    9  C   UNL     1     -11.167  15.820  68.308  1.00  0.00    -0.356 C  
HETATM   10  O   UNL     1     -10.799  14.233  66.516  1.00  0.00    -0.297 OA 
BRANCH  10  11
HETATM   11  C   UNL     1     -10.567  12.942  66.889  1.00  0.00    -0.253 A  
HETATM   12  C   UNL     1      -9.455  12.187  66.533  1.00  0.00    -0.235 A  
HETATM   13  C   UNL     1      -9.417  10.819  66.796  1.00  0.00    -0.198 A  
HETATM   14  C   UNL     1     -10.469  10.208  67.481  1.00  0.00    -0.304 A  
HETATM   15  C   UNL     1     -11.495  10.997  68.008  1.00  0.00    -0.365 A  
HETATM   16  C   UNL     1     -11.547  12.361  67.697  1.00  0.00    -0.421 A  
BRANCH  14  17
HETATM   17  C   UNL     1     -10.447   8.730  67.599  1.00  0.00    -0.244 C  
HETATM   18  O   UNL     1     -10.380   8.057  66.572  1.00  0.00    -0.260 OA 
BRANCH  17  19
HETATM   19  C   UNL     1     -10.581   8.033  68.908  1.00  0.00    -0.160 A  
HETATM   20  C   UNL     1     -10.924   6.674  68.894  1.00  0.00    -0.325 A  
HETATM   21  C   UNL     1     -11.123   5.981  70.090  1.00  0.00    -0.432 A  
HETATM   22  C   UNL     1     -10.984   6.647  71.306  1.00  0.00    -0.253 A  
HETATM   23  C   UNL     1     -10.648   7.998  71.334  1.00  0.00    -0.258 A  
HETATM   24 CL   UNL     1     -11.255   5.803  72.780  1.00  0.00    -0.328 Cl 
HETATM   25  C   UNL     1     -10.460   8.696  70.137  1.00  0.00    -0.228 A  
ENDBRANCH  17  19
ENDBRANCH  14  17
ENDBRANCH  10  11
ENDBRANCH   4   5
ENDBRANCH   2   4
TORSDOF 5
ENDMDL
MODEL       16
REMARK 921   NORMALIZED FREE ENERGY PREDICTED BY IDOCK:   -5.72 KCAL/MOL
REMARK 922        TOTAL FREE ENERGY PREDICTED BY IDOCK:   -8.44 KCAL/MOL
REMARK 923 INTER-LIGAND FREE ENERGY PREDICTED BY IDOCK:   -7.59 KCAL/MOL
REMARK 924 INTRA-LIGAND FREE ENERGY PREDICTED BY IDOCK:   -0.85 KCAL/MOL
REMARK 927      BINDING AFFINITY PREDICTED BY RF-SCORE:    0.00 PKD
ROOT
HETATM    1  C   UNL     1     -10.580  19.390  67.774  1.00  0.00    -0.538 C  
HETATM    2  C   UNL     1      -9.913  18.722  66.581  1.00  0.00    -0.365 C  
HETATM    3  C   UNL     1      -8.623  19.445  66.213  1.00  0.00    -0.360 C  
ENDROOT
BRANCH   2   4
HETATM    4  O   UNL     1      -9.559  17.372  66.937  1.00  0.00    -0.258 OA 
BRANCH   4   5
HETATM    5  C   UNL     1     -10.269  16.362  66.339  1.00  0.00    -0.316 C  
HETATM    6  O   UNL     1     -10.576  16.348  65.154  1.00  0.00    -0.610 OA 
HETATM    7  C   UNL     1     -10.601  15.259  67.377  1.00  0.00    -0.282 C  
HETATM    8  C   UNL     1      -9.235  14.737  67.873  1.00  0.00    -0.191 C  
HETATM    9  C   UNL     1     -11.449  15.917  68.473  1.00  0.00    -0.377 C  
HETATM   10  O   UNL     1     -11.414  14.281  66.688  1.00  0.00    -0.336 OA 
BRANCH  10  11
HETATM   11  C   UNL     1     -11.418  12.971  67.067  1.00  0.00    -0.333 A  
HETATM   12  C   UNL     1     -11.952  12.477  68.252  1.00  0.00    -0.274 A  
HETATM   13  C   UNL     1     -11.720  11.157  68.635  1.00  0.00    -0.389 A  
HETATM   14  C   UNL     1     -11.005  10.300  67.797  1.00  0.00    -0.360 A  
HETATM   15  C   UNL     1     -10.633  10.739  66.523  1.00  0.00    -0.279 A  
HETATM   16  C   UNL     1     -10.829  12.079  66.169  1.00  0.00    -0.325 A  
BRANCH  14  17
HETATM   17  C   UNL     1     -10.658   8.957  68.320  1.00  0.00    -0.152 C  
HETATM   18  O   UNL     1     -10.707   8.765  69.533  1.00  0.00    -0.228 OA 
BRANCH  17  19
HETATM   19  C   UNL     1     -10.178   7.857  67.437  1.00  0.00    -0.320 A  
HETATM   20  C   UNL     1     -10.986   6.720  67.311  1.00  0.00    -0.433 A  
HETATM   21  C   UNL     1     -10.562   5.631  66.546  1.00  0.00    -0.320 A  
HETATM   22  C   UNL     1      -9.325   5.674  65.907  1.00  0.00    -0.103 A  
HETATM   23  C   UNL     1      -8.509   6.797  66.028  1.00  0.00    -0.143 A  
HETATM   24 CL   UNL     1      -8.788   4.325  64.986  1.00  0.00    -0.130 Cl 
HETATM   25  C   UNL     1      -8.928   7.884  66.804  1.00  0.00    -0.169 A  
ENDBRANCH  17  19
ENDBRANCH  14  17
ENDBRANCH  10  11
ENDBRANCH   4   5
ENDBRANCH   2   4
TORSDOF 5
ENDMDL
MODEL       17
REMARK 921   NORMALIZED FREE ENERGY PREDICTED BY IDOCK:   -5.72 KCAL/MOL
REMARK 922        TOTAL FREE ENERGY PREDICTED BY IDOCK:   -8.44 KCAL/MOL
REMARK 923 INTER-LIGAND FREE ENERGY PREDICTED BY IDOCK:   -7.78 KCAL/MOL
REMARK 924 INTRA-LIGAND FREE ENERGY PREDICTED BY IDOCK:   -0.66 KCAL/MOL
REMARK 927      BINDING AFFINITY PREDICTED BY RF-SCORE:    0.00 PKD
ROOT
HETATM    1  C   UNL     1     -10.097   4.692  72.035  1.00  0.00    -0.262 C  
HETATM    2  C   UNL     1     -10.759   5.810  72.826  1.00  0.00    -0.241 C  
HETATM    3  C   UNL     1     -10.351   5.743  74.293  1.00  0.00    -0.285 C  
ENDROOT
BRANCH   2   4
HETATM    4  O   UNL     1     -10.306   7.078  72.314  1.00  0.00    -0.189 OA 
BRANCH   4   5
HETATM    5  C   UNL     1     -11.267   7.999  71.988  1.00  0.00    -0.298 C  
HETATM    6  O   UNL     1     -12.263   8.220  72.665  1.00  0.00    -0.364 OA 
HETATM    7  C   UNL     1     -10.894   8.711  70.661  1.00  0.00    -0.229 C  
HETATM    8  C   UNL     1      -9.547   9.413  70.937  1.00  0.00    -0.301 C  
HETATM    9  C   UNL     1     -10.818   7.626  69.579  1.00  0.00    -0.171 C  
HETATM   10  O   UNL     1     -11.992   9.599  70.351  1.00  0.00    -0.216 OA 
BRANCH  10  11
HETATM   11  C   UNL     1     -11.797  10.740  69.631  1.00  0.00    -0.320 A  
HETATM   12  C   UNL     1     -11.929  12.035  70.119  1.00  0.00    -0.401 A  
HETATM   13  C   UNL     1     -11.909  13.123  69.249  1.00  0.00    -0.377 A  
HETATM   14  C   UNL     1     -11.687  12.926  67.885  1.00  0.00    -0.405 A  
HETATM   15  C   UNL     1     -11.363  11.648  67.420  1.00  0.00    -0.367 A  
HETATM   16  C   UNL     1     -11.433  10.556  68.294  1.00  0.00    -0.272 A  
BRANCH  14  17
HETATM   17  C   UNL     1     -11.827  14.098  66.988  1.00  0.00    -0.429 C  
HETATM   18  O   UNL     1     -12.695  14.075  66.117  1.00  0.00    -0.450 OA 
BRANCH  17  19
HETATM   19  C   UNL     1     -10.906  15.266  67.054  1.00  0.00    -0.321 A  
HETATM   20  C   UNL     1     -11.122  16.214  68.063  1.00  0.00    -0.317 A  
HETATM   21  C   UNL     1     -10.329  17.362  68.138  1.00  0.00    -0.366 A  
HETATM   22  C   UNL     1      -9.319  17.568  67.201  1.00  0.00    -0.250 A  
HETATM   23  C   UNL     1      -9.096  16.636  66.190  1.00  0.00    -0.318 A  
HETATM   24 CL   UNL     1      -8.359  18.992  67.276  1.00  0.00    -0.290 Cl 
HETATM   25  C   UNL     1      -9.897  15.492  66.106  1.00  0.00    -0.342 A  
ENDBRANCH  17  19
ENDBRANCH  14  17
ENDBRANCH  10  11
ENDBRANCH   4   5
ENDBRANCH   2   4
TORSDOF 5
ENDMDL
MODEL       18
REMARK 921   NORMALIZED FREE ENERGY PREDICTED BY IDOCK:   -5.71 KCAL/MOL
REMARK 922        TOTAL FREE ENERGY PREDICTED BY IDOCK:   -8.44 KCAL/MOL
REMARK 923 INTER-LIGAND FREE ENERGY PREDICTED BY IDOCK:   -7.70 KCAL/MOL
REMARK 924 INTRA-LIGAND FREE ENERGY PREDICTED BY IDOCK:   -0.74 KCAL/MOL
REMARK 927      BINDING AFFINITY PREDICTED BY RF-SCORE:    0.00 PKD
ROOT
HETATM    1  C   UNL     1     -11.875  15.426  64.333  1.00  0.00    -0.260 C  
HETATM    2  C   UNL     1     -12.083  14.015  64.864  1.00  0.00    -0.420 C  
HETATM    3  C   UNL     1     -11.929  12.993  63.745  1.00  0.00    -0.585 C  
ENDROOT
BRANCH   2   4
HETATM    4  O   UNL     1     -11.068  13.730  65.846  1.00  0.00    -0.286 OA 
BRANCH   4   5
HETATM    5  C   UNL     1     -11.474  13.621  67.150  1.00  0.00    -0.342 C  
HETATM    6  O   UNL     1     -12.262  14.387  67.690  1.00  0.00    -0.328 OA 
HETATM    7  C   UNL     1     -10.803  12.391  67.816  1.00  0.00    -0.225 C  
HETATM    8  C   UNL     1     -11.280  11.171  66.998  1.00  0.00    -0.291 C  
HETATM    9  C   UNL     1      -9.287  12.623  67.756  1.00  0.00    -0.198 C  
HETATM   10  O   UNL     1     -11.219  12.397  69.201  1.00  0.00    -0.245 OA 
BRANCH  10  11
HETATM   11  C   UNL     1     -11.306  11.241  69.918  1.00  0.00    -0.249 A  
HETATM   12  C   UNL     1     -10.406  10.183  69.854  1.00  0.00    -0.308 A  
HETATM   13  C   UNL     1     -10.699   8.969  70.471  1.00  0.00    -0.285 A  
HETATM   14  C   UNL     1     -11.870   8.827  71.217  1.00  0.00    -0.358 A  
HETATM   15  C   UNL     1     -12.680   9.944  71.442  1.00  0.00    -0.503 A  
HETATM   16  C   UNL     1     -12.401  11.144  70.779  1.00  0.00    -0.504 A  
BRANCH  14  17
HETATM   17  C   UNL     1     -12.204   7.474  71.723  1.00  0.00    -0.314 C  
HETATM   18  O   UNL     1     -13.373   7.095  71.668  1.00  0.00    -0.376 OA 
BRANCH  17  19
HETATM   19  C   UNL     1     -11.191   6.589  72.363  1.00  0.00    -0.310 A  
HETATM   20  C   UNL     1     -10.604   7.025  73.558  1.00  0.00    -0.405 A  
HETATM   21  C   UNL     1      -9.604   6.267  74.173  1.00  0.00    -0.217 A  
HETATM   22  C   UNL     1      -9.185   5.073  73.592  1.00  0.00    -0.122 A  
HETATM   23  C   UNL     1      -9.758   4.630  72.402  1.00  0.00    -0.207 A  
HETATM   24 CL   UNL     1      -7.936   4.152  74.333  1.00  0.00    -0.090 Cl 
HETATM   25  C   UNL     1     -10.751   5.393  71.778  1.00  0.00    -0.271 A  
ENDBRANCH  17  19
ENDBRANCH  14  17
ENDBRANCH  10  11
ENDBRANCH   4   5
ENDBRANCH   2   4
TORSDOF 5
ENDMDL
MODEL       19
REMARK 921   NORMALIZED FREE ENERGY PREDICTED BY IDOCK:   -5.70 KCAL/MOL
REMARK 922        TOTAL FREE ENERGY PREDICTED BY IDOCK:   -8.42 KCAL/MOL
REMARK 923 INTER-LIGAND FREE ENERGY PREDICTED BY IDOCK:   -7.72 KCAL/MOL
REMARK 924 INTRA-LIGAND FREE ENERGY PREDICTED BY IDOCK:   -0.70 KCAL/MOL
REMARK 927      BINDING AFFINITY PREDICTED BY RF-SCORE:    0.00 PKD
ROOT
HETATM    1  C   UNL     1     -10.196   6.484  74.122  1.00  0.00    -0.380 C  
HETATM    2  C   UNL     1     -10.801   6.125  72.772  1.00  0.00    -0.250 C  
HETATM    3  C   UNL     1     -11.842   5.023  72.927  1.00  0.00    -0.127 C  
ENDROOT
BRANCH   2   4
HETATM    4  O   UNL     1     -11.479   7.280  72.241  1.00  0.00    -0.261 OA 
BRANCH   4   5
HETATM    5  C   UNL     1     -11.287   7.559  70.912  1.00  0.00    -0.277 C  
HETATM    6  O   UNL     1     -11.515   6.769  70.005  1.00  0.00    -0.338 OA 
HETATM    7  C   UNL     1     -10.760   9.009  70.744  1.00  0.00    -0.241 C  
HETATM    8  C   UNL     1     -11.863   9.916  71.332  1.00  0.00    -0.476 C  
HETATM    9  C   UNL     1      -9.425   9.089  71.495  1.00  0.00    -0.316 C  
HETATM   10  O   UNL     1     -10.510   9.191  69.331  1.00  0.00    -0.211 OA 
BRANCH  10  11
HETATM   11  C   UNL     1     -10.590  10.423  68.753  1.00  0.00    -0.208 A  
HETATM   12  C   UNL     1     -11.767  11.081  68.415  1.00  0.00    -0.329 A  
HETATM   13  C   UNL     1     -11.732  12.240  67.643  1.00  0.00    -0.403 A  
HETATM   14  C   UNL     1     -10.507  12.789  67.259  1.00  0.00    -0.238 A  
HETATM   15  C   UNL     1      -9.323  12.239  67.757  1.00  0.00    -0.194 A  
HETATM   16  C   UNL     1      -9.369  11.048  68.491  1.00  0.00    -0.188 A  
BRANCH  14  17
HETATM   17  C   UNL     1     -10.531  13.931  66.314  1.00  0.00    -0.287 C  
HETATM   18  O   UNL     1     -10.463  13.702  65.108  1.00  0.00    -0.333 OA 
BRANCH  17  19
HETATM   19  C   UNL     1     -10.557  15.347  66.776  1.00  0.00    -0.309 A  
HETATM   20  C   UNL     1     -10.257  16.347  65.841  1.00  0.00    -0.379 A  
HETATM   21  C   UNL     1     -10.207  17.687  66.229  1.00  0.00    -0.362 A  
HETATM   22  C   UNL     1     -10.452  18.033  67.556  1.00  0.00    -0.396 A  
HETATM   23  C   UNL     1     -10.747  17.049  68.497  1.00  0.00    -0.352 A  
HETATM   24 CL   UNL     1     -10.364  19.680  68.043  1.00  0.00    -0.567 Cl 
HETATM   25  C   UNL     1     -10.786  15.705  68.112  1.00  0.00    -0.301 A  
ENDBRANCH  17  19
ENDBRANCH  14  17
ENDBRANCH  10  11
ENDBRANCH   4   5
ENDBRANCH   2   4
TORSDOF 5
ENDMDL
MODEL       20
REMARK 921   NORMALIZED FREE ENERGY PREDICTED BY IDOCK:   -5.65 KCAL/MOL
REMARK 922        TOTAL FREE ENERGY PREDICTED BY IDOCK:   -8.36 KCAL/MOL
REMARK 923 INTER-LIGAND FREE ENERGY PREDICTED BY IDOCK:   -7.65 KCAL/MOL
REMARK 924 INTRA-LIGAND FREE ENERGY PREDICTED BY IDOCK:   -0.71 KCAL/MOL
REMARK 927      BINDING AFFINITY PREDICTED BY RF-SCORE:    0.00 PKD
ROOT
HETATM    1  C   UNL     1     -11.460  15.709  64.340  1.00  0.00    -0.266 C  
HETATM    2  C   UNL     1     -11.884  14.366  64.915  1.00  0.00    -0.417 C  
HETATM    3  C   UNL     1     -11.954  13.311  63.818  1.00  0.00    -0.551 C  
ENDROOT
BRANCH   2   4
HETATM    4  O   UNL     1     -10.892  13.929  65.865  1.00  0.00    -0.283 OA 
BRANCH   4   5
HETATM    5  C   UNL     1     -11.285  13.828  67.175  1.00  0.00    -0.311 C  
HETATM    6  O   UNL     1     -11.961  14.668  67.755  1.00  0.00    -0.348 OA 
HETATM    7  C   UNL     1     -10.761  12.502  67.786  1.00  0.00    -0.219 C  
HETATM    8  C   UNL     1     -11.402  11.380  66.942  1.00  0.00    -0.284 C  
HETATM    9  C   UNL     1      -9.229  12.546  67.699  1.00  0.00    -0.190 C  
HETATM   10  O   UNL     1     -11.147  12.514  69.180  1.00  0.00    -0.243 OA 
BRANCH  10  11
HETATM   11  C   UNL     1     -11.364  11.355  69.862  1.00  0.00    -0.219 A  
HETATM   12  C   UNL     1     -10.435  10.335  70.038  1.00  0.00    -0.293 A  
HETATM   13  C   UNL     1     -10.824   9.109  70.573  1.00  0.00    -0.306 A  
HETATM   14  C   UNL     1     -12.139   8.917  71.000  1.00  0.00    -0.278 A  
HETATM   15  C   UNL     1     -13.025   9.998  71.002  1.00  0.00    -0.445 A  
HETATM   16  C   UNL     1     -12.637  11.210  70.419  1.00  0.00    -0.328 A  
BRANCH  14  17
HETATM   17  C   UNL     1     -12.534   7.550  71.417  1.00  0.00    -0.352 C  
HETATM   18  O   UNL     1     -13.651   7.381  71.904  1.00  0.00    -0.307 OA 
BRANCH  17  19
HETATM   19  C   UNL     1     -11.601   6.392  71.339  1.00  0.00    -0.368 A  
HETATM   20  C   UNL     1     -11.247   5.754  72.536  1.00  0.00    -0.347 A  
HETATM   21  C   UNL     1     -10.329   4.701  72.533  1.00  0.00    -0.259 A  
HETATM   22  C   UNL     1      -9.758   4.285  71.332  1.00  0.00    -0.181 A  
HETATM   23  C   UNL     1     -10.098   4.912  70.136  1.00  0.00    -0.332 A  
HETATM   24 CL   UNL     1      -8.608   3.006  71.329  1.00  0.00    -0.095 Cl 
HETATM   25  C   UNL     1     -11.008   5.975  70.139  1.00  0.00    -0.429 A  
ENDBRANCH  17  19
ENDBRANCH  14  17
ENDBRANCH  10  11
ENDBRANCH   4   5
ENDBRANCH   2   4
TORSDOF 5
ENDMDL
MODEL       21
REMARK 921   NORMALIZED FREE ENERGY PREDICTED BY IDOCK:   -5.64 KCAL/MOL
REMARK 922        TOTAL FREE ENERGY PREDICTED BY IDOCK:   -8.35 KCAL/MOL
REMARK 923 INTER-LIGAND FREE ENERGY PREDICTED BY IDOCK:   -7.34 KCAL/MOL
REMARK 924 INTRA-LIGAND FREE ENERGY PREDICTED BY IDOCK:   -1.00 KCAL/MOL
REMARK 927      BINDING AFFINITY PREDICTED BY RF-SCORE:    0.00 PKD
ROOT
HETATM    1  C   UNL     1     -10.538  19.846  65.606  1.00  0.00    -0.431 C  
HETATM    2  C   UNL     1      -9.984  18.666  66.389  1.00  0.00    -0.388 C  
HETATM    3  C   UNL     1     -10.407  18.746  67.851  1.00  0.00    -0.461 C  
ENDROOT
BRANCH   2   4
HETATM    4  O   UNL     1     -10.533  17.447  65.852  1.00  0.00    -0.442 OA 
BRANCH   4   5
HETATM    5  C   UNL     1      -9.732  16.335  65.882  1.00  0.00    -0.321 C  
HETATM    6  O   UNL     1      -8.519  16.359  65.720  1.00  0.00    -0.346 OA 
HETATM    7  C   UNL     1     -10.587  15.071  66.161  1.00  0.00    -0.310 C  
HETATM    8  C   UNL     1     -11.232  15.309  67.544  1.00  0.00    -0.317 C  
HETATM    9  C   UNL     1     -11.602  14.957  65.016  1.00  0.00    -0.357 C  
HETATM   10  O   UNL     1      -9.684  13.944  66.095  1.00  0.00    -0.291 OA 
BRANCH  10  11
HETATM   11  C   UNL     1      -9.922  12.805  66.806  1.00  0.00    -0.237 A  
HETATM   12  C   UNL     1     -11.007  11.955  66.628  1.00  0.00    -0.336 A  
HETATM   13  C   UNL     1     -11.263  10.935  67.542  1.00  0.00    -0.364 A  
HETATM   14  C   UNL     1     -10.391  10.717  68.610  1.00  0.00    -0.202 A  
HETATM   15  C   UNL     1      -9.200  11.444  68.683  1.00  0.00    -0.149 A  
HETATM   16  C   UNL     1      -8.977  12.497  67.788  1.00  0.00    -0.184 A  
BRANCH  14  17
HETATM   17  C   UNL     1     -10.792   9.722  69.634  1.00  0.00    -0.250 C  
HETATM   18  O   UNL     1     -11.327  10.120  70.667  1.00  0.00    -0.307 OA 
BRANCH  17  19
HETATM   19  C   UNL     1     -10.501   8.268  69.490  1.00  0.00    -0.228 A  
HETATM   20  C   UNL     1     -11.227   7.373  70.287  1.00  0.00    -0.268 A  
HETATM   21  C   UNL     1     -10.956   6.003  70.240  1.00  0.00    -0.412 A  
HETATM   22  C   UNL     1      -9.955   5.524  69.398  1.00  0.00    -0.208 A  
HETATM   23  C   UNL     1      -9.223   6.404  68.603  1.00  0.00    -0.125 A  
HETATM   24 CL   UNL     1      -9.602   3.842  69.358  1.00  0.00    -0.255 Cl 
HETATM   25  C   UNL     1      -9.485   7.777  68.658  1.00  0.00    -0.152 A  
ENDBRANCH  17  19
ENDBRANCH  14  17
ENDBRANCH  10  11
ENDBRANCH   4   5
ENDBRANCH   2   4
TORSDOF 5
ENDMDL
MODEL       22
REMARK 921   NORMALIZED FREE ENERGY PREDICTED BY IDOCK:   -5.64 KCAL/MOL
REMARK 922        TOTAL FREE ENERGY PREDICTED BY IDOCK:   -8.34 KCAL/MOL
REMARK 923 INTER-LIGAND FREE ENERGY PREDICTED BY IDOCK:   -7.70 KCAL/MOL
REMARK 924 INTRA-LIGAND FREE ENERGY PREDICTED BY IDOCK:   -0.65 KCAL/MOL
REMARK 927      BINDING AFFINITY PREDICTED BY RF-SCORE:    0.00 PKD
ROOT
HETATM    1  C   UNL     1      -9.626   1.712  71.006  1.00  0.00    -0.198 C  
HETATM    2  C   UNL     1      -9.266   3.023  70.322  1.00  0.00    -0.143 C  
HETATM    3  C   UNL     1      -9.356   2.879  68.808  1.00  0.00    -0.234 C  
ENDROOT
BRANCH   2   4
HETATM    4  O   UNL     1     -10.217   4.031  70.713  1.00  0.00    -0.062 OA 
BRANCH   4   5
HETATM    5  C   UNL     1      -9.730   5.292  70.944  1.00  0.00    -0.184 C  
HETATM    6  O   UNL     1      -8.558   5.538  71.201  1.00  0.00    -0.123 OA 
HETATM    7  C   UNL     1     -10.871   6.335  70.816  1.00  0.00    -0.281 C  
HETATM    8  C   UNL     1     -11.379   6.211  69.363  1.00  0.00    -0.401 C  
HETATM    9  C   UNL     1     -11.923   5.977  71.874  1.00  0.00    -0.185 C  
HETATM   10  O   UNL     1     -10.292   7.617  71.153  1.00  0.00    -0.200 OA 
BRANCH  10  11
HETATM   11  C   UNL     1     -10.789   8.775  70.632  1.00  0.00    -0.232 A  
HETATM   12  C   UNL     1     -10.268   9.455  69.537  1.00  0.00    -0.219 A  
HETATM   13  C   UNL     1     -10.725  10.732  69.216  1.00  0.00    -0.268 A  
HETATM   14  C   UNL     1     -11.759  11.312  69.953  1.00  0.00    -0.430 A  
HETATM   15  C   UNL     1     -12.413  10.555  70.930  1.00  0.00    -0.488 A  
HETATM   16  C   UNL     1     -11.915   9.294  71.275  1.00  0.00    -0.414 A  
BRANCH  14  17
HETATM   17  C   UNL     1     -12.100  12.726  69.667  1.00  0.00    -0.222 C  
HETATM   18  O   UNL     1     -12.150  13.095  68.495  1.00  0.00    -0.317 OA 
BRANCH  17  19
HETATM   19  C   UNL     1     -12.307  13.730  70.747  1.00  0.00    -0.451 A  
HETATM   20  C   UNL     1     -11.474  14.857  70.761  1.00  0.00    -0.313 A  
HETATM   21  C   UNL     1     -11.580  15.803  71.784  1.00  0.00    -0.541 A  
HETATM   22  C   UNL     1     -12.518  15.623  72.798  1.00  0.00    -0.436 A  
HETATM   23  C   UNL     1     -13.349  14.505  72.798  1.00  0.00    -0.600 A  
HETATM   24 CL   UNL     1     -12.633  16.773  74.072  1.00  0.00    -0.264 Cl 
HETATM   25  C   UNL     1     -13.236  13.551  71.781  1.00  0.00    -0.490 A  
ENDBRANCH  17  19
ENDBRANCH  14  17
ENDBRANCH  10  11
ENDBRANCH   4   5
ENDBRANCH   2   4
TORSDOF 5
ENDMDL
MODEL       23
REMARK 921   NORMALIZED FREE ENERGY PREDICTED BY IDOCK:   -5.63 KCAL/MOL
REMARK 922        TOTAL FREE ENERGY PREDICTED BY IDOCK:   -8.33 KCAL/MOL
REMARK 923 INTER-LIGAND FREE ENERGY PREDICTED BY IDOCK:   -7.29 KCAL/MOL
REMARK 924 INTRA-LIGAND FREE ENERGY PREDICTED BY IDOCK:   -1.04 KCAL/MOL
REMARK 927      BINDING AFFINITY PREDICTED BY RF-SCORE:    0.00 PKD
ROOT
HETATM    1  C   UNL     1     -11.510   5.809  72.491  1.00  0.00    -0.349 C  
HETATM    2  C   UNL     1     -11.935   6.634  71.285  1.00  0.00    -0.355 C  
HETATM    3  C   UNL     1     -13.217   7.400  71.586  1.00  0.00    -0.416 C  
ENDROOT
BRANCH   2   4
HETATM    4  O   UNL     1     -10.913   7.608  71.000  1.00  0.00    -0.240 OA 
BRANCH   4   5
HETATM    5  C   UNL     1     -10.659   7.878  69.680  1.00  0.00    -0.234 C  
HETATM    6  O   UNL     1     -10.777   7.059  68.777  1.00  0.00    -0.215 OA 
HETATM    7  C   UNL     1     -10.220   9.356  69.514  1.00  0.00    -0.209 C  
HETATM    8  C   UNL     1     -11.414  10.197  70.016  1.00  0.00    -0.344 C  
HETATM    9  C   UNL     1      -8.941   9.538  70.342  1.00  0.00    -0.291 C  
HETATM   10  O   UNL     1      -9.896   9.532  68.116  1.00  0.00    -0.148 OA 
BRANCH  10  11
HETATM   11  C   UNL     1     -10.022  10.746  67.509  1.00  0.00    -0.174 A  
HETATM   12  C   UNL     1      -9.168  11.829  67.686  1.00  0.00    -0.180 A  
HETATM   13  C   UNL     1      -9.503  13.083  67.180  1.00  0.00    -0.230 A  
HETATM   14  C   UNL     1     -10.670  13.247  66.431  1.00  0.00    -0.291 A  
HETATM   15  C   UNL     1     -11.429  12.125  66.089  1.00  0.00    -0.429 A  
HETATM   16  C   UNL     1     -11.109  10.879  66.642  1.00  0.00    -0.155 A  
BRANCH  14  17
HETATM   17  C   UNL     1     -11.054  14.627  66.048  1.00  0.00    -0.332 C  
HETATM   18  O   UNL     1     -11.833  14.785  65.110  1.00  0.00    -0.359 OA 
BRANCH  17  19
HETATM   19  C   UNL     1     -10.471  15.829  66.709  1.00  0.00    -0.305 A  
HETATM   20  C   UNL     1      -9.386  16.457  66.084  1.00  0.00    -0.360 A  
HETATM   21  C   UNL     1      -8.759  17.551  66.685  1.00  0.00    -0.288 A  
HETATM   22  C   UNL     1      -9.212  18.018  67.916  1.00  0.00    -0.268 A  
HETATM   23  C   UNL     1     -10.287  17.399  68.551  1.00  0.00    -0.378 A  
HETATM   24 CL   UNL     1      -8.426  19.348  68.671  1.00  0.00    -0.399 Cl 
HETATM   25  C   UNL     1     -10.909  16.296  67.956  1.00  0.00    -0.339 A  
ENDBRANCH  17  19
ENDBRANCH  14  17
ENDBRANCH  10  11
ENDBRANCH   4   5
ENDBRANCH   2   4
TORSDOF 5
ENDMDL
MODEL       24
REMARK 921   NORMALIZED FREE ENERGY PREDICTED BY IDOCK:   -5.60 KCAL/MOL
REMARK 922        TOTAL FREE ENERGY PREDICTED BY IDOCK:   -8.29 KCAL/MOL
REMARK 923 INTER-LIGAND FREE ENERGY PREDICTED BY IDOCK:   -7.86 KCAL/MOL
REMARK 924 INTRA-LIGAND FREE ENERGY PREDICTED BY IDOCK:   -0.43 KCAL/MOL
REMARK 927      BINDING AFFINITY PREDICTED BY RF-SCORE:    0.00 PKD
ROOT
HETATM    1  C   UNL     1      -8.756   3.358  71.220  1.00  0.00    -0.122 C  
HETATM    2  C   UNL     1      -8.872   3.950  72.617  1.00  0.00    -0.102 C  
HETATM    3  C   UNL     1      -7.580   3.743  73.396  1.00  0.00    -0.070 C  
ENDROOT
BRANCH   2   4
HETATM    4  O   UNL     1      -9.081   5.371  72.506  1.00  0.00    -0.136 OA 
BRANCH   4   5
HETATM    5  C   UNL     1     -10.368   5.799  72.301  1.00  0.00    -0.202 C  
HETATM    6  O   UNL     1     -11.362   5.176  72.651  1.00  0.00    -0.243 OA 
HETATM    7  C   UNL     1     -10.362   7.173  71.581  1.00  0.00    -0.197 C  
HETATM    8  C   UNL     1      -9.622   8.133  72.537  1.00  0.00    -0.347 C  
HETATM    9  C   UNL     1      -9.655   6.969  70.235  1.00  0.00    -0.168 C  
HETATM   10  O   UNL     1     -11.747   7.508  71.331  1.00  0.00    -0.267 OA 
BRANCH  10  11
HETATM   11  C   UNL     1     -12.156   8.806  71.249  1.00  0.00    -0.296 A  
HETATM   12  C   UNL     1     -11.602   9.776  70.420  1.00  0.00    -0.327 A  
HETATM   13  C   UNL     1     -11.957  11.115  70.564  1.00  0.00    -0.475 A  
HETATM   14  C   UNL     1     -12.924  11.487  71.500  1.00  0.00    -0.485 A  
HETATM   15  C   UNL     1     -13.620  10.496  72.198  1.00  0.00    -0.167 A  
HETATM   16  C   UNL     1     -13.222   9.159  72.080  1.00  0.00    -0.524 A  
BRANCH  14  17
HETATM   17  C   UNL     1     -13.152  12.936  71.717  1.00  0.00    -0.360 C  
HETATM   18  O   UNL     1     -14.010  13.284  72.525  1.00  0.00    -0.701 OA 
BRANCH  17  19
HETATM   19  C   UNL     1     -12.433  13.981  70.936  1.00  0.00    -0.439 A  
HETATM   20  C   UNL     1     -11.969  15.110  71.624  1.00  0.00    -0.432 A  
HETATM   21  C   UNL     1     -11.342  16.151  70.936  1.00  0.00    -0.394 A  
HETATM   22  C   UNL     1     -11.180  16.069  69.555  1.00  0.00    -0.348 A  
HETATM   23  C   UNL     1     -11.640  14.954  68.857  1.00  0.00    -0.339 A  
HETATM   24 CL   UNL     1     -10.432  17.361  68.702  1.00  0.00    -0.363 Cl 
HETATM   25  C   UNL     1     -12.279  13.916  69.543  1.00  0.00    -0.356 A  
ENDBRANCH  17  19
ENDBRANCH  14  17
ENDBRANCH  10  11
ENDBRANCH   4   5
ENDBRANCH   2   4
TORSDOF 5
ENDMDL
MODEL       25
REMARK 921   NORMALIZED FREE ENERGY PREDICTED BY IDOCK:   -5.58 KCAL/MOL
REMARK 922        TOTAL FREE ENERGY PREDICTED BY IDOCK:   -8.26 KCAL/MOL
REMARK 923 INTER-LIGAND FREE ENERGY PREDICTED BY IDOCK:   -7.51 KCAL/MOL
REMARK 924 INTRA-LIGAND FREE ENERGY PREDICTED BY IDOCK:   -0.75 KCAL/MOL
REMARK 927      BINDING AFFINITY PREDICTED BY RF-SCORE:    0.00 PKD
ROOT
HETATM    1  C   UNL     1      -9.625   1.917  71.154  1.00  0.00    -0.207 C  
HETATM    2  C   UNL     1      -9.275   3.306  70.641  1.00  0.00    -0.137 C  
HETATM    3  C   UNL     1      -9.378   3.357  69.122  1.00  0.00    -0.237 C  
ENDROOT
BRANCH   2   4
HETATM    4  O   UNL     1     -10.225   4.253  71.166  1.00  0.00    -0.140 OA 
BRANCH   4   5
HETATM    5  C   UNL     1      -9.766   5.519  71.423  1.00  0.00    -0.158 C  
HETATM    6  O   UNL     1      -8.614   5.780  71.744  1.00  0.00    -0.130 OA 
HETATM    7  C   UNL     1     -10.911   6.548  71.234  1.00  0.00    -0.262 C  
HETATM    8  C   UNL     1     -11.338   6.419  69.755  1.00  0.00    -0.494 C  
HETATM    9  C   UNL     1     -12.015   6.177  72.233  1.00  0.00    -0.285 C  
HETATM   10  O   UNL     1     -10.368   7.837  71.601  1.00  0.00    -0.194 OA 
BRANCH  10  11
HETATM   11  C   UNL     1     -10.850   8.989  71.054  1.00  0.00    -0.276 A  
HETATM   12  C   UNL     1     -10.280   9.676  69.988  1.00  0.00    -0.296 A  
HETATM   13  C   UNL     1     -10.734  10.947  69.643  1.00  0.00    -0.232 A  
HETATM   14  C   UNL     1     -11.812  11.514  70.324  1.00  0.00    -0.431 A  
HETATM   15  C   UNL     1     -12.508  10.750  71.265  1.00  0.00    -0.504 A  
HETATM   16  C   UNL     1     -12.015   9.494  71.637  1.00  0.00    -0.474 A  
BRANCH  14  17
HETATM   17  C   UNL     1     -12.154  12.924  70.019  1.00  0.00    -0.286 C  
HETATM   18  O   UNL     1     -12.818  13.561  70.836  1.00  0.00    -0.294 OA 
BRANCH  17  19
HETATM   19  C   UNL     1     -11.789  13.572  68.729  1.00  0.00    -0.390 A  
HETATM   20  C   UNL     1     -11.129  14.807  68.779  1.00  0.00    -0.277 A  
HETATM   21  C   UNL     1     -10.815  15.491  67.602  1.00  0.00    -0.306 A  
HETATM   22  C   UNL     1     -11.165  14.944  66.370  1.00  0.00    -0.331 A  
HETATM   23  C   UNL     1     -11.826  13.719  66.305  1.00  0.00    -0.426 A  
HETATM   24 CL   UNL     1     -10.804  15.796  64.921  1.00  0.00    -0.467 Cl 
HETATM   25  C   UNL     1     -12.151  13.038  67.484  1.00  0.00    -0.279 A  
ENDBRANCH  17  19
ENDBRANCH  14  17
ENDBRANCH  10  11
ENDBRANCH   4   5
ENDBRANCH   2   4
TORSDOF 5
ENDMDL
MODEL       26
REMARK 921   NORMALIZED FREE ENERGY PREDICTED BY IDOCK:   -5.57 KCAL/MOL
REMARK 922        TOTAL FREE ENERGY PREDICTED BY IDOCK:   -8.25 KCAL/MOL
REMARK 923 INTER-LIGAND FREE ENERGY PREDICTED BY IDOCK:   -7.48 KCAL/MOL
REMARK 924 INTRA-LIGAND FREE ENERGY PREDICTED BY IDOCK:   -0.77 KCAL/MOL
REMARK 927      BINDING AFFINITY PREDICTED BY RF-SCORE:    0.00 PKD
ROOT
HETATM    1  C   UNL     1     -10.418   4.620  74.370  1.00  0.00    -0.330 C  
HETATM    2  C   UNL     1      -9.827   4.539  72.970  1.00  0.00    -0.140 C  
HETATM    3  C   UNL     1      -9.920   3.117  72.431  1.00  0.00    -0.234 C  
ENDROOT
BRANCH   2   4
HETATM    4  O   UNL     1     -10.595   5.381  72.089  1.00  0.00    -0.215 OA 
BRANCH   4   5
HETATM    5  C   UNL     1      -9.970   6.496  71.590  1.00  0.00    -0.177 C  
HETATM    6  O   UNL     1      -8.757   6.661  71.592  1.00  0.00    -0.130 OA 
HETATM    7  C   UNL     1     -11.021   7.486  71.024  1.00  0.00    -0.251 C  
HETATM    8  C   UNL     1     -11.739   6.719  69.893  1.00  0.00    -0.279 C  
HETATM    9  C   UNL     1     -11.940   7.876  72.190  1.00  0.00    -0.379 C  
HETATM   10  O   UNL     1     -10.290   8.658  70.598  1.00  0.00    -0.192 OA 
BRANCH  10  11
HETATM   11  C   UNL     1     -10.751   9.451  69.589  1.00  0.00    -0.235 A  
HETATM   12  C   UNL     1     -10.424   9.316  68.244  1.00  0.00    -0.260 A  
HETATM   13  C   UNL     1     -10.786  10.301  67.328  1.00  0.00    -0.323 A  
HETATM   14  C   UNL     1     -11.540  11.401  67.742  1.00  0.00    -0.325 A  
HETATM   15  C   UNL     1     -12.032  11.442  69.049  1.00  0.00    -0.387 A  
HETATM   16  C   UNL     1     -11.623  10.472  69.972  1.00  0.00    -0.392 A  
BRANCH  14  17
HETATM   17  C   UNL     1     -11.765  12.490  66.762  1.00  0.00    -0.384 C  
HETATM   18  O   UNL     1     -12.405  12.244  65.741  1.00  0.00    -0.622 OA 
BRANCH  17  19
HETATM   19  C   UNL     1     -11.179  13.849  66.931  1.00  0.00    -0.324 A  
HETATM   20  C   UNL     1     -11.732  14.683  67.913  1.00  0.00    -0.379 A  
HETATM   21  C   UNL     1     -11.265  15.989  68.078  1.00  0.00    -0.303 A  
HETATM   22  C   UNL     1     -10.245  16.468  67.258  1.00  0.00    -0.287 A  
HETATM   23  C   UNL     1      -9.689  15.651  66.276  1.00  0.00    -0.328 A  
HETATM   24 CL   UNL     1      -9.686  18.084  67.441  1.00  0.00    -0.288 Cl 
HETATM   25  C   UNL     1     -10.164  14.347  66.101  1.00  0.00    -0.317 A  
ENDBRANCH  17  19
ENDBRANCH  14  17
ENDBRANCH  10  11
ENDBRANCH   4   5
ENDBRANCH   2   4
TORSDOF 5
ENDMDL
MODEL       27
REMARK 921   NORMALIZED FREE ENERGY PREDICTED BY IDOCK:   -5.57 KCAL/MOL
REMARK 922        TOTAL FREE ENERGY PREDICTED BY IDOCK:   -8.25 KCAL/MOL
REMARK 923 INTER-LIGAND FREE ENERGY PREDICTED BY IDOCK:   -7.24 KCAL/MOL
REMARK 924 INTRA-LIGAND FREE ENERGY PREDICTED BY IDOCK:   -1.01 KCAL/MOL
REMARK 927      BINDING AFFINITY PREDICTED BY RF-SCORE:    0.00 PKD
ROOT
HETATM    1  C   UNL     1      -9.313   4.574  70.280  1.00  0.00    -0.218 C  
HETATM    2  C   UNL     1     -10.323   4.977  71.344  1.00  0.00    -0.181 C  
HETATM    3  C   UNL     1     -10.041   4.248  72.652  1.00  0.00    -0.222 C  
ENDROOT
BRANCH   2   4
HETATM    4  O   UNL     1     -10.193   6.387  71.604  1.00  0.00    -0.193 OA 
BRANCH   4   5
HETATM    5  C   UNL     1     -11.324   7.152  71.478  1.00  0.00    -0.255 C  
HETATM    6  O   UNL     1     -12.407   6.861  71.969  1.00  0.00    -0.315 OA 
HETATM    7  C   UNL     1     -11.016   8.424  70.645  1.00  0.00    -0.243 C  
HETATM    8  C   UNL     1      -9.937   9.186  71.444  1.00  0.00    -0.373 C  
HETATM    9  C   UNL     1     -10.547   7.950  69.263  1.00  0.00    -0.195 C  
HETATM   10  O   UNL     1     -12.272   9.126  70.493  1.00  0.00    -0.093 OA 
BRANCH  10  11
HETATM   11  C   UNL     1     -12.309  10.479  70.336  1.00  0.00    -0.324 A  
HETATM   12  C   UNL     1     -11.843  11.176  69.227  1.00  0.00    -0.422 A  
HETATM   13  C   UNL     1     -11.741  12.565  69.257  1.00  0.00    -0.379 A  
HETATM   14  C   UNL     1     -12.171  13.275  70.380  1.00  0.00    -0.404 A  
HETATM   15  C   UNL     1     -12.816  12.595  71.416  1.00  0.00    -0.358 A  
HETATM   16  C   UNL     1     -12.870  11.196  71.396  1.00  0.00    -0.544 A  
BRANCH  14  17
HETATM   17  C   UNL     1     -11.899  14.732  70.419  1.00  0.00    -0.295 C  
HETATM   18  O   UNL     1     -12.472  15.418  71.263  1.00  0.00    -0.332 OA 
BRANCH  17  19
HETATM   19  C   UNL     1     -11.018  15.406  69.424  1.00  0.00    -0.276 A  
HETATM   20  C   UNL     1      -9.665  15.567  69.751  1.00  0.00    -0.247 A  
HETATM   21  C   UNL     1      -8.803  16.244  68.885  1.00  0.00    -0.253 A  
HETATM   22  C   UNL     1      -9.293  16.766  67.690  1.00  0.00    -0.228 A  
HETATM   23  C   UNL     1     -10.637  16.617  67.355  1.00  0.00    -0.295 A  
HETATM   24 CL   UNL     1      -8.240  17.623  66.635  1.00  0.00    -0.273 Cl 
HETATM   25  C   UNL     1     -11.504  15.949  68.226  1.00  0.00    -0.320 A  
ENDBRANCH  17  19
ENDBRANCH  14  17
ENDBRANCH  10  11
ENDBRANCH   4   5
ENDBRANCH   2   4
TORSDOF 5
ENDMDL
MODEL       28
REMARK 921   NORMALIZED FREE ENERGY PREDICTED BY IDOCK:   -5.55 KCAL/MOL
REMARK 922        TOTAL FREE ENERGY PREDICTED BY IDOCK:   -8.23 KCAL/MOL
REMARK 923 INTER-LIGAND FREE ENERGY PREDICTED BY IDOCK:   -7.65 KCAL/MOL
REMARK 924 INTRA-LIGAND FREE ENERGY PREDICTED BY IDOCK:   -0.57 KCAL/MOL
REMARK 927      BINDING AFFINITY PREDICTED BY RF-SCORE:    0.00 PKD
ROOT
HETATM    1  C   UNL     1     -10.962   6.942  67.040  1.00  0.00    -0.404 C  
HETATM    2  C   UNL     1     -10.494   8.063  67.957  1.00  0.00    -0.184 C  
HETATM    3  C   UNL     1      -9.211   7.666  68.676  1.00  0.00    -0.141 C  
ENDROOT
BRANCH   2   4
HETATM    4  O   UNL     1     -10.196   9.225  67.161  1.00  0.00    -0.219 OA 
BRANCH   4   5
HETATM    5  C   UNL     1     -10.929  10.357  67.410  1.00  0.00    -0.270 C  
HETATM    6  O   UNL     1     -11.896  10.397  68.160  1.00  0.00    -0.338 OA 
HETATM    7  C   UNL     1     -10.343  11.555  66.618  1.00  0.00    -0.226 C  
HETATM    8  C   UNL     1      -8.899  11.723  67.138  1.00  0.00    -0.173 C  
HETATM    9  C   UNL     1     -10.428  11.191  65.130  1.00  0.00    -0.341 C  
HETATM   10  O   UNL     1     -11.217  12.679  66.871  1.00  0.00    -0.272 OA 
BRANCH  10  11
HETATM   11  C   UNL     1     -10.752  13.960  66.829  1.00  0.00    -0.281 A  
HETATM   12  C   UNL     1     -10.586  14.795  67.929  1.00  0.00    -0.248 A  
HETATM   13  C   UNL     1     -10.302  16.147  67.752  1.00  0.00    -0.283 A  
HETATM   14  C   UNL     1     -10.113  16.661  66.468  1.00  0.00    -0.313 A  
HETATM   15  C   UNL     1     -10.088  15.789  65.377  1.00  0.00    -0.337 A  
HETATM   16  C   UNL     1     -10.422  14.442  65.560  1.00  0.00    -0.366 A  
BRANCH  14  17
HETATM   17  C   UNL     1      -9.964  18.130  66.330  1.00  0.00    -0.376 C  
HETATM   18  O   UNL     1     -10.746  18.737  65.601  1.00  0.00    -0.543 OA 
BRANCH  17  19
HETATM   19  C   UNL     1      -8.856  18.884  66.980  1.00  0.00    -0.306 A  
HETATM   20  C   UNL     1      -7.929  19.531  66.151  1.00  0.00    -0.340 A  
HETATM   21  C   UNL     1      -6.835  20.202  66.701  1.00  0.00    -0.261 A  
HETATM   22  C   UNL     1      -6.661  20.225  68.083  1.00  0.00    -0.301 A  
HETATM   23  C   UNL     1      -7.572  19.582  68.918  1.00  0.00    -0.383 A  
HETATM   24 CL   UNL     1      -5.300  21.029  68.761  1.00  0.00    -0.371 Cl 
HETATM   25  C   UNL     1      -8.662  18.899  68.369  1.00  0.00    -0.380 A  
ENDBRANCH  17  19
ENDBRANCH  14  17
ENDBRANCH  10  11
ENDBRANCH   4   5
ENDBRANCH   2   4
TORSDOF 5
ENDMDL
MODEL       29
REMARK 921   NORMALIZED FREE ENERGY PREDICTED BY IDOCK:   -5.51 KCAL/MOL
REMARK 922        TOTAL FREE ENERGY PREDICTED BY IDOCK:   -8.17 KCAL/MOL
REMARK 923 INTER-LIGAND FREE ENERGY PREDICTED BY IDOCK:   -7.38 KCAL/MOL
REMARK 924 INTRA-LIGAND FREE ENERGY PREDICTED BY IDOCK:   -0.79 KCAL/MOL
REMARK 927      BINDING AFFINITY PREDICTED BY RF-SCORE:    0.00 PKD
ROOT
HETATM    1  C   UNL     1     -10.520   5.345  70.357  1.00  0.00    -0.345 C  
HETATM    2  C   UNL     1     -11.257   6.586  69.875  1.00  0.00    -0.395 C  
HETATM    3  C   UNL     1     -12.214   7.091  70.948  1.00  0.00    -0.388 C  
ENDROOT
BRANCH   2   4
HETATM    4  O   UNL     1     -10.299   7.634  69.629  1.00  0.00    -0.203 OA 
BRANCH   4   5
HETATM    5  C   UNL     1     -10.373   8.275  68.419  1.00  0.00    -0.199 C  
HETATM    6  O   UNL     1     -10.729   7.737  67.379  1.00  0.00    -0.278 OA 
HETATM    7  C   UNL     1      -9.956   9.760  68.579  1.00  0.00    -0.160 C  
HETATM    8  C   UNL     1     -10.970  10.367  69.572  1.00  0.00    -0.307 C  
HETATM    9  C   UNL     1      -8.508   9.765  69.088  1.00  0.00    -0.143 C  
HETATM   10  O   UNL     1      -9.982  10.336  67.252  1.00  0.00    -0.175 OA 
BRANCH  10  11
HETATM   11  C   UNL     1     -10.226  11.664  67.063  1.00  0.00    -0.212 A  
HETATM   12  C   UNL     1     -11.480  12.234  66.870  1.00  0.00    -0.418 A  
HETATM   13  C   UNL     1     -11.597  13.567  66.483  1.00  0.00    -0.391 A  
HETATM   14  C   UNL     1     -10.456  14.361  66.350  1.00  0.00    -0.295 A  
HETATM   15  C   UNL     1      -9.214  13.846  66.728  1.00  0.00    -0.267 A  
HETATM   16  C   UNL     1      -9.102  12.493  67.070  1.00  0.00    -0.213 A  
BRANCH  14  17
HETATM   17  C   UNL     1     -10.627  15.723  65.789  1.00  0.00    -0.355 C  
HETATM   18  O   UNL     1     -10.835  15.843  64.583  1.00  0.00    -0.557 OA 
BRANCH  17  19
HETATM   19  C   UNL     1     -10.479  16.951  66.619  1.00  0.00    -0.257 A  
HETATM   20  C   UNL     1     -10.253  16.790  67.992  1.00  0.00    -0.300 A  
HETATM   21  C   UNL     1     -10.166  17.903  68.831  1.00  0.00    -0.331 A  
HETATM   22  C   UNL     1     -10.310  19.183  68.300  1.00  0.00    -0.361 A  
HETATM   23  C   UNL     1     -10.540  19.357  66.937  1.00  0.00    -0.581 A  
HETATM   24 CL   UNL     1     -10.230  20.554  69.335  1.00  0.00     0.074 Cl 
HETATM   25  C   UNL     1     -10.639  18.243  66.097  1.00  0.00    -0.326 A  
ENDBRANCH  17  19
ENDBRANCH  14  17
ENDBRANCH  10  11
ENDBRANCH   4   5
ENDBRANCH   2   4
TORSDOF 5
ENDMDL
MODEL       30
REMARK 921   NORMALIZED FREE ENERGY PREDICTED BY IDOCK:   -5.51 KCAL/MOL
REMARK 922        TOTAL FREE ENERGY PREDICTED BY IDOCK:   -8.17 KCAL/MOL
REMARK 923 INTER-LIGAND FREE ENERGY PREDICTED BY IDOCK:   -7.06 KCAL/MOL
REMARK 924 INTRA-LIGAND FREE ENERGY PREDICTED BY IDOCK:   -1.11 KCAL/MOL
REMARK 927      BINDING AFFINITY PREDICTED BY RF-SCORE:    0.00 PKD
ROOT
HETATM    1  C   UNL     1      -9.109   3.784  69.501  1.00  0.00    -0.200 C  
HETATM    2  C   UNL     1      -9.871   5.083  69.715  1.00  0.00    -0.216 C  
HETATM    3  C   UNL     1     -10.320   5.209  71.165  1.00  0.00    -0.276 C  
ENDROOT
BRANCH   2   4
HETATM    4  O   UNL     1      -8.993   6.192  69.442  1.00  0.00    -0.127 OA 
BRANCH   4   5
HETATM    5  C   UNL     1      -9.330   7.012  68.396  1.00  0.00    -0.130 C  
HETATM    6  O   UNL     1      -9.746   6.612  67.317  1.00  0.00    -0.125 OA 
HETATM    7  C   UNL     1      -9.117   8.496  68.794  1.00  0.00    -0.143 C  
HETATM    8  C   UNL     1     -10.059   8.739  69.994  1.00  0.00    -0.200 C  
HETATM    9  C   UNL     1      -7.629   8.659  69.130  1.00  0.00    -0.089 C  
HETATM   10  O   UNL     1      -9.415   9.282  67.617  1.00  0.00    -0.131 OA 
BRANCH  10  11
HETATM   11  C   UNL     1      -9.875  10.561  67.718  1.00  0.00    -0.165 A  
HETATM   12  C   UNL     1      -9.105  11.672  68.040  1.00  0.00    -0.177 A  
HETATM   13  C   UNL     1      -9.711  12.895  68.319  1.00  0.00    -0.217 A  
HETATM   14  C   UNL     1     -11.096  13.031  68.212  1.00  0.00    -0.293 A  
HETATM   15  C   UNL     1     -11.852  11.971  67.703  1.00  0.00    -0.294 A  
HETATM   16  C   UNL     1     -11.239  10.734  67.472  1.00  0.00    -0.346 A  
BRANCH  14  17
HETATM   17  C   UNL     1     -11.700  14.307  68.666  1.00  0.00    -0.345 C  
HETATM   18  O   UNL     1     -11.898  15.194  67.838  1.00  0.00    -0.320 OA 
BRANCH  17  19
HETATM   19  C   UNL     1     -12.004  14.579  70.098  1.00  0.00    -0.377 A  
HETATM   20  C   UNL     1     -11.602  15.812  70.630  1.00  0.00    -0.416 A  
HETATM   21  C   UNL     1     -11.804  16.100  71.982  1.00  0.00    -0.615 A  
HETATM   22  C   UNL     1     -12.406  15.155  72.808  1.00  0.00    -0.385 A  
HETATM   23  C   UNL     1     -12.807  13.923  72.294  1.00  0.00    -0.385 A  
HETATM   24 CL   UNL     1     -12.633  15.497  74.478  1.00  0.00    -0.667 Cl 
HETATM   25  C   UNL     1     -12.594  13.628  70.943  1.00  0.00    -0.421 A  
ENDBRANCH  17  19
ENDBRANCH  14  17
ENDBRANCH  10  11
ENDBRANCH   4   5
ENDBRANCH   2   4
TORSDOF 5
ENDMDL
MODEL       31
REMARK 921   NORMALIZED FREE ENERGY PREDICTED BY IDOCK:   -5.50 KCAL/MOL
REMARK 922        TOTAL FREE ENERGY PREDICTED BY IDOCK:   -8.16 KCAL/MOL
REMARK 923 INTER-LIGAND FREE ENERGY PREDICTED BY IDOCK:   -7.42 KCAL/MOL
REMARK 924 INTRA-LIGAND FREE ENERGY PREDICTED BY IDOCK:   -0.74 KCAL/MOL
REMARK 927      BINDING AFFINITY PREDICTED BY RF-SCORE:    0.00 PKD
ROOT
HETATM    1  C   UNL     1      -9.716   4.377  72.380  1.00  0.00    -0.210 C  
HETATM    2  C   UNL     1     -10.330   5.770  72.359  1.00  0.00    -0.200 C  
HETATM    3  C   UNL     1     -10.022   6.510  73.654  1.00  0.00    -0.252 C  
ENDROOT
BRANCH   2   4
HETATM    4  O   UNL     1      -9.740   6.525  71.284  1.00  0.00    -0.173 OA 
BRANCH   4   5
HETATM    5  C   UNL     1     -10.591   7.017  70.327  1.00  0.00    -0.226 C  
HETATM    6  O   UNL     1     -11.668   6.511  70.041  1.00  0.00    -0.416 OA 
HETATM    7  C   UNL     1      -9.990   8.297  69.689  1.00  0.00    -0.193 C  
HETATM    8  C   UNL     1      -9.844   9.304  70.850  1.00  0.00    -0.363 C  
HETATM    9  C   UNL     1      -8.656   7.893  69.047  1.00  0.00    -0.135 C  
HETATM   10  O   UNL     1     -10.904   8.700  68.644  1.00  0.00    -0.106 OA 
BRANCH  10  11
HETATM   11  C   UNL     1     -11.020  10.006  68.270  1.00  0.00    -0.227 A  
HETATM   12  C   UNL     1     -11.667  10.999  68.998  1.00  0.00    -0.402 A  
HETATM   13  C   UNL     1     -11.905  12.249  68.431  1.00  0.00    -0.358 A  
HETATM   14  C   UNL     1     -11.434  12.537  67.148  1.00  0.00    -0.414 A  
HETATM   15  C   UNL     1     -10.619  11.610  66.492  1.00  0.00    -0.292 A  
HETATM   16  C   UNL     1     -10.427  10.341  67.051  1.00  0.00    -0.304 A  
BRANCH  14  17
HETATM   17  C   UNL     1     -11.845  13.824  66.537  1.00  0.00    -0.407 C  
HETATM   18  O   UNL     1     -12.741  13.817  65.694  1.00  0.00    -0.509 OA 
BRANCH  17  19
HETATM   19  C   UNL     1     -11.161  15.109  66.849  1.00  0.00    -0.292 A  
HETATM   20  C   UNL     1     -10.185  15.567  65.954  1.00  0.00    -0.367 A  
HETATM   21  C   UNL     1      -9.468  16.734  66.224  1.00  0.00    -0.314 A  
HETATM   22  C   UNL     1      -9.721  17.447  67.394  1.00  0.00    -0.269 A  
HETATM   23  C   UNL     1     -10.685  17.001  68.295  1.00  0.00    -0.372 A  
HETATM   24 CL   UNL     1      -8.820  18.870  67.742  1.00  0.00    -0.310 Cl 
HETATM   25  C   UNL     1     -11.396  15.826  68.032  1.00  0.00    -0.310 A  
ENDBRANCH  17  19
ENDBRANCH  14  17
ENDBRANCH  10  11
ENDBRANCH   4   5
ENDBRANCH   2   4
TORSDOF 5
ENDMDL
MODEL       32
REMARK 921   NORMALIZED FREE ENERGY PREDICTED BY IDOCK:   -5.48 KCAL/MOL
REMARK 922        TOTAL FREE ENERGY PREDICTED BY IDOCK:   -8.14 KCAL/MOL
REMARK 923 INTER-LIGAND FREE ENERGY PREDICTED BY IDOCK:   -7.12 KCAL/MOL
REMARK 924 INTRA-LIGAND FREE ENERGY PREDICTED BY IDOCK:   -1.01 KCAL/MOL
REMARK 927      BINDING AFFINITY PREDICTED BY RF-SCORE:    0.00 PKD
ROOT
HETATM    1  C   UNL     1     -10.783   6.986  68.227  1.00  0.00    -0.231 C  
HETATM    2  C   UNL     1     -10.358   7.849  69.405  1.00  0.00    -0.220 C  
HETATM    3  C   UNL     1      -9.151   7.238  70.108  1.00  0.00    -0.148 C  
ENDROOT
BRANCH   2   4
HETATM    4  O   UNL     1      -9.958   9.144  68.917  1.00  0.00    -0.170 OA 
BRANCH   4   5
HETATM    5  C   UNL     1     -10.927  10.111  68.850  1.00  0.00    -0.223 C  
HETATM    6  O   UNL     1     -11.871  10.193  69.625  1.00  0.00    -0.164 OA 
HETATM    7  C   UNL     1     -10.636  11.074  67.669  1.00  0.00    -0.217 C  
HETATM    8  C   UNL     1      -9.263  11.707  67.984  1.00  0.00    -0.178 C  
HETATM    9  C   UNL     1     -10.649  10.227  66.389  1.00  0.00    -0.177 C  
HETATM   10  O   UNL     1     -11.740  12.006  67.620  1.00  0.00    -0.425 OA 
BRANCH  10  11
HETATM   11  C   UNL     1     -11.579  13.268  67.130  1.00  0.00    -0.357 A  
HETATM   12  C   UNL     1     -11.222  13.586  65.824  1.00  0.00    -0.308 A  
HETATM   13  C   UNL     1     -10.884  14.894  65.483  1.00  0.00    -0.365 A  
HETATM   14  C   UNL     1     -10.965  15.910  66.437  1.00  0.00    -0.115 A  
HETATM   15  C   UNL     1     -11.505  15.628  67.695  1.00  0.00    -0.167 A  
HETATM   16  C   UNL     1     -11.797  14.304  68.041  1.00  0.00    -0.379 A  
BRANCH  14  17
HETATM   17  C   UNL     1     -10.449  17.249  66.063  1.00  0.00    -0.282 C  
HETATM   18  O   UNL     1     -10.897  17.794  65.056  1.00  0.00    -0.774 OA 
BRANCH  17  19
HETATM   19  C   UNL     1      -9.356  17.921  66.818  1.00  0.00    -0.279 A  
HETATM   20  C   UNL     1      -9.711  18.719  67.914  1.00  0.00    -0.368 A  
HETATM   21  C   UNL     1      -8.735  19.423  68.623  1.00  0.00    -0.403 A  
HETATM   22  C   UNL     1      -7.400  19.335  68.236  1.00  0.00    -0.294 A  
HETATM   23  C   UNL     1      -7.033  18.549  67.146  1.00  0.00    -0.213 A  
HETATM   24 CL   UNL     1      -6.200  20.221  69.092  1.00  0.00    -0.362 Cl 
HETATM   25  C   UNL     1      -8.011  17.852  66.427  1.00  0.00    -0.302 A  
ENDBRANCH  17  19
ENDBRANCH  14  17
ENDBRANCH  10  11
ENDBRANCH   4   5
ENDBRANCH   2   4
TORSDOF 5
ENDMDL
MODEL       33
REMARK 921   NORMALIZED FREE ENERGY PREDICTED BY IDOCK:   -5.46 KCAL/MOL
REMARK 922        TOTAL FREE ENERGY PREDICTED BY IDOCK:   -8.10 KCAL/MOL
REMARK 923 INTER-LIGAND FREE ENERGY PREDICTED BY IDOCK:   -7.28 KCAL/MOL
REMARK 924 INTRA-LIGAND FREE ENERGY PREDICTED BY IDOCK:   -0.82 KCAL/MOL
REMARK 927      BINDING AFFINITY PREDICTED BY RF-SCORE:    0.00 PKD
ROOT
HETATM    1  C   UNL     1     -10.364  19.892  65.636  1.00  0.00    -0.426 C  
HETATM    2  C   UNL     1      -9.798  18.734  66.445  1.00  0.00    -0.373 C  
HETATM    3  C   UNL     1     -10.244  18.828  67.899  1.00  0.00    -0.448 C  
ENDROOT
BRANCH   2   4
HETATM    4  O   UNL     1     -10.316  17.497  65.919  1.00  0.00    -0.494 OA 
BRANCH   4   5
HETATM    5  C   UNL     1      -9.517  16.388  66.032  1.00  0.00    -0.310 C  
HETATM    6  O   UNL     1      -8.294  16.418  66.009  1.00  0.00    -0.319 OA 
HETATM    7  C   UNL     1     -10.392  15.119  66.206  1.00  0.00    -0.294 C  
HETATM    8  C   UNL     1     -11.189  15.345  67.509  1.00  0.00    -0.302 C  
HETATM    9  C   UNL     1     -11.270  15.007  64.952  1.00  0.00    -0.423 C  
HETATM   10  O   UNL     1      -9.481  13.996  66.235  1.00  0.00    -0.278 OA 
BRANCH  10  11
HETATM   11  C   UNL     1      -9.791  12.852  66.908  1.00  0.00    -0.235 A  
HETATM   12  C   UNL     1      -9.141  12.382  68.044  1.00  0.00    -0.195 A  
HETATM   13  C   UNL     1      -9.403  11.103  68.529  1.00  0.00    -0.190 A  
HETATM   14  C   UNL     1     -10.372  10.306  67.916  1.00  0.00    -0.234 A  
HETATM   15  C   UNL     1     -11.160  10.846  66.896  1.00  0.00    -0.236 A  
HETATM   16  C   UNL     1     -10.856  12.113  66.386  1.00  0.00    -0.306 A  
BRANCH  14  17
HETATM   17  C   UNL     1     -10.500   8.902  68.377  1.00  0.00    -0.187 C  
HETATM   18  O   UNL     1     -10.738   8.027  67.547  1.00  0.00    -0.244 OA 
BRANCH  17  19
HETATM   19  C   UNL     1     -10.429   8.526  69.817  1.00  0.00    -0.220 A  
HETATM   20  C   UNL     1      -9.297   7.826  70.255  1.00  0.00    -0.156 A  
HETATM   21  C   UNL     1      -9.200   7.394  71.580  1.00  0.00    -0.149 A  
HETATM   22  C   UNL     1     -10.238   7.657  72.471  1.00  0.00    -0.243 A  
HETATM   23  C   UNL     1     -11.371   8.348  72.047  1.00  0.00    -0.411 A  
HETATM   24 CL   UNL     1     -10.134   7.103  74.095  1.00  0.00    -0.300 Cl 
HETATM   25  C   UNL     1     -11.475   8.771  70.718  1.00  0.00    -0.309 A  
ENDBRANCH  17  19
ENDBRANCH  14  17
ENDBRANCH  10  11
ENDBRANCH   4   5
ENDBRANCH   2   4
TORSDOF 5
ENDMDL
MODEL       34
REMARK 921   NORMALIZED FREE ENERGY PREDICTED BY IDOCK:   -5.41 KCAL/MOL
REMARK 922        TOTAL FREE ENERGY PREDICTED BY IDOCK:   -8.04 KCAL/MOL
REMARK 923 INTER-LIGAND FREE ENERGY PREDICTED BY IDOCK:   -7.41 KCAL/MOL
REMARK 924 INTRA-LIGAND FREE ENERGY PREDICTED BY IDOCK:   -0.63 KCAL/MOL
REMARK 927      BINDING AFFINITY PREDICTED BY RF-SCORE:    0.00 PKD
ROOT
HETATM    1  C   UNL     1     -12.093  14.286  64.264  1.00  0.00    -0.467 C  
HETATM    2  C   UNL     1     -12.342  12.825  64.610  1.00  0.00    -0.459 C  
HETATM    3  C   UNL     1     -12.406  11.978  63.345  1.00  0.00    -0.635 C  
ENDROOT
BRANCH   2   4
HETATM    4  O   UNL     1     -11.240  12.336  65.397  1.00  0.00    -0.307 OA 
BRANCH   4   5
HETATM    5  C   UNL     1     -11.356  12.431  66.760  1.00  0.00    -0.335 C  
HETATM    6  O   UNL     1     -12.104  13.212  67.333  1.00  0.00    -0.348 OA 
HETATM    7  C   UNL     1     -10.417  11.403  67.446  1.00  0.00    -0.205 C  
HETATM    8  C   UNL     1     -10.899  10.019  66.959  1.00  0.00    -0.196 C  
HETATM    9  C   UNL     1      -8.986  11.749  67.016  1.00  0.00    -0.186 C  
HETATM   10  O   UNL     1     -10.540  11.625  68.870  1.00  0.00    -0.211 OA 
BRANCH  10  11
HETATM   11  C   UNL     1     -10.337  10.615  69.763  1.00  0.00    -0.100 A  
HETATM   12  C   UNL     1     -11.288  10.116  70.646  1.00  0.00    -0.433 A  
HETATM   13  C   UNL     1     -10.918   9.228  71.654  1.00  0.00    -0.433 A  
HETATM   14  C   UNL     1      -9.599   8.778  71.743  1.00  0.00    -0.371 A  
HETATM   15  C   UNL     1      -8.687   9.127  70.743  1.00  0.00    -0.285 A  
HETATM   16  C   UNL     1      -9.056  10.057  69.764  1.00  0.00    -0.219 A  
BRANCH  14  17
HETATM   17  C   UNL     1      -9.229   7.957  72.920  1.00  0.00    -0.235 C  
HETATM   18  O   UNL     1      -8.498   8.450  73.778  1.00  0.00    -0.305 OA 
BRANCH  17  19
HETATM   19  C   UNL     1      -9.648   6.535  73.064  1.00  0.00    -0.161 A  
HETATM   20  C   UNL     1      -9.584   5.716  71.928  1.00  0.00    -0.176 A  
HETATM   21  C   UNL     1     -10.021   4.390  71.986  1.00  0.00    -0.252 A  
HETATM   22  C   UNL     1     -10.527   3.880  73.179  1.00  0.00    -0.176 A  
HETATM   23  C   UNL     1     -10.600   4.684  74.314  1.00  0.00    -0.328 A  
HETATM   24 CL   UNL     1     -11.089   2.256  73.246  1.00  0.00    -0.278 Cl 
HETATM   25  C   UNL     1     -10.174   6.016  74.255  1.00  0.00    -0.314 A  
ENDBRANCH  17  19
ENDBRANCH  14  17
ENDBRANCH  10  11
ENDBRANCH   4   5
ENDBRANCH   2   4
TORSDOF 5
ENDMDL
MODEL       35
REMARK 921   NORMALIZED FREE ENERGY PREDICTED BY IDOCK:   -5.37 KCAL/MOL
REMARK 922        TOTAL FREE ENERGY PREDICTED BY IDOCK:   -7.99 KCAL/MOL
REMARK 923 INTER-LIGAND FREE ENERGY PREDICTED BY IDOCK:   -7.20 KCAL/MOL
REMARK 924 INTRA-LIGAND FREE ENERGY PREDICTED BY IDOCK:   -0.79 KCAL/MOL
REMARK 927      BINDING AFFINITY PREDICTED BY RF-SCORE:    0.00 PKD
ROOT
HETATM    1  C   UNL     1     -12.159  14.526  64.637  1.00  0.00    -0.486 C  
HETATM    2  C   UNL     1     -12.357  13.132  65.215  1.00  0.00    -0.481 C  
HETATM    3  C   UNL     1     -12.414  12.094  64.101  1.00  0.00    -0.497 C  
ENDROOT
BRANCH   2   4
HETATM    4  O   UNL     1     -11.228  12.805  66.047  1.00  0.00    -0.281 OA 
BRANCH   4   5
HETATM    5  C   UNL     1     -11.456  12.702  67.395  1.00  0.00    -0.337 C  
HETATM    6  O   UNL     1     -12.248  13.402  68.013  1.00  0.00    -0.289 OA 
HETATM    7  C   UNL     1     -10.582  11.571  67.997  1.00  0.00    -0.190 C  
HETATM    8  C   UNL     1     -11.025  10.280  67.275  1.00  0.00    -0.277 C  
HETATM    9  C   UNL     1      -9.118  11.954  67.741  1.00  0.00    -0.180 C  
HETATM   10  O   UNL     1     -10.821  11.584  69.423  1.00  0.00    -0.210 OA 
BRANCH  10  11
HETATM   11  C   UNL     1     -10.696  10.452  70.172  1.00  0.00    -0.233 A  
HETATM   12  C   UNL     1      -9.532   9.705  70.316  1.00  0.00    -0.300 A  
HETATM   13  C   UNL     1      -9.566   8.457  70.934  1.00  0.00    -0.212 A  
HETATM   14  C   UNL     1     -10.760   7.974  71.473  1.00  0.00    -0.274 A  
HETATM   15  C   UNL     1     -11.885   8.803  71.500  1.00  0.00    -0.377 A  
HETATM   16  C   UNL     1     -11.852  10.034  70.835  1.00  0.00    -0.459 A  
BRANCH  14  17
HETATM   17  C   UNL     1     -10.772   6.581  71.981  1.00  0.00    -0.223 C  
HETATM   18  O   UNL     1     -11.143   6.376  73.135  1.00  0.00    -0.240 OA 
BRANCH  17  19
HETATM   19  C   UNL     1     -10.280   5.433  71.169  1.00  0.00    -0.287 A  
HETATM   20  C   UNL     1     -10.288   5.566  69.774  1.00  0.00    -0.366 A  
HETATM   21  C   UNL     1      -9.895   4.502  68.959  1.00  0.00    -0.202 A  
HETATM   22  C   UNL     1      -9.498   3.298  69.537  1.00  0.00    -0.135 A  
HETATM   23  C   UNL     1      -9.490   3.151  70.922  1.00  0.00    -0.230 A  
HETATM   24 CL   UNL     1      -9.040   1.977  68.535  1.00  0.00    -0.181 Cl 
HETATM   25  C   UNL     1      -9.894   4.212  71.740  1.00  0.00    -0.252 A  
ENDBRANCH  17  19
ENDBRANCH  14  17
ENDBRANCH  10  11
ENDBRANCH   4   5
ENDBRANCH   2   4
TORSDOF 5
ENDMDL
MODEL       36
REMARK 921   NORMALIZED FREE ENERGY PREDICTED BY IDOCK:   -5.30 KCAL/MOL
REMARK 922        TOTAL FREE ENERGY PREDICTED BY IDOCK:   -7.90 KCAL/MOL
REMARK 923 INTER-LIGAND FREE ENERGY PREDICTED BY IDOCK:   -8.18 KCAL/MOL
REMARK 924 INTRA-LIGAND FREE ENERGY PREDICTED BY IDOCK:    0.29 KCAL/MOL
REMARK 927      BINDING AFFINITY PREDICTED BY RF-SCORE:    0.00 PKD
ROOT
HETATM    1  C   UNL     1     -10.578  18.757  67.006  1.00  0.00    -0.483 C  
HETATM    2  C   UNL     1      -9.791  17.499  66.668  1.00  0.00    -0.306 C  
HETATM    3  C   UNL     1      -8.577  17.366  67.578  1.00  0.00    -0.221 C  
ENDROOT
BRANCH   2   4
HETATM    4  O   UNL     1     -10.627  16.348  66.899  1.00  0.00    -0.305 OA 
BRANCH   4   5
HETATM    5  C   UNL     1     -10.848  15.990  68.203  1.00  0.00    -0.322 C  
HETATM    6  O   UNL     1     -10.982  16.790  69.121  1.00  0.00    -0.301 OA 
HETATM    7  C   UNL     1     -10.915  14.445  68.327  1.00  0.00    -0.247 C  
HETATM    8  C   UNL     1     -12.104  14.014  67.440  1.00  0.00    -0.384 C  
HETATM    9  C   UNL     1      -9.560  13.901  67.857  1.00  0.00    -0.227 C  
HETATM   10  O   UNL     1     -11.068  14.155  69.735  1.00  0.00    -0.201 OA 
BRANCH  10  11
HETATM   11  C   UNL     1     -11.702  13.024  70.159  1.00  0.00    -0.170 A  
HETATM   12  C   UNL     1     -12.677  12.969  71.149  1.00  0.00    -0.372 A  
HETATM   13  C   UNL     1     -13.109  11.741  71.647  1.00  0.00    -0.443 A  
HETATM   14  C   UNL     1     -12.615  10.553  71.106  1.00  0.00    -0.520 A  
HETATM   15  C   UNL     1     -11.783  10.604  69.984  1.00  0.00    -0.405 A  
HETATM   16  C   UNL     1     -11.318  11.841  69.523  1.00  0.00    -0.317 A  
BRANCH  14  17
HETATM   17  C   UNL     1     -12.992   9.284  71.773  1.00  0.00    -0.396 C  
HETATM   18  O   UNL     1     -14.079   9.216  72.343  1.00  0.00    -0.465 OA 
BRANCH  17  19
HETATM   19  C   UNL     1     -12.070   8.116  71.843  1.00  0.00    -0.368 A  
HETATM   20  C   UNL     1     -11.032   8.156  72.784  1.00  0.00    -0.401 A  
HETATM   21  C   UNL     1     -10.100   7.118  72.856  1.00  0.00    -0.247 A  
HETATM   22  C   UNL     1     -10.201   6.037  71.983  1.00  0.00    -0.194 A  
HETATM   23  C   UNL     1     -11.225   5.986  71.040  1.00  0.00    -0.332 A  
HETATM   24 CL   UNL     1      -9.039   4.770  72.051  1.00  0.00    -0.144 Cl 
HETATM   25  C   UNL     1     -12.152   7.031  70.959  1.00  0.00    -0.413 A  
ENDBRANCH  17  19
ENDBRANCH  14  17
ENDBRANCH  10  11
ENDBRANCH   4   5
ENDBRANCH   2   4
TORSDOF 5
ENDMDL
MODEL       37
REMARK 921   NORMALIZED FREE ENERGY PREDICTED BY IDOCK:   -5.28 KCAL/MOL
REMARK 922        TOTAL FREE ENERGY PREDICTED BY IDOCK:   -7.87 KCAL/MOL
REMARK 923 INTER-LIGAND FREE ENERGY PREDICTED BY IDOCK:   -6.91 KCAL/MOL
REMARK 924 INTRA-LIGAND FREE ENERGY PREDICTED BY IDOCK:   -0.96 KCAL/MOL
REMARK 927      BINDING AFFINITY PREDICTED BY RF-SCORE:    0.00 PKD
ROOT
HETATM    1  C   UNL     1     -10.228  19.760  68.415  1.00  0.00    -0.568 C  
HETATM    2  C   UNL     1     -10.776  18.925  67.267  1.00  0.00    -0.449 C  
HETATM    3  C   UNL     1     -10.618  19.663  65.944  1.00  0.00    -0.566 C  
ENDROOT
BRANCH   2   4
HETATM    4  O   UNL     1     -10.014  17.706  67.170  1.00  0.00    -0.294 OA 
BRANCH   4   5
HETATM    5  C   UNL     1     -10.511  16.607  67.822  1.00  0.00    -0.316 C  
HETATM    6  O   UNL     1     -11.532  16.613  68.497  1.00  0.00    -0.266 OA 
HETATM    7  C   UNL     1      -9.600  15.378  67.562  1.00  0.00    -0.206 C  
HETATM    8  C   UNL     1      -9.633  15.159  66.034  1.00  0.00    -0.365 C  
HETATM    9  C   UNL     1      -8.210  15.729  68.109  1.00  0.00    -0.141 C  
HETATM   10  O   UNL     1     -10.146  14.292  68.346  1.00  0.00    -0.230 OA 
BRANCH  10  11
HETATM   11  C   UNL     1      -9.986  12.994  67.962  1.00  0.00    -0.233 A  
HETATM   12  C   UNL     1      -8.807  12.263  68.063  1.00  0.00    -0.182 A  
HETATM   13  C   UNL     1      -8.696  11.015  67.454  1.00  0.00    -0.132 A  
HETATM   14  C   UNL     1      -9.792  10.458  66.793  1.00  0.00    -0.242 A  
HETATM   15  C   UNL     1     -11.031  11.103  66.855  1.00  0.00    -0.333 A  
HETATM   16  C   UNL     1     -11.119  12.377  67.428  1.00  0.00    -0.320 A  
BRANCH  14  17
HETATM   17  C   UNL     1      -9.574   9.202  66.035  1.00  0.00    -0.272 C  
HETATM   18  O   UNL     1      -9.403   9.268  64.820  1.00  0.00    -0.183 OA 
BRANCH  17  19
HETATM   19  C   UNL     1      -9.633   7.861  66.681  1.00  0.00    -0.293 A  
HETATM   20  C   UNL     1      -8.439   7.137  66.796  1.00  0.00    -0.121 A  
HETATM   21  C   UNL     1      -8.440   5.849  67.338  1.00  0.00    -0.103 A  
HETATM   22  C   UNL     1      -9.638   5.279  67.763  1.00  0.00    -0.133 A  
HETATM   23  C   UNL     1     -10.833   5.986  67.650  1.00  0.00    -0.386 A  
HETATM   24 CL   UNL     1      -9.647   3.684  68.405  1.00  0.00    -0.203 Cl 
HETATM   25  C   UNL     1     -10.835   7.271  67.097  1.00  0.00    -0.378 A  
ENDBRANCH  17  19
ENDBRANCH  14  17
ENDBRANCH  10  11
ENDBRANCH   4   5
ENDBRANCH   2   4
TORSDOF 5
ENDMDL
MODEL       38
REMARK 921   NORMALIZED FREE ENERGY PREDICTED BY IDOCK:   -5.28 KCAL/MOL
REMARK 922        TOTAL FREE ENERGY PREDICTED BY IDOCK:   -7.87 KCAL/MOL
REMARK 923 INTER-LIGAND FREE ENERGY PREDICTED BY IDOCK:   -6.84 KCAL/MOL
REMARK 924 INTRA-LIGAND FREE ENERGY PREDICTED BY IDOCK:   -1.03 KCAL/MOL
REMARK 927      BINDING AFFINITY PREDICTED BY RF-SCORE:    0.00 PKD
ROOT
HETATM    1  C   UNL     1      -8.612   5.881  66.437  1.00  0.00    -0.127 C  
HETATM    2  C   UNL     1      -8.259   7.297  66.868  1.00  0.00    -0.117 C  
HETATM    3  C   UNL     1      -6.790   7.591  66.589  1.00  0.00    -0.066 C  
ENDROOT
BRANCH   2   4
HETATM    4  O   UNL     1      -9.036   8.230  66.093  1.00  0.00    -0.162 OA 
BRANCH   4   5
HETATM    5  C   UNL     1     -10.159   8.749  66.684  1.00  0.00    -0.288 C  
HETATM    6  O   UNL     1     -10.989   8.080  67.286  1.00  0.00    -0.175 OA 
HETATM    7  C   UNL     1     -10.202  10.287  66.485  1.00  0.00    -0.226 C  
HETATM    8  C   UNL     1      -8.931  10.826  67.176  1.00  0.00    -0.145 C  
HETATM    9  C   UNL     1     -10.241  10.540  64.972  1.00  0.00    -0.365 C  
HETATM   10  O   UNL     1     -11.449  10.738  67.063  1.00  0.00    -0.349 OA 
BRANCH  10  11
HETATM   11  C   UNL     1     -11.578  11.997  67.569  1.00  0.00    -0.330 A  
HETATM   12  C   UNL     1     -11.706  13.160  66.818  1.00  0.00    -0.439 A  
HETATM   13  C   UNL     1     -11.623  14.409  67.430  1.00  0.00    -0.398 A  
HETATM   14  C   UNL     1     -11.478  14.502  68.815  1.00  0.00    -0.322 A  
HETATM   15  C   UNL     1     -11.542  13.342  69.591  1.00  0.00    -0.329 A  
HETATM   16  C   UNL     1     -11.577  12.091  68.963  1.00  0.00    -0.370 A  
BRANCH  14  17
HETATM   17  C   UNL     1     -11.243  15.847  69.394  1.00  0.00    -0.336 C  
HETATM   18  O   UNL     1     -11.899  16.190  70.376  1.00  0.00    -0.307 OA 
BRANCH  17  19
HETATM   19  C   UNL     1     -10.298  16.823  68.784  1.00  0.00    -0.318 A  
HETATM   20  C   UNL     1      -8.925  16.583  68.927  1.00  0.00    -0.245 A  
HETATM   21  C   UNL     1      -7.991  17.495  68.428  1.00  0.00    -0.261 A  
HETATM   22  C   UNL     1      -8.427  18.652  67.789  1.00  0.00    -0.275 A  
HETATM   23  C   UNL     1      -9.790  18.906  67.643  1.00  0.00    -0.383 A  
HETATM   24 CL   UNL     1      -7.280  19.789  67.198  1.00  0.00    -0.243 Cl 
HETATM   25  C   UNL     1     -10.726  18.000  68.152  1.00  0.00    -0.267 A  
ENDBRANCH  17  19
ENDBRANCH  14  17
ENDBRANCH  10  11
ENDBRANCH   4   5
ENDBRANCH   2   4
TORSDOF 5
ENDMDL
MODEL       39
REMARK 921   NORMALIZED FREE ENERGY PREDICTED BY IDOCK:   -5.27 KCAL/MOL
REMARK 922        TOTAL FREE ENERGY PREDICTED BY IDOCK:   -7.86 KCAL/MOL
REMARK 923 INTER-LIGAND FREE ENERGY PREDICTED BY IDOCK:   -7.03 KCAL/MOL
REMARK 924 INTRA-LIGAND FREE ENERGY PREDICTED BY IDOCK:   -0.83 KCAL/MOL
REMARK 927      BINDING AFFINITY PREDICTED BY RF-SCORE:    0.00 PKD
ROOT
HETATM    1  C   UNL     1      -8.479   4.576  70.828  1.00  0.00    -0.107 C  
HETATM    2  C   UNL     1      -8.447   4.317  69.329  1.00  0.00    -0.073 C  
HETATM    3  C   UNL     1      -8.925   2.903  69.020  1.00  0.00    -0.179 C  
ENDROOT
BRANCH   2   4
HETATM    4  O   UNL     1      -9.355   5.226  68.677  1.00  0.00    -0.113 OA 
BRANCH   4   5
HETATM    5  C   UNL     1      -8.882   6.482  68.395  1.00  0.00    -0.123 C  
HETATM    6  O   UNL     1      -7.703   6.744  68.199  1.00  0.00    -0.105 OA 
HETATM    7  C   UNL     1     -10.057   7.494  68.349  1.00  0.00    -0.180 C  
HETATM    8  C   UNL     1     -10.982   6.998  67.217  1.00  0.00    -0.372 C  
HETATM    9  C   UNL     1     -10.713   7.480  69.737  1.00  0.00    -0.249 C  
HETATM   10  O   UNL     1      -9.467   8.796  68.129  1.00  0.00    -0.139 OA 
BRANCH  10  11
HETATM   11  C   UNL     1     -10.157   9.786  67.494  1.00  0.00    -0.197 A  
HETATM   12  C   UNL     1     -10.002  10.150  66.161  1.00  0.00    -0.310 A  
HETATM   13  C   UNL     1     -10.605  11.306  65.670  1.00  0.00    -0.303 A  
HETATM   14  C   UNL     1     -11.426  12.074  66.498  1.00  0.00    -0.413 A  
HETATM   15  C   UNL     1     -11.737  11.608  67.778  1.00  0.00    -0.315 A  
HETATM   16  C   UNL     1     -11.089  10.471  68.277  1.00  0.00    -0.340 A  
BRANCH  14  17
HETATM   17  C   UNL     1     -11.916  13.370  65.971  1.00  0.00    -0.415 C  
HETATM   18  O   UNL     1     -12.806  13.363  65.122  1.00  0.00    -0.675 OA 
BRANCH  17  19
HETATM   19  C   UNL     1     -11.318  14.672  66.375  1.00  0.00    -0.348 A  
HETATM   20  C   UNL     1     -11.494  15.090  67.701  1.00  0.00    -0.344 A  
HETATM   21  C   UNL     1     -11.008  16.330  68.124  1.00  0.00    -0.343 A  
HETATM   22  C   UNL     1     -10.349  17.159  67.220  1.00  0.00    -0.320 A  
HETATM   23  C   UNL     1     -10.171  16.758  65.897  1.00  0.00    -0.345 A  
HETATM   24 CL   UNL     1      -9.773  18.697  67.730  1.00  0.00    -0.328 Cl 
HETATM   25  C   UNL     1     -10.667  15.522  65.470  1.00  0.00    -0.395 A  
ENDBRANCH  17  19
ENDBRANCH  14  17
ENDBRANCH  10  11
ENDBRANCH   4   5
ENDBRANCH   2   4
TORSDOF 5
ENDMDL
MODEL       40
REMARK 921   NORMALIZED FREE ENERGY PREDICTED BY IDOCK:   -5.26 KCAL/MOL
REMARK 922        TOTAL FREE ENERGY PREDICTED BY IDOCK:   -7.85 KCAL/MOL
REMARK 923 INTER-LIGAND FREE ENERGY PREDICTED BY IDOCK:   -6.82 KCAL/MOL
REMARK 924 INTRA-LIGAND FREE ENERGY PREDICTED BY IDOCK:   -1.03 KCAL/MOL
REMARK 927      BINDING AFFINITY PREDICTED BY RF-SCORE:    0.00 PKD
ROOT
HETATM    1  C   UNL     1      -7.577   3.679  65.580  1.00  0.00    -0.078 C  
HETATM    2  C   UNL     1      -8.586   4.787  65.318  1.00  0.00    -0.137 C  
HETATM    3  C   UNL     1      -9.940   4.432  65.920  1.00  0.00    -0.255 C  
ENDROOT
BRANCH   2   4
HETATM    4  O   UNL     1      -8.134   5.994  65.961  1.00  0.00    -0.105 OA 
BRANCH   4   5
HETATM    5  C   UNL     1      -8.148   7.142  65.213  1.00  0.00    -0.134 C  
HETATM    6  O   UNL     1      -7.967   7.175  64.003  1.00  0.00    -0.128 OA 
HETATM    7  C   UNL     1      -8.438   8.366  66.122  1.00  0.00    -0.131 C  
HETATM    8  C   UNL     1      -9.832   8.103  66.732  1.00  0.00    -0.329 C  
HETATM    9  C   UNL     1      -7.308   8.429  67.159  1.00  0.00    -0.085 C  
HETATM   10  O   UNL     1      -8.354   9.534  65.273  1.00  0.00    -0.126 OA 
BRANCH  10  11
HETATM   11  C   UNL     1      -9.065  10.663  65.553  1.00  0.00    -0.190 A  
HETATM   12  C   UNL     1      -8.754  11.588  66.543  1.00  0.00    -0.183 A  
HETATM   13  C   UNL     1      -9.658  12.593  66.880  1.00  0.00    -0.232 A  
HETATM   14  C   UNL     1     -10.858  12.720  66.178  1.00  0.00    -0.303 A  
HETATM   15  C   UNL     1     -11.087  11.914  65.059  1.00  0.00    -0.360 A  
HETATM   16  C   UNL     1     -10.195  10.878  64.760  1.00  0.00    -0.398 A  
BRANCH  14  17
HETATM   17  C   UNL     1     -11.847  13.706  66.677  1.00  0.00    -0.409 C  
HETATM   18  O   UNL     1     -12.730  14.094  65.914  1.00  0.00    -0.487 OA 
BRANCH  17  19
HETATM   19  C   UNL     1     -11.762  14.300  68.040  1.00  0.00    -0.386 A  
HETATM   20  C   UNL     1     -12.156  13.506  69.126  1.00  0.00    -0.331 A  
HETATM   21  C   UNL     1     -12.156  14.028  70.421  1.00  0.00    -0.426 A  
HETATM   22  C   UNL     1     -11.765  15.348  70.636  1.00  0.00    -0.339 A  
HETATM   23  C   UNL     1     -11.376  16.150  69.565  1.00  0.00    -0.321 A  
HETATM   24 CL   UNL     1     -11.790  16.001  72.226  1.00  0.00    -0.589 Cl 
HETATM   25  C   UNL     1     -11.387  15.632  68.265  1.00  0.00    -0.357 A  
ENDBRANCH  17  19
ENDBRANCH  14  17
ENDBRANCH  10  11
ENDBRANCH   4   5
ENDBRANCH   2   4
TORSDOF 5
ENDMDL
MODEL       41
REMARK 921   NORMALIZED FREE ENERGY PREDICTED BY IDOCK:   -5.25 KCAL/MOL
REMARK 922        TOTAL FREE ENERGY PREDICTED BY IDOCK:   -7.84 KCAL/MOL
REMARK 923 INTER-LIGAND FREE ENERGY PREDICTED BY IDOCK:   -7.66 KCAL/MOL
REMARK 924 INTRA-LIGAND FREE ENERGY PREDICTED BY IDOCK:   -0.19 KCAL/MOL
REMARK 927      BINDING AFFINITY PREDICTED BY RF-SCORE:    0.00 PKD
ROOT
HETATM    1  C   UNL     1      -6.548  20.369  64.975  1.00  0.00    -0.335 C  
HETATM    2  C   UNL     1      -7.245  19.900  66.244  1.00  0.00    -0.276 C  
HETATM    3  C   UNL     1      -7.394  21.052  67.230  1.00  0.00    -0.320 C  
ENDROOT
BRANCH   2   4
HETATM    4  O   UNL     1      -8.572  19.450  65.910  1.00  0.00    -0.429 OA 
BRANCH   4   5
HETATM    5  C   UNL     1      -9.342  18.963  66.935  1.00  0.00    -0.309 C  
HETATM    6  O   UNL     1     -10.170  19.625  67.546  1.00  0.00    -0.377 OA 
HETATM    7  C   UNL     1      -9.013  17.467  67.181  1.00  0.00    -0.240 C  
HETATM    8  C   UNL     1      -9.358  16.748  65.859  1.00  0.00    -0.162 C  
HETATM    9  C   UNL     1      -7.528  17.392  67.559  1.00  0.00    -0.197 C  
HETATM   10  O   UNL     1      -9.803  17.058  68.322  1.00  0.00    -0.256 OA 
BRANCH  10  11
HETATM   11  C   UNL     1     -10.205  15.764  68.475  1.00  0.00    -0.216 A  
HETATM   12  C   UNL     1      -9.399  14.713  68.899  1.00  0.00    -0.160 A  
HETATM   13  C   UNL     1      -9.854  13.399  68.823  1.00  0.00    -0.030 A  
HETATM   14  C   UNL     1     -11.152  13.131  68.384  1.00  0.00    -0.298 A  
HETATM   15  C   UNL     1     -12.027  14.194  68.141  1.00  0.00    -0.367 A  
HETATM   16  C   UNL     1     -11.545  15.507  68.174  1.00  0.00    -0.313 A  
BRANCH  14  17
HETATM   17  C   UNL     1     -11.530  11.712  68.179  1.00  0.00    -0.313 C  
HETATM   18  O   UNL     1     -11.992  11.376  67.090  1.00  0.00    -0.532 OA 
BRANCH  17  19
HETATM   19  C   UNL     1     -11.444  10.699  69.267  1.00  0.00    -0.351 A  
HETATM   20  C   UNL     1     -12.309  10.838  70.361  1.00  0.00    -0.438 A  
HETATM   21  C   UNL     1     -12.234   9.954  71.440  1.00  0.00    -0.499 A  
HETATM   22  C   UNL     1     -11.289   8.930  71.431  1.00  0.00    -0.309 A  
HETATM   23  C   UNL     1     -10.420   8.784  70.352  1.00  0.00    -0.240 A  
HETATM   24 CL   UNL     1     -11.177   7.857  72.770  1.00  0.00    -0.457 Cl 
HETATM   25  C   UNL     1     -10.486   9.675  69.276  1.00  0.00    -0.232 A  
ENDBRANCH  17  19
ENDBRANCH  14  17
ENDBRANCH  10  11
ENDBRANCH   4   5
ENDBRANCH   2   4
TORSDOF 5
ENDMDL
MODEL       42
REMARK 921   NORMALIZED FREE ENERGY PREDICTED BY IDOCK:   -5.19 KCAL/MOL
REMARK 922        TOTAL FREE ENERGY PREDICTED BY IDOCK:   -7.76 KCAL/MOL
REMARK 923 INTER-LIGAND FREE ENERGY PREDICTED BY IDOCK:   -7.00 KCAL/MOL
REMARK 924 INTRA-LIGAND FREE ENERGY PREDICTED BY IDOCK:   -0.76 KCAL/MOL
REMARK 927      BINDING AFFINITY PREDICTED BY RF-SCORE:    0.00 PKD
ROOT
HETATM    1  C   UNL     1     -11.844   8.001  72.045  1.00  0.00    -0.376 C  
HETATM    2  C   UNL     1     -10.768   8.981  71.603  1.00  0.00    -0.371 C  
HETATM    3  C   UNL     1      -9.423   8.277  71.472  1.00  0.00    -0.244 C  
ENDROOT
BRANCH   2   4
HETATM    4  O   UNL     1     -11.109   9.496  70.302  1.00  0.00    -0.245 OA 
BRANCH   4   5
HETATM    5  C   UNL     1     -11.620  10.767  70.249  1.00  0.00    -0.338 C  
HETATM    6  O   UNL     1     -12.325  11.261  71.120  1.00  0.00    -0.361 OA 
HETATM    7  C   UNL     1     -11.162  11.471  68.944  1.00  0.00    -0.247 C  
HETATM    8  C   UNL     1      -9.620  11.512  69.020  1.00  0.00     0.045 C  
HETATM    9  C   UNL     1     -11.703  10.638  67.774  1.00  0.00     0.144 C  
HETATM   10  O   UNL     1     -11.807  12.765  68.930  1.00  0.00    -0.305 OA 
BRANCH  10  11
HETATM   11  C   UNL     1     -11.242  13.828  68.290  1.00  0.00    -0.273 A  
HETATM   12  C   UNL     1     -10.446  14.799  68.888  1.00  0.00    -0.249 A  
HETATM   13  C   UNL     1     -10.092  15.951  68.188  1.00  0.00    -0.229 A  
HETATM   14  C   UNL     1     -10.479  16.108  66.856  1.00  0.00    -0.300 A  
HETATM   15  C   UNL     1     -11.113  15.052  66.196  1.00  0.00    -0.329 A  
HETATM   16  C   UNL     1     -11.505  13.920  66.921  1.00  0.00    -0.370 A  
BRANCH  14  17
HETATM   17  C   UNL     1     -10.207  17.415  66.210  1.00  0.00    -0.341 C  
HETATM   18  O   UNL     1     -10.897  17.755  65.251  1.00  0.00    -0.599 OA 
BRANCH  17  19
HETATM   19  C   UNL     1      -9.081  18.293  66.631  1.00  0.00    -0.294 A  
HETATM   20  C   UNL     1      -7.782  17.772  66.562  1.00  0.00    -0.298 A  
HETATM   21  C   UNL     1      -6.691  18.526  67.001  1.00  0.00    -0.207 A  
HETATM   22  C   UNL     1      -6.896  19.805  67.514  1.00  0.00    -0.222 A  
HETATM   23  C   UNL     1      -8.182  20.334  67.593  1.00  0.00    -0.321 A  
HETATM   24 CL   UNL     1      -5.558  20.725  68.079  1.00  0.00    -0.284 Cl 
HETATM   25  C   UNL     1      -9.277  19.575  67.165  1.00  0.00    -0.390 A  
ENDBRANCH  17  19
ENDBRANCH  14  17
ENDBRANCH  10  11
ENDBRANCH   4   5
ENDBRANCH   2   4
TORSDOF 5
ENDMDL
MODEL       43
REMARK 921   NORMALIZED FREE ENERGY PREDICTED BY IDOCK:   -5.17 KCAL/MOL
REMARK 922        TOTAL FREE ENERGY PREDICTED BY IDOCK:   -7.73 KCAL/MOL
REMARK 923 INTER-LIGAND FREE ENERGY PREDICTED BY IDOCK:   -6.92 KCAL/MOL
REMARK 924 INTRA-LIGAND FREE ENERGY PREDICTED BY IDOCK:   -0.81 KCAL/MOL
REMARK 927      BINDING AFFINITY PREDICTED BY RF-SCORE:    0.00 PKD
ROOT
HETATM    1  C   UNL     1      -7.714   4.136  64.579  1.00  0.00    -0.080 C  
HETATM    2  C   UNL     1      -8.843   5.118  64.856  1.00  0.00    -0.118 C  
HETATM    3  C   UNL     1     -10.059   4.393  65.416  1.00  0.00    -0.238 C  
ENDROOT
BRANCH   2   4
HETATM    4  O   UNL     1      -8.409   6.060  65.856  1.00  0.00    -0.125 OA 
BRANCH   4   5
HETATM    5  C   UNL     1      -8.411   7.386  65.507  1.00  0.00    -0.118 C  
HETATM    6  O   UNL     1      -8.045   7.810  64.418  1.00  0.00    -0.138 OA 
HETATM    7  C   UNL     1      -8.953   8.244  66.680  1.00  0.00    -0.150 C  
HETATM    8  C   UNL     1     -10.395   7.747  66.920  1.00  0.00    -0.396 C  
HETATM    9  C   UNL     1      -8.012   8.016  67.871  1.00  0.00    -0.128 C  
HETATM   10  O   UNL     1      -8.845   9.624  66.261  1.00  0.00    -0.145 OA 
BRANCH  10  11
HETATM   11  C   UNL     1      -9.694  10.576  66.742  1.00  0.00    -0.179 A  
HETATM   12  C   UNL     1     -10.780  11.109  66.056  1.00  0.00    -0.272 A  
HETATM   13  C   UNL     1     -11.455  12.220  66.556  1.00  0.00    -0.438 A  
HETATM   14  C   UNL     1     -11.088  12.767  67.787  1.00  0.00    -0.289 A  
HETATM   15  C   UNL     1     -10.126  12.119  68.567  1.00  0.00    -0.192 A  
HETATM   16  C   UNL     1      -9.422  11.033  68.033  1.00  0.00    -0.169 A  
BRANCH  14  17
HETATM   17  C   UNL     1     -11.736  14.036  68.198  1.00  0.00    -0.352 C  
HETATM   18  O   UNL     1     -12.124  14.811  67.325  1.00  0.00    -0.307 OA 
BRANCH  17  19
HETATM   19  C   UNL     1     -11.865  14.440  69.626  1.00  0.00    -0.372 A  
HETATM   20  C   UNL     1     -12.597  13.603  70.479  1.00  0.00    -0.337 A  
HETATM   21  C   UNL     1     -12.804  13.959  71.814  1.00  0.00    -0.421 A  
HETATM   22  C   UNL     1     -12.282  15.156  72.299  1.00  0.00    -0.376 A  
HETATM   23  C   UNL     1     -11.556  15.999  71.461  1.00  0.00    -0.529 A  
HETATM   24 CL   UNL     1     -12.558  15.609  73.935  1.00  0.00    -0.701 Cl 
HETATM   25  C   UNL     1     -11.359  15.650  70.121  1.00  0.00    -0.354 A  
ENDBRANCH  17  19
ENDBRANCH  14  17
ENDBRANCH  10  11
ENDBRANCH   4   5
ENDBRANCH   2   4
TORSDOF 5
ENDMDL
MODEL       44
REMARK 921   NORMALIZED FREE ENERGY PREDICTED BY IDOCK:   -5.13 KCAL/MOL
REMARK 922        TOTAL FREE ENERGY PREDICTED BY IDOCK:   -7.68 KCAL/MOL
REMARK 923 INTER-LIGAND FREE ENERGY PREDICTED BY IDOCK:   -6.71 KCAL/MOL
REMARK 924 INTRA-LIGAND FREE ENERGY PREDICTED BY IDOCK:   -0.97 KCAL/MOL
REMARK 927      BINDING AFFINITY PREDICTED BY RF-SCORE:    0.00 PKD
ROOT
HETATM    1  C   UNL     1     -10.607  19.518  67.410  1.00  0.00    -0.607 C  
HETATM    2  C   UNL     1      -9.859  18.356  66.774  1.00  0.00    -0.342 C  
HETATM    3  C   UNL     1      -8.406  18.734  66.512  1.00  0.00    -0.307 C  
ENDROOT
BRANCH   2   4
HETATM    4  O   UNL     1      -9.853  17.245  67.691  1.00  0.00    -0.266 OA 
BRANCH   4   5
HETATM    5  C   UNL     1     -10.429  16.078  67.260  1.00  0.00    -0.308 C  
HETATM    6  O   UNL     1     -10.627  15.803  66.084  1.00  0.00    -0.304 OA 
HETATM    7  C   UNL     1     -10.771  15.175  68.474  1.00  0.00    -0.240 C  
HETATM    8  C   UNL     1      -9.421  14.886  69.164  1.00  0.00    -0.158 C  
HETATM    9  C   UNL     1     -11.760  15.957  69.348  1.00  0.00    -0.350 C  
HETATM   10  O   UNL     1     -11.444  14.011  67.941  1.00  0.00    -0.282 OA 
BRANCH  10  11
HETATM   11  C   UNL     1     -11.386  12.807  68.578  1.00  0.00    -0.291 A  
HETATM   12  C   UNL     1     -11.958  12.519  69.813  1.00  0.00    -0.359 A  
HETATM   13  C   UNL     1     -11.664  11.324  70.465  1.00  0.00    -0.345 A  
HETATM   14  C   UNL     1     -10.845  10.374  69.852  1.00  0.00    -0.353 A  
HETATM   15  C   UNL     1     -10.426  10.577  68.534  1.00  0.00    -0.210 A  
HETATM   16  C   UNL     1     -10.687  11.801  67.907  1.00  0.00    -0.241 A  
BRANCH  14  17
HETATM   17  C   UNL     1     -10.443   9.192  70.653  1.00  0.00    -0.245 C  
HETATM   18  O   UNL     1     -10.476   9.271  71.879  1.00  0.00    -0.305 OA 
BRANCH  17  19
HETATM   19  C   UNL     1      -9.930   7.943  70.026  1.00  0.00    -0.191 A  
HETATM   20  C   UNL     1     -10.826   7.170  69.275  1.00  0.00    -0.204 A  
HETATM   21  C   UNL     1     -10.418   5.958  68.714  1.00  0.00    -0.314 A  
HETATM   22  C   UNL     1      -9.113   5.511  68.906  1.00  0.00    -0.118 A  
HETATM   23  C   UNL     1      -8.213   6.267  69.654  1.00  0.00    -0.124 A  
HETATM   24 CL   UNL     1      -8.616   4.006  68.239  1.00  0.00    -0.106 Cl 
HETATM   25  C   UNL     1      -8.623   7.476  70.226  1.00  0.00    -0.144 A  
ENDBRANCH  17  19
ENDBRANCH  14  17
ENDBRANCH  10  11
ENDBRANCH   4   5
ENDBRANCH   2   4
TORSDOF 5
ENDMDL
MODEL       45
REMARK 921   NORMALIZED FREE ENERGY PREDICTED BY IDOCK:   -5.10 KCAL/MOL
REMARK 922        TOTAL FREE ENERGY PREDICTED BY IDOCK:   -7.64 KCAL/MOL
REMARK 923 INTER-LIGAND FREE ENERGY PREDICTED BY IDOCK:   -6.60 KCAL/MOL
REMARK 924 INTRA-LIGAND FREE ENERGY PREDICTED BY IDOCK:   -1.04 KCAL/MOL
REMARK 927      BINDING AFFINITY PREDICTED BY RF-SCORE:    0.00 PKD
ROOT
HETATM    1  C   UNL     1      -9.168   5.547  69.781  1.00  0.00    -0.168 C  
HETATM    2  C   UNL     1      -9.026   6.581  70.888  1.00  0.00    -0.147 C  
HETATM    3  C   UNL     1      -7.759   6.330  71.697  1.00  0.00    -0.100 C  
ENDROOT
BRANCH   2   4
HETATM    4  O   UNL     1      -8.901   7.888  70.294  1.00  0.00    -0.138 OA 
BRANCH   4   5
HETATM    5  C   UNL     1     -10.050   8.475  69.832  1.00  0.00    -0.195 C  
HETATM    6  O   UNL     1     -11.148   8.341  70.356  1.00  0.00    -0.249 OA 
HETATM    7  C   UNL     1      -9.742   9.330  68.574  1.00  0.00    -0.150 C  
HETATM    8  C   UNL     1      -8.739  10.405  69.045  1.00  0.00    -0.170 C  
HETATM    9  C   UNL     1      -9.177   8.375  67.514  1.00  0.00    -0.158 C  
HETATM   10  O   UNL     1     -11.011   9.842  68.107  1.00  0.00    -0.251 OA 
BRANCH  10  11
HETATM   11  C   UNL     1     -11.089  11.019  67.424  1.00  0.00    -0.305 A  
HETATM   12  C   UNL     1     -10.556  11.257  66.162  1.00  0.00    -0.312 A  
HETATM   13  C   UNL     1     -10.513  12.549  65.645  1.00  0.00    -0.299 A  
HETATM   14  C   UNL     1     -11.068  13.610  66.363  1.00  0.00    -0.307 A  
HETATM   15  C   UNL     1     -11.773  13.346  67.541  1.00  0.00    -0.406 A  
HETATM   16  C   UNL     1     -11.769  12.052  68.074  1.00  0.00    -0.398 A  
BRANCH  14  17
HETATM   17  C   UNL     1     -10.859  14.981  65.838  1.00  0.00    -0.337 C  
HETATM   18  O   UNL     1     -11.334  15.272  64.743  1.00  0.00    -0.409 OA 
BRANCH  17  19
HETATM   19  C   UNL     1     -10.031  15.991  66.554  1.00  0.00    -0.293 A  
HETATM   20  C   UNL     1     -10.686  16.887  67.410  1.00  0.00    -0.241 A  
HETATM   21  C   UNL     1      -9.971  17.895  68.061  1.00  0.00    -0.333 A  
HETATM   22  C   UNL     1      -8.598  18.013  67.856  1.00  0.00    -0.257 A  
HETATM   23  C   UNL     1      -7.935  17.132  67.004  1.00  0.00    -0.230 A  
HETATM   24 CL   UNL     1      -7.720  19.269  68.636  1.00  0.00    -0.383 Cl 
HETATM   25  C   UNL     1      -8.652  16.129  66.342  1.00  0.00    -0.365 A  
ENDBRANCH  17  19
ENDBRANCH  14  17
ENDBRANCH  10  11
ENDBRANCH   4   5
ENDBRANCH   2   4
TORSDOF 5
ENDMDL
MODEL       46
REMARK 921   NORMALIZED FREE ENERGY PREDICTED BY IDOCK:   -5.05 KCAL/MOL
REMARK 922        TOTAL FREE ENERGY PREDICTED BY IDOCK:   -7.58 KCAL/MOL
REMARK 923 INTER-LIGAND FREE ENERGY PREDICTED BY IDOCK:   -6.58 KCAL/MOL
REMARK 924 INTRA-LIGAND FREE ENERGY PREDICTED BY IDOCK:   -0.99 KCAL/MOL
REMARK 927      BINDING AFFINITY PREDICTED BY RF-SCORE:    0.00 PKD
ROOT
HETATM    1  C   UNL     1      -7.475   3.378  67.075  1.00  0.00    -0.075 C  
HETATM    2  C   UNL     1      -8.189   4.046  65.909  1.00  0.00    -0.108 C  
HETATM    3  C   UNL     1      -9.387   3.215  65.467  1.00  0.00    -0.117 C  
ENDROOT
BRANCH   2   4
HETATM    4  O   UNL     1      -8.692   5.325  66.339  1.00  0.00    -0.115 OA 
BRANCH   4   5
HETATM    5  C   UNL     1      -8.488   6.390  65.500  1.00  0.00    -0.139 C  
HETATM    6  O   UNL     1      -8.127   6.286  64.334  1.00  0.00    -0.124 OA 
HETATM    7  C   UNL     1      -8.793   7.718  66.241  1.00  0.00    -0.160 C  
HETATM    8  C   UNL     1     -10.280   7.629  66.647  1.00  0.00    -0.272 C  
HETATM    9  C   UNL     1      -7.828   7.796  67.432  1.00  0.00    -0.118 C  
HETATM   10  O   UNL     1      -8.475   8.784  65.317  1.00  0.00    -0.155 OA 
BRANCH  10  11
HETATM   11  C   UNL     1      -9.112   9.988  65.382  1.00  0.00    -0.193 A  
HETATM   12  C   UNL     1      -9.041  10.882  66.445  1.00  0.00    -0.188 A  
HETATM   13  C   UNL     1      -9.890  11.985  66.499  1.00  0.00    -0.225 A  
HETATM   14  C   UNL     1     -10.775  12.239  65.449  1.00  0.00    -0.320 A  
HETATM   15  C   UNL     1     -10.714  11.454  64.294  1.00  0.00    -0.420 A  
HETATM   16  C   UNL     1      -9.891  10.321  64.272  1.00  0.00    -0.357 A  
BRANCH  14  17
HETATM   17  C   UNL     1     -11.758  13.334  65.627  1.00  0.00    -0.356 C  
HETATM   18  O   UNL     1     -12.837  13.260  65.043  1.00  0.00    -0.686 OA 
BRANCH  17  19
HETATM   19  C   UNL     1     -11.455  14.555  66.425  1.00  0.00    -0.362 A  
HETATM   20  C   UNL     1     -10.641  15.534  65.840  1.00  0.00    -0.350 A  
HETATM   21  C   UNL     1     -10.272  16.672  66.561  1.00  0.00    -0.314 A  
HETATM   22  C   UNL     1     -10.714  16.834  67.872  1.00  0.00    -0.347 A  
HETATM   23  C   UNL     1     -11.521  15.866  68.467  1.00  0.00    -0.377 A  
HETATM   24 CL   UNL     1     -10.240  18.221  68.771  1.00  0.00    -0.384 Cl 
HETATM   25  C   UNL     1     -11.881  14.720  67.751  1.00  0.00    -0.322 A  
ENDBRANCH  17  19
ENDBRANCH  14  17
ENDBRANCH  10  11
ENDBRANCH   4   5
ENDBRANCH   2   4
TORSDOF 5
ENDMDL
MODEL       47
REMARK 921   NORMALIZED FREE ENERGY PREDICTED BY IDOCK:   -5.03 KCAL/MOL
REMARK 922        TOTAL FREE ENERGY PREDICTED BY IDOCK:   -7.56 KCAL/MOL
REMARK 923 INTER-LIGAND FREE ENERGY PREDICTED BY IDOCK:   -7.35 KCAL/MOL
REMARK 924 INTRA-LIGAND FREE ENERGY PREDICTED BY IDOCK:   -0.20 KCAL/MOL
REMARK 927      BINDING AFFINITY PREDICTED BY RF-SCORE:    0.00 PKD
ROOT
HETATM    1  C   UNL     1     -10.152  19.473  68.427  1.00  0.00    -0.546 C  
HETATM    2  C   UNL     1     -10.542  19.025  67.026  1.00  0.00    -0.461 C  
HETATM    3  C   UNL     1     -10.149  20.078  65.997  1.00  0.00    -0.559 C  
ENDROOT
BRANCH   2   4
HETATM    4  O   UNL     1      -9.822  17.821  66.702  1.00  0.00    -0.292 OA 
BRANCH   4   5
HETATM    5  C   UNL     1     -10.505  16.851  66.013  1.00  0.00    -0.290 C  
HETATM    6  O   UNL     1     -10.917  16.984  64.868  1.00  0.00    -0.678 OA 
HETATM    7  C   UNL     1     -10.657  15.583  66.893  1.00  0.00    -0.307 C  
HETATM    8  C   UNL     1      -9.216  15.116  67.193  1.00  0.00    -0.226 C  
HETATM    9  C   UNL     1     -11.448  15.996  68.141  1.00  0.00    -0.250 C  
HETATM   10  O   UNL     1     -11.453  14.648  66.128  1.00  0.00    -0.346 OA 
BRANCH  10  11
HETATM   11  C   UNL     1     -11.324  13.302  66.301  1.00  0.00    -0.309 A  
HETATM   12  C   UNL     1     -11.630  12.606  67.465  1.00  0.00    -0.418 A  
HETATM   13  C   UNL     1     -11.267  11.268  67.604  1.00  0.00    -0.357 A  
HETATM   14  C   UNL     1     -10.652  10.596  66.546  1.00  0.00    -0.257 A  
HETATM   15  C   UNL     1     -10.518  11.237  65.311  1.00  0.00    -0.341 A  
HETATM   16  C   UNL     1     -10.842  12.594  65.198  1.00  0.00    -0.321 A  
BRANCH  14  17
HETATM   17  C   UNL     1     -10.152   9.223  66.800  1.00  0.00    -0.261 C  
HETATM   18  O   UNL     1     -10.517   8.641  67.820  1.00  0.00    -0.235 OA 
BRANCH  17  19
HETATM   19  C   UNL     1      -9.166   8.556  65.906  1.00  0.00    -0.245 A  
HETATM   20  C   UNL     1      -8.936   7.186  66.090  1.00  0.00    -0.168 A  
HETATM   21  C   UNL     1      -7.979   6.519  65.323  1.00  0.00    -0.119 A  
HETATM   22  C   UNL     1      -7.244   7.220  64.370  1.00  0.00    -0.074 A  
HETATM   23  C   UNL     1      -7.458   8.583  64.179  1.00  0.00    -0.112 A  
HETATM   24 CL   UNL     1      -6.046   6.407  63.443  1.00  0.00    -0.022 Cl 
HETATM   25  C   UNL     1      -8.409   9.256  64.955  1.00  0.00    -0.160 A  
ENDBRANCH  17  19
ENDBRANCH  14  17
ENDBRANCH  10  11
ENDBRANCH   4   5
ENDBRANCH   2   4
TORSDOF 5
ENDMDL
MODEL       48
REMARK 921   NORMALIZED FREE ENERGY PREDICTED BY IDOCK:   -5.03 KCAL/MOL
REMARK 922        TOTAL FREE ENERGY PREDICTED BY IDOCK:   -7.55 KCAL/MOL
REMARK 923 INTER-LIGAND FREE ENERGY PREDICTED BY IDOCK:   -6.96 KCAL/MOL
REMARK 924 INTRA-LIGAND FREE ENERGY PREDICTED BY IDOCK:   -0.59 KCAL/MOL
REMARK 927      BINDING AFFINITY PREDICTED BY RF-SCORE:    0.00 PKD
ROOT
HETATM    1  C   UNL     1     -13.014   9.858  71.000  1.00  0.00    -0.412 C  
HETATM    2  C   UNL     1     -11.761  10.511  70.434  1.00  0.00    -0.344 C  
HETATM    3  C   UNL     1     -10.946   9.503  69.633  1.00  0.00    -0.233 C  
ENDROOT
BRANCH   2   4
HETATM    4  O   UNL     1     -12.149  11.562  69.529  1.00  0.00    -0.308 OA 
BRANCH   4   5
HETATM    5  C   UNL     1     -11.975  12.852  69.960  1.00  0.00    -0.309 C  
HETATM    6  O   UNL     1     -12.339  13.266  71.053  1.00  0.00    -0.362 OA 
HETATM    7  C   UNL     1     -11.245  13.682  68.872  1.00  0.00    -0.270 C  
HETATM    8  C   UNL     1      -9.879  12.990  68.675  1.00  0.00    -0.075 C  
HETATM    9  C   UNL     1     -12.136  13.662  67.623  1.00  0.00    -0.328 C  
HETATM   10  O   UNL     1     -11.176  15.038  69.370  1.00  0.00    -0.254 OA 
BRANCH  10  11
HETATM   11  C   UNL     1     -10.170  15.878  68.994  1.00  0.00    -0.227 A  
HETATM   12  C   UNL     1      -8.822  15.706  69.287  1.00  0.00    -0.264 A  
HETATM   13  C   UNL     1      -7.908  16.726  69.033  1.00  0.00    -0.201 A  
HETATM   14  C   UNL     1      -8.328  17.907  68.420  1.00  0.00    -0.307 A  
HETATM   15  C   UNL     1      -9.641  18.007  67.951  1.00  0.00    -0.284 A  
HETATM   16  C   UNL     1     -10.562  16.996  68.253  1.00  0.00    -0.372 A  
BRANCH  14  17
HETATM   17  C   UNL     1      -7.348  19.015  68.314  1.00  0.00    -0.284 C  
HETATM   18  O   UNL     1      -7.057  19.645  69.328  1.00  0.00    -0.358 OA 
BRANCH  17  19
HETATM   19  C   UNL     1      -6.764  19.439  67.011  1.00  0.00    -0.203 A  
HETATM   20  C   UNL     1      -6.425  20.790  66.855  1.00  0.00    -0.343 A  
HETATM   21  C   UNL     1      -5.930  21.260  65.637  1.00  0.00    -0.192 A  
HETATM   22  C   UNL     1      -5.775  20.381  64.567  1.00  0.00    -0.230 A  
HETATM   23  C   UNL     1      -6.112  19.036  64.707  1.00  0.00    -0.289 A  
HETATM   24 CL   UNL     1      -5.191  20.961  63.058  1.00  0.00    -0.216 Cl 
HETATM   25  C   UNL     1      -6.620  18.567  65.924  1.00  0.00    -0.299 A  
ENDBRANCH  17  19
ENDBRANCH  14  17
ENDBRANCH  10  11
ENDBRANCH   4   5
ENDBRANCH   2   4
TORSDOF 5
ENDMDL
MODEL       49
REMARK 921   NORMALIZED FREE ENERGY PREDICTED BY IDOCK:   -5.00 KCAL/MOL
REMARK 922        TOTAL FREE ENERGY PREDICTED BY IDOCK:   -7.52 KCAL/MOL
REMARK 923 INTER-LIGAND FREE ENERGY PREDICTED BY IDOCK:   -6.63 KCAL/MOL
REMARK 924 INTRA-LIGAND FREE ENERGY PREDICTED BY IDOCK:   -0.88 KCAL/MOL
REMARK 927      BINDING AFFINITY PREDICTED BY RF-SCORE:    0.00 PKD
ROOT
HETATM    1  C   UNL     1      -6.565   6.179  72.280  1.00  0.00    -0.063 C  
HETATM    2  C   UNL     1      -7.106   7.564  72.600  1.00  0.00    -0.071 C  
HETATM    3  C   UNL     1      -6.009   8.445  73.186  1.00  0.00    -0.082 C  
ENDROOT
BRANCH   2   4
HETATM    4  O   UNL     1      -7.547   8.188  71.379  1.00  0.00    -0.070 OA 
BRANCH   4   5
HETATM    5  C   UNL     1      -8.808   8.726  71.374  1.00  0.00    -0.225 C  
HETATM    6  O   UNL     1      -9.511   8.837  72.370  1.00  0.00    -0.293 OA 
HETATM    7  C   UNL     1      -9.190   9.174  69.939  1.00  0.00    -0.183 C  
HETATM    8  C   UNL     1      -8.146  10.244  69.552  1.00  0.00    -0.170 C  
HETATM    9  C   UNL     1      -9.150   7.921  69.054  1.00  0.00    -0.144 C  
HETATM   10  O   UNL     1     -10.554   9.650  70.008  1.00  0.00    -0.222 OA 
BRANCH  10  11
HETATM   11  C   UNL     1     -11.016  10.598  69.144  1.00  0.00    -0.247 A  
HETATM   12  C   UNL     1     -11.052  10.479  67.759  1.00  0.00    -0.382 A  
HETATM   13  C   UNL     1     -11.350  11.582  66.963  1.00  0.00    -0.340 A  
HETATM   14  C   UNL     1     -11.681  12.803  67.553  1.00  0.00    -0.422 A  
HETATM   15  C   UNL     1     -11.832  12.876  68.941  1.00  0.00    -0.352 A  
HETATM   16  C   UNL     1     -11.485  11.775  69.732  1.00  0.00    -0.320 A  
BRANCH  14  17
HETATM   17  C   UNL     1     -11.839  13.978  66.663  1.00  0.00    -0.419 C  
HETATM   18  O   UNL     1     -12.605  13.894  65.705  1.00  0.00    -0.492 OA 
BRANCH  17  19
HETATM   19  C   UNL     1     -11.046  15.226  66.842  1.00  0.00    -0.288 A  
HETATM   20  C   UNL     1     -10.001  15.473  65.941  1.00  0.00    -0.377 A  
HETATM   21  C   UNL     1      -9.184  16.596  66.095  1.00  0.00    -0.312 A  
HETATM   22  C   UNL     1      -9.407  17.474  67.153  1.00  0.00    -0.250 A  
HETATM   23  C   UNL     1     -10.440  17.239  68.057  1.00  0.00    -0.375 A  
HETATM   24 CL   UNL     1      -8.387  18.843  67.359  1.00  0.00    -0.288 Cl 
HETATM   25  C   UNL     1     -11.251  16.108  67.912  1.00  0.00    -0.245 A  
ENDBRANCH  17  19
ENDBRANCH  14  17
ENDBRANCH  10  11
ENDBRANCH   4   5
ENDBRANCH   2   4
TORSDOF 5
ENDMDL
MODEL       50
REMARK 921   NORMALIZED FREE ENERGY PREDICTED BY IDOCK:   -4.98 KCAL/MOL
REMARK 922        TOTAL FREE ENERGY PREDICTED BY IDOCK:   -7.49 KCAL/MOL
REMARK 923 INTER-LIGAND FREE ENERGY PREDICTED BY IDOCK:   -6.51 KCAL/MOL
REMARK 924 INTRA-LIGAND FREE ENERGY PREDICTED BY IDOCK:   -0.98 KCAL/MOL
REMARK 927      BINDING AFFINITY PREDICTED BY RF-SCORE:    0.00 PKD
ROOT
HETATM    1  C   UNL     1     -10.925  15.716  64.944  1.00  0.00    -0.447 C  
HETATM    2  C   UNL     1     -10.363  14.989  66.157  1.00  0.00    -0.299 C  
HETATM    3  C   UNL     1     -11.253  15.211  67.374  1.00  0.00    -0.323 C  
ENDROOT
BRANCH   2   4
HETATM    4  O   UNL     1     -10.350  13.573  65.890  1.00  0.00    -0.286 OA 
BRANCH   4   5
HETATM    5  C   UNL     1      -9.569  12.793  66.703  1.00  0.00    -0.255 C  
HETATM    6  O   UNL     1      -8.538  13.178  67.240  1.00  0.00    -0.194 OA 
HETATM    7  C   UNL     1     -10.192  11.379  66.841  1.00  0.00    -0.219 C  
HETATM    8  C   UNL     1     -11.580  11.603  67.481  1.00  0.00    -0.345 C  
HETATM    9  C   UNL     1     -10.249  10.776  65.431  1.00  0.00    -0.341 C  
HETATM   10  O   UNL     1      -9.271  10.602  67.640  1.00  0.00    -0.145 OA 
BRANCH  10  11
HETATM   11  C   UNL     1      -9.705   9.568  68.414  1.00  0.00    -0.154 A  
HETATM   12  C   UNL     1     -10.174   8.347  67.940  1.00  0.00    -0.273 A  
HETATM   13  C   UNL     1     -10.784   7.441  68.805  1.00  0.00    -0.145 A  
HETATM   14  C   UNL     1     -10.870   7.724  70.169  1.00  0.00    -0.248 A  
HETATM   15  C   UNL     1     -10.230   8.858  70.676  1.00  0.00    -0.267 A  
HETATM   16  C   UNL     1      -9.662   9.784  69.793  1.00  0.00    -0.256 A  
BRANCH  14  17
HETATM   17  C   UNL     1     -11.661   6.799  71.016  1.00  0.00    -0.355 C  
HETATM   18  O   UNL     1     -12.876   6.968  71.099  1.00  0.00    -0.374 OA 
BRANCH  17  19
HETATM   19  C   UNL     1     -11.028   5.722  71.827  1.00  0.00    -0.317 A  
HETATM   20  C   UNL     1      -9.820   5.180  71.368  1.00  0.00    -0.239 A  
HETATM   21  C   UNL     1      -9.210   4.127  72.054  1.00  0.00    -0.171 A  
HETATM   22  C   UNL     1      -9.810   3.609  73.200  1.00  0.00    -0.128 A  
HETATM   23  C   UNL     1     -11.013   4.135  73.664  1.00  0.00    -0.351 A  
HETATM   24 CL   UNL     1      -9.075   2.295  74.031  1.00  0.00    -0.076 Cl 
HETATM   25  C   UNL     1     -11.631   5.182  72.972  1.00  0.00    -0.301 A  
ENDBRANCH  17  19
ENDBRANCH  14  17
ENDBRANCH  10  11
ENDBRANCH   4   5
ENDBRANCH   2   4
TORSDOF 5
ENDMDL
MODEL       51
REMARK 921   NORMALIZED FREE ENERGY PREDICTED BY IDOCK:   -4.98 KCAL/MOL
REMARK 922        TOTAL FREE ENERGY PREDICTED BY IDOCK:   -7.49 KCAL/MOL
REMARK 923 INTER-LIGAND FREE ENERGY PREDICTED BY IDOCK:   -6.49 KCAL/MOL
REMARK 924 INTRA-LIGAND FREE ENERGY PREDICTED BY IDOCK:   -1.00 KCAL/MOL
REMARK 927      BINDING AFFINITY PREDICTED BY RF-SCORE:    0.00 PKD
ROOT
HETATM    1  C   UNL     1      -9.151   4.747  69.200  1.00  0.00    -0.155 C  
HETATM    2  C   UNL     1     -10.126   5.905  69.059  1.00  0.00    -0.185 C  
HETATM    3  C   UNL     1     -10.867   6.145  70.368  1.00  0.00    -0.374 C  
ENDROOT
BRANCH   2   4
HETATM    4  O   UNL     1      -9.388   7.106  68.760  1.00  0.00    -0.137 OA 
BRANCH   4   5
HETATM    5  C   UNL     1      -9.965   7.992  67.887  1.00  0.00    -0.180 C  
HETATM    6  O   UNL     1     -10.807   7.685  67.054  1.00  0.00    -0.334 OA 
HETATM    7  C   UNL     1      -9.402   9.417  68.128  1.00  0.00    -0.133 C  
HETATM    8  C   UNL     1      -9.782   9.768  69.583  1.00  0.00    -0.242 C  
HETATM    9  C   UNL     1      -7.889   9.348  67.881  1.00  0.00    -0.091 C  
HETATM   10  O   UNL     1      -9.997  10.267  67.120  1.00  0.00    -0.181 OA 
BRANCH  10  11
HETATM   11  C   UNL     1     -10.192  11.598  67.343  1.00  0.00    -0.203 A  
HETATM   12  C   UNL     1      -9.198  12.516  67.664  1.00  0.00    -0.190 A  
HETATM   13  C   UNL     1      -9.533  13.805  68.073  1.00  0.00    -0.207 A  
HETATM   14  C   UNL     1     -10.870  14.207  68.098  1.00  0.00    -0.258 A  
HETATM   15  C   UNL     1     -11.853  13.351  67.594  1.00  0.00    -0.394 A  
HETATM   16  C   UNL     1     -11.511  12.043  67.232  1.00  0.00    -0.403 A  
BRANCH  14  17
HETATM   17  C   UNL     1     -11.179  15.533  68.685  1.00  0.00    -0.325 C  
HETATM   18  O   UNL     1     -12.026  15.603  69.573  1.00  0.00    -0.359 OA 
BRANCH  17  19
HETATM   19  C   UNL     1     -10.557  16.790  68.183  1.00  0.00    -0.350 A  
HETATM   20  C   UNL     1     -10.507  16.988  66.797  1.00  0.00    -0.257 A  
HETATM   21  C   UNL     1      -9.882  18.119  66.265  1.00  0.00    -0.311 A  
HETATM   22  C   UNL     1      -9.302  19.054  67.119  1.00  0.00    -0.307 A  
HETATM   23  C   UNL     1      -9.341  18.868  68.499  1.00  0.00    -0.412 A  
HETATM   24 CL   UNL     1      -8.509  20.434  66.466  1.00  0.00    -0.235 Cl 
HETATM   25  C   UNL     1      -9.955  17.730  69.032  1.00  0.00    -0.264 A  
ENDBRANCH  17  19
ENDBRANCH  14  17
ENDBRANCH  10  11
ENDBRANCH   4   5
ENDBRANCH   2   4
TORSDOF 5
ENDMDL
MODEL       52
REMARK 921   NORMALIZED FREE ENERGY PREDICTED BY IDOCK:   -4.96 KCAL/MOL
REMARK 922        TOTAL FREE ENERGY PREDICTED BY IDOCK:   -7.47 KCAL/MOL
REMARK 923 INTER-LIGAND FREE ENERGY PREDICTED BY IDOCK:   -6.94 KCAL/MOL
REMARK 924 INTRA-LIGAND FREE ENERGY PREDICTED BY IDOCK:   -0.53 KCAL/MOL
REMARK 927      BINDING AFFINITY PREDICTED BY RF-SCORE:    0.00 PKD
ROOT
HETATM    1  C   UNL     1     -10.411  16.811  66.890  1.00  0.00    -0.269 C  
HETATM    2  C   UNL     1      -9.292  16.288  66.002  1.00  0.00    -0.326 C  
HETATM    3  C   UNL     1      -8.067  17.189  66.096  1.00  0.00    -0.283 C  
ENDROOT
BRANCH   2   4
HETATM    4  O   UNL     1      -8.899  14.982  66.466  1.00  0.00    -0.273 OA 
BRANCH   4   5
HETATM    5  C   UNL     1      -9.666  13.919  66.064  1.00  0.00    -0.250 C  
HETATM    6  O   UNL     1     -10.223  13.848  64.976  1.00  0.00    -0.374 OA 
HETATM    7  C   UNL     1      -9.705  12.839  67.177  1.00  0.00    -0.216 C  
HETATM    8  C   UNL     1      -8.237  12.401  67.373  1.00  0.00    -0.180 C  
HETATM    9  C   UNL     1     -10.327  13.497  68.416  1.00  0.00    -0.249 C  
HETATM   10  O   UNL     1     -10.594  11.800  66.707  1.00  0.00    -0.221 OA 
BRANCH  10  11
HETATM   11  C   UNL     1     -10.445  10.507  67.111  1.00  0.00    -0.249 A  
HETATM   12  C   UNL     1     -10.027   9.453  66.306  1.00  0.00    -0.353 A  
HETATM   13  C   UNL     1     -10.107   8.140  66.763  1.00  0.00    -0.365 A  
HETATM   14  C   UNL     1     -10.545   7.876  68.062  1.00  0.00    -0.194 A  
HETATM   15  C   UNL     1     -10.782   8.940  68.936  1.00  0.00    -0.132 A  
HETATM   16  C   UNL     1     -10.745  10.253  68.451  1.00  0.00    -0.263 A  
BRANCH  14  17
HETATM   17  C   UNL     1     -10.755   6.458  68.443  1.00  0.00    -0.286 C  
HETATM   18  O   UNL     1     -10.996   5.638  67.559  1.00  0.00    -0.188 OA 
BRANCH  17  19
HETATM   19  C   UNL     1     -10.762   6.007  69.862  1.00  0.00    -0.393 A  
HETATM   20  C   UNL     1      -9.867   4.993  70.231  1.00  0.00    -0.304 A  
HETATM   21  C   UNL     1      -9.868   4.487  71.533  1.00  0.00    -0.260 A  
HETATM   22  C   UNL     1     -10.768   4.989  72.470  1.00  0.00    -0.212 A  
HETATM   23  C   UNL     1     -11.666   5.994  72.116  1.00  0.00    -0.335 A  
HETATM   24 CL   UNL     1     -10.790   4.349  74.066  1.00  0.00    -0.330 Cl 
HETATM   25  C   UNL     1     -11.674   6.494  70.809  1.00  0.00    -0.427 A  
ENDBRANCH  17  19
ENDBRANCH  14  17
ENDBRANCH  10  11
ENDBRANCH   4   5
ENDBRANCH   2   4
TORSDOF 5
ENDMDL
MODEL       53
REMARK 921   NORMALIZED FREE ENERGY PREDICTED BY IDOCK:   -4.96 KCAL/MOL
REMARK 922        TOTAL FREE ENERGY PREDICTED BY IDOCK:   -7.46 KCAL/MOL
REMARK 923 INTER-LIGAND FREE ENERGY PREDICTED BY IDOCK:   -6.74 KCAL/MOL
REMARK 924 INTRA-LIGAND FREE ENERGY PREDICTED BY IDOCK:   -0.72 KCAL/MOL
REMARK 927      BINDING AFFINITY PREDICTED BY RF-SCORE:    0.00 PKD
ROOT
HETATM    1  C   UNL     1     -11.925  16.208  72.105  1.00  0.00    -0.623 C  
HETATM    2  C   UNL     1     -12.526  15.100  71.253  1.00  0.00    -0.344 C  
HETATM    3  C   UNL     1     -14.045  15.103  71.364  1.00  0.00    -0.598 C  
ENDROOT
BRANCH   2   4
HETATM    4  O   UNL     1     -12.198  15.343  69.871  1.00  0.00    -0.342 OA 
BRANCH   4   5
HETATM    5  C   UNL     1     -11.013  14.829  69.411  1.00  0.00    -0.265 C  
HETATM    6  O   UNL     1      -9.912  15.284  69.693  1.00  0.00    -0.251 OA 
HETATM    7  C   UNL     1     -11.284  13.597  68.508  1.00  0.00    -0.280 C  
HETATM    8  C   UNL     1     -12.000  12.573  69.414  1.00  0.00    -0.315 C  
HETATM    9  C   UNL     1     -12.136  14.086  67.329  1.00  0.00    -0.405 C  
HETATM   10  O   UNL     1      -9.997  13.170  68.004  1.00  0.00    -0.220 OA 
BRANCH  10  11
HETATM   11  C   UNL     1      -9.765  11.868  67.672  1.00  0.00    -0.185 A  
HETATM   12  C   UNL     1     -10.266  11.221  66.548  1.00  0.00    -0.269 A  
HETATM   13  C   UNL     1     -10.138   9.840  66.412  1.00  0.00    -0.313 A  
HETATM   14  C   UNL     1      -9.445   9.103  67.374  1.00  0.00    -0.177 A  
HETATM   15  C   UNL     1      -8.777   9.774  68.403  1.00  0.00    -0.120 A  
HETATM   16  C   UNL     1      -8.952  11.154  68.555  1.00  0.00    -0.168 A  
BRANCH  14  17
HETATM   17  C   UNL     1      -9.471   7.625  67.259  1.00  0.00    -0.148 C  
HETATM   18  O   UNL     1      -9.403   7.118  66.141  1.00  0.00    -0.142 OA 
BRANCH  17  19
HETATM   19  C   UNL     1      -9.653   6.737  68.441  1.00  0.00    -0.125 A  
HETATM   20  C   UNL     1     -10.920   6.694  69.038  1.00  0.00    -0.332 A  
HETATM   21  C   UNL     1     -11.136   5.927  70.185  1.00  0.00    -0.395 A  
HETATM   22  C   UNL     1     -10.085   5.202  70.742  1.00  0.00    -0.233 A  
HETATM   23  C   UNL     1      -8.819   5.240  70.161  1.00  0.00    -0.144 A  
HETATM   24 CL   UNL     1     -10.342   4.278  72.169  1.00  0.00    -0.230 Cl 
HETATM   25  C   UNL     1      -8.598   6.017  69.019  1.00  0.00    -0.120 A  
ENDBRANCH  17  19
ENDBRANCH  14  17
ENDBRANCH  10  11
ENDBRANCH   4   5
ENDBRANCH   2   4
TORSDOF 5
ENDMDL
MODEL       54
REMARK 921   NORMALIZED FREE ENERGY PREDICTED BY IDOCK:   -4.89 KCAL/MOL
REMARK 922        TOTAL FREE ENERGY PREDICTED BY IDOCK:   -7.37 KCAL/MOL
REMARK 923 INTER-LIGAND FREE ENERGY PREDICTED BY IDOCK:   -6.79 KCAL/MOL
REMARK 924 INTRA-LIGAND FREE ENERGY PREDICTED BY IDOCK:   -0.58 KCAL/MOL
REMARK 927      BINDING AFFINITY PREDICTED BY RF-SCORE:    0.00 PKD
ROOT
HETATM    1  C   UNL     1     -10.513  17.144  65.822  1.00  0.00    -0.242 C  
HETATM    2  C   UNL     1      -9.956  16.912  67.219  1.00  0.00    -0.277 C  
HETATM    3  C   UNL     1     -10.254  18.103  68.120  1.00  0.00    -0.400 C  
ENDROOT
BRANCH   2   4
HETATM    4  O   UNL     1     -10.607  15.764  67.798  1.00  0.00    -0.277 OA 
BRANCH   4   5
HETATM    5  C   UNL     1      -9.822  14.674  68.071  1.00  0.00    -0.216 C  
HETATM    6  O   UNL     1      -8.724  14.736  68.610  1.00  0.00    -0.168 OA 
HETATM    7  C   UNL     1     -10.536  13.376  67.611  1.00  0.00    -0.243 C  
HETATM    8  C   UNL     1     -11.845  13.317  68.428  1.00  0.00    -0.395 C  
HETATM    9  C   UNL     1     -10.755  13.499  66.097  1.00  0.00    -0.289 C  
HETATM   10  O   UNL     1      -9.613  12.291  67.859  1.00  0.00    -0.190 OA 
BRANCH  10  11
HETATM   11  C   UNL     1     -10.058  11.028  68.113  1.00  0.00    -0.179 A  
HETATM   12  C   UNL     1     -10.368  10.519  69.369  1.00  0.00    -0.258 A  
HETATM   13  C   UNL     1     -10.616   9.159  69.539  1.00  0.00    -0.233 A  
HETATM   14  C   UNL     1     -10.621   8.305  68.435  1.00  0.00    -0.148 A  
HETATM   15  C   UNL     1     -10.501   8.843  67.150  1.00  0.00    -0.344 A  
HETATM   16  C   UNL     1     -10.205  10.202  66.996  1.00  0.00    -0.290 A  
BRANCH  14  17
HETATM   17  C   UNL     1     -10.738   6.849  68.691  1.00  0.00    -0.216 C  
HETATM   18  O   UNL     1     -10.938   6.096  67.740  1.00  0.00    -0.313 OA 
BRANCH  17  19
HETATM   19  C   UNL     1     -10.699   6.276  70.065  1.00  0.00    -0.346 A  
HETATM   20  C   UNL     1     -11.769   6.561  70.924  1.00  0.00    -0.416 A  
HETATM   21  C   UNL     1     -11.760   6.102  72.243  1.00  0.00    -0.352 A  
HETATM   22  C   UNL     1     -10.678   5.360  72.710  1.00  0.00    -0.247 A  
HETATM   23  C   UNL     1      -9.606   5.073  71.868  1.00  0.00    -0.199 A  
HETATM   24 CL   UNL     1     -10.651   4.816  74.341  1.00  0.00    -0.327 Cl 
HETATM   25  C   UNL     1      -9.608   5.542  70.550  1.00  0.00    -0.225 A  
ENDBRANCH  17  19
ENDBRANCH  14  17
ENDBRANCH  10  11
ENDBRANCH   4   5
ENDBRANCH   2   4
TORSDOF 5
ENDMDL
MODEL       55
REMARK 921   NORMALIZED FREE ENERGY PREDICTED BY IDOCK:   -4.86 KCAL/MOL
REMARK 922        TOTAL FREE ENERGY PREDICTED BY IDOCK:   -7.34 KCAL/MOL
REMARK 923 INTER-LIGAND FREE ENERGY PREDICTED BY IDOCK:   -6.41 KCAL/MOL
REMARK 924 INTRA-LIGAND FREE ENERGY PREDICTED BY IDOCK:   -0.92 KCAL/MOL
REMARK 927      BINDING AFFINITY PREDICTED BY RF-SCORE:    0.00 PKD
ROOT
HETATM    1  C   UNL     1      -8.550  18.981  66.534  1.00  0.00    -0.316 C  
HETATM    2  C   UNL     1     -10.058  19.017  66.733  1.00  0.00    -0.379 C  
HETATM    3  C   UNL     1     -10.724  19.835  65.634  1.00  0.00    -0.418 C  
ENDROOT
BRANCH   2   4
HETATM    4  O   UNL     1     -10.574  17.675  66.639  1.00  0.00    -0.305 OA 
BRANCH   4   5
HETATM    5  C   UNL     1     -10.481  16.892  67.761  1.00  0.00    -0.340 C  
HETATM    6  O   UNL     1     -10.561  17.319  68.905  1.00  0.00    -0.328 OA 
HETATM    7  C   UNL     1     -10.278  15.408  67.357  1.00  0.00    -0.249 C  
HETATM    8  C   UNL     1     -11.531  15.030  66.537  1.00  0.00    -0.239 C  
HETATM    9  C   UNL     1      -8.970  15.338  66.558  1.00  0.00    -0.340 C  
HETATM   10  O   UNL     1     -10.109  14.669  68.588  1.00  0.00    -0.225 OA 
BRANCH  10  11
HETATM   11  C   UNL     1     -10.462  13.355  68.678  1.00  0.00    -0.225 A  
HETATM   12  C   UNL     1     -11.631  12.872  69.258  1.00  0.00    -0.368 A  
HETATM   13  C   UNL     1     -11.796  11.507  69.481  1.00  0.00    -0.419 A  
HETATM   14  C   UNL     1     -10.816  10.605  69.061  1.00  0.00    -0.277 A  
HETATM   15  C   UNL     1      -9.734  11.068  68.309  1.00  0.00    -0.181 A  
HETATM   16  C   UNL     1      -9.554  12.445  68.133  1.00  0.00    -0.218 A  
BRANCH  14  17
HETATM   17  C   UNL     1     -10.973   9.185  69.459  1.00  0.00    -0.123 C  
HETATM   18  O   UNL     1     -11.577   8.925  70.498  1.00  0.00    -0.249 OA 
BRANCH  17  19
HETATM   19  C   UNL     1     -10.359   8.069  68.686  1.00  0.00    -0.224 A  
HETATM   20  C   UNL     1      -9.212   7.461  69.213  1.00  0.00    -0.147 A  
HETATM   21  C   UNL     1      -8.557   6.450  68.506  1.00  0.00    -0.122 A  
HETATM   22  C   UNL     1      -9.045   6.046  67.265  1.00  0.00    -0.111 A  
HETATM   23  C   UNL     1     -10.183   6.645  66.727  1.00  0.00    -0.263 A  
HETATM   24 CL   UNL     1      -8.226   4.821  66.380  1.00  0.00    -0.107 Cl 
HETATM   25  C   UNL     1     -10.833   7.666  67.430  1.00  0.00    -0.240 A  
ENDBRANCH  17  19
ENDBRANCH  14  17
ENDBRANCH  10  11
ENDBRANCH   4   5
ENDBRANCH   2   4
TORSDOF 5
ENDMDL
MODEL       56
REMARK 921   NORMALIZED FREE ENERGY PREDICTED BY IDOCK:   -4.85 KCAL/MOL
REMARK 922        TOTAL FREE ENERGY PREDICTED BY IDOCK:   -7.32 KCAL/MOL
REMARK 923 INTER-LIGAND FREE ENERGY PREDICTED BY IDOCK:   -6.29 KCAL/MOL
REMARK 924 INTRA-LIGAND FREE ENERGY PREDICTED BY IDOCK:   -1.03 KCAL/MOL
REMARK 927      BINDING AFFINITY PREDICTED BY RF-SCORE:    0.00 PKD
ROOT
HETATM    1  C   UNL     1      -8.419   2.512  65.824  1.00  0.00    -0.101 C  
HETATM    2  C   UNL     1      -8.983   3.916  65.659  1.00  0.00    -0.133 C  
HETATM    3  C   UNL     1     -10.139   3.915  64.666  1.00  0.00    -0.219 C  
ENDROOT
BRANCH   2   4
HETATM    4  O   UNL     1      -9.507   4.362  66.924  1.00  0.00    -0.151 OA 
BRANCH   4   5
HETATM    5  C   UNL     1      -8.854   5.400  67.538  1.00  0.00    -0.105 C  
HETATM    6  O   UNL     1      -7.647   5.590  67.466  1.00  0.00    -0.086 OA 
HETATM    7  C   UNL     1      -9.869   6.283  68.311  1.00  0.00    -0.126 C  
HETATM    8  C   UNL     1     -10.845   6.818  67.241  1.00  0.00    -0.443 C  
HETATM    9  C   UNL     1     -10.532   5.385  69.363  1.00  0.00    -0.331 C  
HETATM   10  O   UNL     1      -9.093   7.297  68.990  1.00  0.00    -0.135 OA 
BRANCH  10  11
HETATM   11  C   UNL     1      -9.625   8.519  69.277  1.00  0.00    -0.170 A  
HETATM   12  C   UNL     1     -10.680   8.755  70.151  1.00  0.00    -0.239 A  
HETATM   13  C   UNL     1     -11.278  10.011  70.214  1.00  0.00    -0.379 A  
HETATM   14  C   UNL     1     -10.777  11.065  69.447  1.00  0.00    -0.247 A  
HETATM   15  C   UNL     1      -9.601  10.882  68.715  1.00  0.00    -0.195 A  
HETATM   16  C   UNL     1      -9.037   9.604  68.622  1.00  0.00    -0.132 A  
BRANCH  14  17
HETATM   17  C   UNL     1     -11.543  12.334  69.438  1.00  0.00    -0.314 C  
HETATM   18  O   UNL     1     -12.322  12.561  70.362  1.00  0.00    -0.309 OA 
BRANCH  17  19
HETATM   19  C   UNL     1     -11.460  13.307  68.313  1.00  0.00    -0.351 A  
HETATM   20  C   UNL     1     -11.981  12.919  67.072  1.00  0.00    -0.390 A  
HETATM   21  C   UNL     1     -11.877  13.765  65.965  1.00  0.00    -0.415 A  
HETATM   22  C   UNL     1     -11.248  15.000  66.094  1.00  0.00    -0.307 A  
HETATM   23  C   UNL     1     -10.722  15.397  67.322  1.00  0.00    -0.307 A  
HETATM   24 CL   UNL     1     -11.096  16.032  64.727  1.00  0.00    -0.450 Cl 
HETATM   25  C   UNL     1     -10.814  14.546  68.429  1.00  0.00    -0.250 A  
ENDBRANCH  17  19
ENDBRANCH  14  17
ENDBRANCH  10  11
ENDBRANCH   4   5
ENDBRANCH   2   4
TORSDOF 5
ENDMDL
MODEL       57
REMARK 921   NORMALIZED FREE ENERGY PREDICTED BY IDOCK:   -4.85 KCAL/MOL
REMARK 922        TOTAL FREE ENERGY PREDICTED BY IDOCK:   -7.32 KCAL/MOL
REMARK 923 INTER-LIGAND FREE ENERGY PREDICTED BY IDOCK:   -7.25 KCAL/MOL
REMARK 924 INTRA-LIGAND FREE ENERGY PREDICTED BY IDOCK:   -0.07 KCAL/MOL
REMARK 927      BINDING AFFINITY PREDICTED BY RF-SCORE:    0.00 PKD
ROOT
HETATM    1  C   UNL     1     -10.036  19.916  68.608  1.00  0.00    -0.518 C  
HETATM    2  C   UNL     1     -10.502  19.378  67.263  1.00  0.00    -0.467 C  
HETATM    3  C   UNL     1      -9.371  19.431  66.244  1.00  0.00    -0.402 C  
ENDROOT
BRANCH   2   4
HETATM    4  O   UNL     1     -10.876  17.996  67.416  1.00  0.00    -0.356 OA 
BRANCH   4   5
HETATM    5  C   UNL     1      -9.862  17.073  67.428  1.00  0.00    -0.262 C  
HETATM    6  O   UNL     1      -8.728  17.305  67.826  1.00  0.00    -0.220 OA 
HETATM    7  C   UNL     1     -10.374  15.714  66.881  1.00  0.00    -0.293 C  
HETATM    8  C   UNL     1     -11.504  15.285  67.842  1.00  0.00    -0.325 C  
HETATM    9  C   UNL     1     -10.843  15.960  65.441  1.00  0.00    -0.361 C  
HETATM   10  O   UNL     1      -9.230  14.829  66.852  1.00  0.00    -0.219 OA 
BRANCH  10  11
HETATM   11  C   UNL     1      -9.378  13.480  66.977  1.00  0.00    -0.247 A  
HETATM   12  C   UNL     1     -10.044  12.654  66.078  1.00  0.00    -0.274 A  
HETATM   13  C   UNL     1     -10.314  11.327  66.404  1.00  0.00    -0.291 A  
HETATM   14  C   UNL     1      -9.856  10.795  67.611  1.00  0.00    -0.193 A  
HETATM   15  C   UNL     1      -9.023  11.565  68.428  1.00  0.00    -0.173 A  
HETATM   16  C   UNL     1      -8.799  12.911  68.114  1.00  0.00    -0.194 A  
BRANCH  14  17
HETATM   17  C   UNL     1     -10.300   9.428  67.974  1.00  0.00    -0.220 C  
HETATM   18  O   UNL     1     -10.637   8.659  67.076  1.00  0.00    -0.294 OA 
BRANCH  17  19
HETATM   19  C   UNL     1     -10.426   8.980  69.389  1.00  0.00    -0.229 A  
HETATM   20  C   UNL     1      -9.694   7.853  69.786  1.00  0.00    -0.176 A  
HETATM   21  C   UNL     1      -9.818   7.349  71.083  1.00  0.00    -0.177 A  
HETATM   22  C   UNL     1     -10.678   7.969  71.987  1.00  0.00    -0.258 A  
HETATM   23  C   UNL     1     -11.415   9.087  71.604  1.00  0.00    -0.431 A  
HETATM   24 CL   UNL     1     -10.852   7.335  73.576  1.00  0.00    -0.380 Cl 
HETATM   25  C   UNL     1     -11.301   9.586  70.301  1.00  0.00    -0.284 A  
ENDBRANCH  17  19
ENDBRANCH  14  17
ENDBRANCH  10  11
ENDBRANCH   4   5
ENDBRANCH   2   4
TORSDOF 5
ENDMDL
MODEL       58
REMARK 921   NORMALIZED FREE ENERGY PREDICTED BY IDOCK:   -4.81 KCAL/MOL
REMARK 922        TOTAL FREE ENERGY PREDICTED BY IDOCK:   -7.27 KCAL/MOL
REMARK 923 INTER-LIGAND FREE ENERGY PREDICTED BY IDOCK:   -6.42 KCAL/MOL
REMARK 924 INTRA-LIGAND FREE ENERGY PREDICTED BY IDOCK:   -0.85 KCAL/MOL
REMARK 927      BINDING AFFINITY PREDICTED BY RF-SCORE:    0.00 PKD
ROOT
HETATM    1  C   UNL     1     -11.566  15.209  64.358  1.00  0.00    -0.275 C  
HETATM    2  C   UNL     1     -11.923  13.759  64.649  1.00  0.00    -0.416 C  
HETATM    3  C   UNL     1     -12.137  12.989  63.352  1.00  0.00    -0.591 C  
ENDROOT
BRANCH   2   4
HETATM    4  O   UNL     1     -10.824  13.135  65.340  1.00  0.00    -0.275 OA 
BRANCH   4   5
HETATM    5  C   UNL     1     -11.136  12.259  66.347  1.00  0.00    -0.303 C  
HETATM    6  O   UNL     1     -12.138  12.346  67.045  1.00  0.00    -0.549 OA 
HETATM    7  C   UNL     1     -10.049  11.157  66.450  1.00  0.00    -0.226 C  
HETATM    8  C   UNL     1     -10.066  10.437  65.084  1.00  0.00    -0.379 C  
HETATM    9  C   UNL     1      -8.724  11.865  66.762  1.00  0.00    -0.193 C  
HETATM   10  O   UNL     1     -10.411  10.330  67.580  1.00  0.00    -0.209 OA 
BRANCH  10  11
HETATM   11  C   UNL     1     -10.056   9.015  67.635  1.00  0.00    -0.216 A  
HETATM   12  C   UNL     1     -10.774   7.962  67.080  1.00  0.00    -0.306 A  
HETATM   13  C   UNL     1     -10.432   6.643  67.372  1.00  0.00    -0.325 A  
HETATM   14  C   UNL     1      -9.321   6.368  68.172  1.00  0.00    -0.108 A  
HETATM   15  C   UNL     1      -8.487   7.416  68.572  1.00  0.00    -0.125 A  
HETATM   16  C   UNL     1      -8.867   8.738  68.314  1.00  0.00    -0.141 A  
BRANCH  14  17
HETATM   17  C   UNL     1      -9.094   4.959  68.573  1.00  0.00    -0.114 C  
HETATM   18  O   UNL     1      -8.585   4.188  67.762  1.00  0.00    -0.097 OA 
BRANCH  17  19
HETATM   19  C   UNL     1      -9.531   4.426  69.894  1.00  0.00    -0.253 A  
HETATM   20  C   UNL     1     -10.255   5.280  70.737  1.00  0.00    -0.317 A  
HETATM   21  C   UNL     1     -10.639   4.857  72.012  1.00  0.00    -0.210 A  
HETATM   22  C   UNL     1     -10.297   3.580  72.450  1.00  0.00    -0.090 A  
HETATM   23  C   UNL     1      -9.574   2.723  71.623  1.00  0.00    -0.222 A  
HETATM   24 CL   UNL     1     -10.746   3.066  74.028  1.00  0.00    -0.261 Cl 
HETATM   25  C   UNL     1      -9.178   3.149  70.351  1.00  0.00    -0.215 A  
ENDBRANCH  17  19
ENDBRANCH  14  17
ENDBRANCH  10  11
ENDBRANCH   4   5
ENDBRANCH   2   4
TORSDOF 5
ENDMDL
MODEL       59
REMARK 921   NORMALIZED FREE ENERGY PREDICTED BY IDOCK:   -4.71 KCAL/MOL
REMARK 922        TOTAL FREE ENERGY PREDICTED BY IDOCK:   -7.14 KCAL/MOL
REMARK 923 INTER-LIGAND FREE ENERGY PREDICTED BY IDOCK:   -6.42 KCAL/MOL
REMARK 924 INTRA-LIGAND FREE ENERGY PREDICTED BY IDOCK:   -0.72 KCAL/MOL
REMARK 927      BINDING AFFINITY PREDICTED BY RF-SCORE:    0.00 PKD
ROOT
HETATM    1  C   UNL     1     -12.082  14.879  64.312  1.00  0.00    -0.373 C  
HETATM    2  C   UNL     1     -10.802  14.981  65.129  1.00  0.00    -0.407 C  
HETATM    3  C   UNL     1     -10.478  16.437  65.437  1.00  0.00    -0.333 C  
ENDROOT
BRANCH   2   4
HETATM    4  O   UNL     1     -10.996  14.310  66.388  1.00  0.00    -0.303 OA 
BRANCH   4   5
HETATM    5  C   UNL     1     -10.040  13.403  66.766  1.00  0.00    -0.260 C  
HETATM    6  O   UNL     1      -8.891  13.701  67.066  1.00  0.00    -0.229 OA 
HETATM    7  C   UNL     1     -10.635  11.970  66.764  1.00  0.00    -0.227 C  
HETATM    8  C   UNL     1     -11.784  12.003  67.796  1.00  0.00    -0.379 C  
HETATM    9  C   UNL     1     -11.097  11.680  65.330  1.00  0.00    -0.299 C  
HETATM   10  O   UNL     1      -9.548  11.075  67.091  1.00  0.00    -0.167 OA 
BRANCH  10  11
HETATM   11  C   UNL     1      -9.776   9.884  67.714  1.00  0.00    -0.150 A  
HETATM   12  C   UNL     1     -10.257   8.732  67.102  1.00  0.00    -0.346 A  
HETATM   13  C   UNL     1     -10.648   7.636  67.867  1.00  0.00    -0.233 A  
HETATM   14  C   UNL     1     -10.496   7.661  69.255  1.00  0.00    -0.220 A  
HETATM   15  C   UNL     1      -9.836   8.737  69.854  1.00  0.00    -0.189 A  
HETATM   16  C   UNL     1      -9.491   9.853  69.082  1.00  0.00    -0.201 A  
BRANCH  14  17
HETATM   17  C   UNL     1     -11.067   6.533  70.030  1.00  0.00    -0.363 C  
HETATM   18  O   UNL     1     -12.178   6.669  70.538  1.00  0.00    -0.364 OA 
BRANCH  17  19
HETATM   19  C   UNL     1     -10.312   5.274  70.280  1.00  0.00    -0.350 A  
HETATM   20  C   UNL     1     -10.045   4.923  71.610  1.00  0.00    -0.266 A  
HETATM   21  C   UNL     1      -9.289   3.786  71.904  1.00  0.00    -0.194 A  
HETATM   22  C   UNL     1      -8.793   2.997  70.869  1.00  0.00    -0.082 A  
HETATM   23  C   UNL     1      -9.047   3.337  69.542  1.00  0.00    -0.200 A  
HETATM   24 CL   UNL     1      -7.840   1.612  71.228  1.00  0.00    -0.039 Cl 
HETATM   25  C   UNL     1      -9.794   4.482  69.245  1.00  0.00    -0.241 A  
ENDBRANCH  17  19
ENDBRANCH  14  17
ENDBRANCH  10  11
ENDBRANCH   4   5
ENDBRANCH   2   4
TORSDOF 5
ENDMDL
MODEL       60
REMARK 921   NORMALIZED FREE ENERGY PREDICTED BY IDOCK:   -4.67 KCAL/MOL
REMARK 922        TOTAL FREE ENERGY PREDICTED BY IDOCK:   -7.09 KCAL/MOL
REMARK 923 INTER-LIGAND FREE ENERGY PREDICTED BY IDOCK:   -6.27 KCAL/MOL
REMARK 924 INTRA-LIGAND FREE ENERGY PREDICTED BY IDOCK:   -0.82 KCAL/MOL
REMARK 927      BINDING AFFINITY PREDICTED BY RF-SCORE:    0.00 PKD
ROOT
HETATM    1  C   UNL     1      -9.414  20.950  67.188  1.00  0.00    -0.349 C  
HETATM    2  C   UNL     1      -8.297  20.077  66.635  1.00  0.00    -0.317 C  
HETATM    3  C   UNL     1      -6.961  20.806  66.711  1.00  0.00    -0.333 C  
ENDROOT
BRANCH   2   4
HETATM    4  O   UNL     1      -8.184  18.892  67.446  1.00  0.00    -0.266 OA 
BRANCH   4   5
HETATM    5  C   UNL     1      -8.534  17.702  66.862  1.00  0.00    -0.241 C  
HETATM    6  O   UNL     1      -8.196  17.364  65.735  1.00  0.00    -0.540 OA 
HETATM    7  C   UNL     1      -9.397  16.863  67.841  1.00  0.00    -0.238 C  
HETATM    8  C   UNL     1      -8.498  16.616  69.072  1.00  0.00    -0.176 C  
HETATM    9  C   UNL     1     -10.655  17.688  68.147  1.00  0.00    -0.359 C  
HETATM   10  O   UNL     1      -9.789  15.671  67.122  1.00  0.00    -0.225 OA 
BRANCH  10  11
HETATM   11  C   UNL     1     -10.044  14.503  67.777  1.00  0.00    -0.225 A  
HETATM   12  C   UNL     1      -9.119  13.492  68.014  1.00  0.00    -0.201 A  
HETATM   13  C   UNL     1      -9.533  12.257  68.508  1.00  0.00    -0.115 A  
HETATM   14  C   UNL     1     -10.874  12.047  68.834  1.00  0.00    -0.252 A  
HETATM   15  C   UNL     1     -11.770  13.119  68.779  1.00  0.00    -0.363 A  
HETATM   16  C   UNL     1     -11.353  14.340  68.236  1.00  0.00    -0.314 A  
BRANCH  14  17
HETATM   17  C   UNL     1     -11.285  10.672  69.209  1.00  0.00    -0.273 C  
HETATM   18  O   UNL     1     -12.377  10.509  69.749  1.00  0.00    -0.250 OA 
BRANCH  17  19
HETATM   19  C   UNL     1     -10.390   9.496  69.026  1.00  0.00    -0.219 A  
HETATM   20  C   UNL     1      -9.636   9.069  70.128  1.00  0.00    -0.217 A  
HETATM   21  C   UNL     1      -8.735   8.009  70.001  1.00  0.00    -0.135 A  
HETATM   22  C   UNL     1      -8.581   7.375  68.770  1.00  0.00    -0.129 A  
HETATM   23  C   UNL     1      -9.321   7.792  67.666  1.00  0.00    -0.160 A  
HETATM   24 CL   UNL     1      -7.453   6.088  68.605  1.00  0.00    -0.085 Cl 
HETATM   25  C   UNL     1     -10.215   8.861  67.788  1.00  0.00    -0.283 A  
ENDBRANCH  17  19
ENDBRANCH  14  17
ENDBRANCH  10  11
ENDBRANCH   4   5
ENDBRANCH   2   4
TORSDOF 5
ENDMDL
MODEL       61
REMARK 921   NORMALIZED FREE ENERGY PREDICTED BY IDOCK:   -4.65 KCAL/MOL
REMARK 922        TOTAL FREE ENERGY PREDICTED BY IDOCK:   -7.07 KCAL/MOL
REMARK 923 INTER-LIGAND FREE ENERGY PREDICTED BY IDOCK:   -6.76 KCAL/MOL
REMARK 924 INTRA-LIGAND FREE ENERGY PREDICTED BY IDOCK:   -0.31 KCAL/MOL
REMARK 927      BINDING AFFINITY PREDICTED BY RF-SCORE:    0.00 PKD
ROOT
HETATM    1  C   UNL     1      -7.203   3.261  66.582  1.00  0.00    -0.066 C  
HETATM    2  C   UNL     1      -7.150   4.407  65.582  1.00  0.00    -0.067 C  
HETATM    3  C   UNL     1      -7.758   3.985  64.250  1.00  0.00    -0.084 C  
ENDROOT
BRANCH   2   4
HETATM    4  O   UNL     1      -7.938   5.503  66.084  1.00  0.00    -0.102 OA 
BRANCH   4   5
HETATM    5  C   UNL     1      -7.933   5.706  67.440  1.00  0.00    -0.102 C  
HETATM    6  O   UNL     1      -6.924   5.683  68.133  1.00  0.00    -0.062 OA 
HETATM    7  C   UNL     1      -9.375   5.978  67.942  1.00  0.00    -0.110 C  
HETATM    8  C   UNL     1      -9.831   7.258  67.207  1.00  0.00    -0.224 C  
HETATM    9  C   UNL     1     -10.208   4.736  67.601  1.00  0.00    -0.096 C  
HETATM   10  O   UNL     1      -9.290   6.099  69.381  1.00  0.00    -0.138 OA 
BRANCH  10  11
HETATM   11  C   UNL     1     -10.179   6.860  70.080  1.00  0.00    -0.196 A  
HETATM   12  C   UNL     1     -11.506   6.526  70.329  1.00  0.00    -0.474 A  
HETATM   13  C   UNL     1     -12.381   7.464  70.873  1.00  0.00    -0.236 A  
HETATM   14  C   UNL     1     -11.914   8.729  71.235  1.00  0.00    -0.353 A  
HETATM   15  C   UNL     1     -10.545   9.002  71.164  1.00  0.00    -0.361 A  
HETATM   16  C   UNL     1      -9.684   8.069  70.573  1.00  0.00    -0.179 A  
BRANCH  14  17
HETATM   17  C   UNL     1     -12.915   9.735  71.664  1.00  0.00    -0.419 C  
HETATM   18  O   UNL     1     -13.936   9.348  72.230  1.00  0.00    -0.412 OA 
BRANCH  17  19
HETATM   19  C   UNL     1     -12.764  11.187  71.368  1.00  0.00    -0.524 A  
HETATM   20  C   UNL     1     -13.446  12.097  72.186  1.00  0.00    -0.383 A  
HETATM   21  C   UNL     1     -13.392  13.467  71.920  1.00  0.00    -0.529 A  
HETATM   22  C   UNL     1     -12.658  13.932  70.832  1.00  0.00    -0.361 A  
HETATM   23  C   UNL     1     -11.978  13.038  70.007  1.00  0.00    -0.383 A  
HETATM   24 CL   UNL     1     -12.611  15.616  70.487  1.00  0.00    -0.459 Cl 
HETATM   25  C   UNL     1     -12.042  11.665  70.265  1.00  0.00    -0.443 A  
ENDBRANCH  17  19
ENDBRANCH  14  17
ENDBRANCH  10  11
ENDBRANCH   4   5
ENDBRANCH   2   4
TORSDOF 5
ENDMDL
MODEL       62
REMARK 921   NORMALIZED FREE ENERGY PREDICTED BY IDOCK:   -4.62 KCAL/MOL
REMARK 922        TOTAL FREE ENERGY PREDICTED BY IDOCK:   -7.02 KCAL/MOL
REMARK 923 INTER-LIGAND FREE ENERGY PREDICTED BY IDOCK:   -7.09 KCAL/MOL
REMARK 924 INTRA-LIGAND FREE ENERGY PREDICTED BY IDOCK:    0.06 KCAL/MOL
REMARK 927      BINDING AFFINITY PREDICTED BY RF-SCORE:    0.00 PKD
ROOT
HETATM    1  C   UNL     1      -7.869   2.993  67.157  1.00  0.00    -0.075 C  
HETATM    2  C   UNL     1      -9.137   3.134  67.985  1.00  0.00    -0.172 C  
HETATM    3  C   UNL     1      -8.817   3.063  69.473  1.00  0.00    -0.147 C  
ENDROOT
BRANCH   2   4
HETATM    4  O   UNL     1      -9.719   4.428  67.735  1.00  0.00    -0.166 OA 
BRANCH   4   5
HETATM    5  C   UNL     1      -9.063   5.517  68.249  1.00  0.00    -0.108 C  
HETATM    6  O   UNL     1      -7.847   5.659  68.228  1.00  0.00    -0.094 OA 
HETATM    7  C   UNL     1     -10.086   6.525  68.836  1.00  0.00    -0.164 C  
HETATM    8  C   UNL     1     -10.977   6.944  67.647  1.00  0.00    -0.304 C  
HETATM    9  C   UNL     1     -10.843   5.793  69.952  1.00  0.00    -0.417 C  
HETATM   10  O   UNL     1      -9.312   7.595  69.426  1.00  0.00    -0.153 OA 
BRANCH  10  11
HETATM   11  C   UNL     1      -9.812   8.860  69.519  1.00  0.00    -0.180 A  
HETATM   12  C   UNL     1     -10.794   9.275  70.411  1.00  0.00    -0.302 A  
HETATM   13  C   UNL     1     -11.377  10.534  70.284  1.00  0.00    -0.407 A  
HETATM   14  C   UNL     1     -10.931  11.416  69.298  1.00  0.00    -0.282 A  
HETATM   15  C   UNL     1      -9.817  11.076  68.526  1.00  0.00    -0.194 A  
HETATM   16  C   UNL     1      -9.270   9.791  68.630  1.00  0.00    -0.137 A  
BRANCH  14  17
HETATM   17  C   UNL     1     -11.687  12.678  69.109  1.00  0.00    -0.321 C  
HETATM   18  O   UNL     1     -11.970  13.031  67.966  1.00  0.00    -0.350 OA 
BRANCH  17  19
HETATM   19  C   UNL     1     -12.048  13.568  70.247  1.00  0.00    -0.425 A  
HETATM   20  C   UNL     1     -11.412  14.814  70.331  1.00  0.00    -0.303 A  
HETATM   21  C   UNL     1     -11.663  15.667  71.408  1.00  0.00    -0.491 A  
HETATM   22  C   UNL     1     -12.549  15.275  72.408  1.00  0.00    -0.358 A  
HETATM   23  C   UNL     1     -13.185  14.038  72.340  1.00  0.00    -0.585 A  
HETATM   24 CL   UNL     1     -12.841  16.312  73.749  1.00  0.00    -0.613 Cl 
HETATM   25  C   UNL     1     -12.925  13.177  71.268  1.00  0.00    -0.339 A  
ENDBRANCH  17  19
ENDBRANCH  14  17
ENDBRANCH  10  11
ENDBRANCH   4   5
ENDBRANCH   2   4
TORSDOF 5
ENDMDL
MODEL       63
REMARK 921   NORMALIZED FREE ENERGY PREDICTED BY IDOCK:   -4.62 KCAL/MOL
REMARK 922        TOTAL FREE ENERGY PREDICTED BY IDOCK:   -7.02 KCAL/MOL
REMARK 923 INTER-LIGAND FREE ENERGY PREDICTED BY IDOCK:   -5.98 KCAL/MOL
REMARK 924 INTRA-LIGAND FREE ENERGY PREDICTED BY IDOCK:   -1.04 KCAL/MOL
REMARK 927      BINDING AFFINITY PREDICTED BY RF-SCORE:    0.00 PKD
ROOT
HETATM    1  C   UNL     1      -8.310   3.060  64.493  1.00  0.00    -0.090 C  
HETATM    2  C   UNL     1      -9.019   4.231  65.158  1.00  0.00    -0.139 C  
HETATM    3  C   UNL     1      -9.636   3.801  66.483  1.00  0.00    -0.189 C  
ENDROOT
BRANCH   2   4
HETATM    4  O   UNL     1      -8.052   5.259  65.451  1.00  0.00    -0.111 OA 
BRANCH   4   5
HETATM    5  C   UNL     1      -8.124   6.411  64.711  1.00  0.00    -0.114 C  
HETATM    6  O   UNL     1      -8.216   6.439  63.490  1.00  0.00    -0.069 OA 
HETATM    7  C   UNL     1      -8.086   7.647  65.647  1.00  0.00    -0.127 C  
HETATM    8  C   UNL     1      -9.328   7.511  66.556  1.00  0.00    -0.231 C  
HETATM    9  C   UNL     1      -6.754   7.592  66.405  1.00  0.00    -0.058 C  
HETATM   10  O   UNL     1      -8.084   8.811  64.788  1.00  0.00    -0.133 OA 
BRANCH  10  11
HETATM   11  C   UNL     1      -8.605   9.999  65.207  1.00  0.00    -0.154 A  
HETATM   12  C   UNL     1      -8.026  10.850  66.141  1.00  0.00    -0.155 A  
HETATM   13  C   UNL     1      -8.739  11.933  66.648  1.00  0.00    -0.185 A  
HETATM   14  C   UNL     1     -10.021  12.214  66.170  1.00  0.00    -0.253 A  
HETATM   15  C   UNL     1     -10.529  11.477  65.096  1.00  0.00    -0.340 A  
HETATM   16  C   UNL     1      -9.824  10.362  64.628  1.00  0.00    -0.405 A  
BRANCH  14  17
HETATM   17  C   UNL     1     -10.791  13.282  66.850  1.00  0.00    -0.276 C  
HETATM   18  O   UNL     1     -10.837  14.397  66.334  1.00  0.00    -0.304 OA 
BRANCH  17  19
HETATM   19  C   UNL     1     -11.444  13.075  68.173  1.00  0.00    -0.356 A  
HETATM   20  C   UNL     1     -11.860  14.210  68.883  1.00  0.00    -0.382 A  
HETATM   21  C   UNL     1     -12.424  14.083  70.154  1.00  0.00    -0.380 A  
HETATM   22  C   UNL     1     -12.571  12.820  70.723  1.00  0.00    -0.225 A  
HETATM   23  C   UNL     1     -12.158  11.684  70.030  1.00  0.00    -0.395 A  
HETATM   24 CL   UNL     1     -13.240  12.662  72.299  1.00  0.00    -0.545 Cl 
HETATM   25  C   UNL     1     -11.582  11.810  68.761  1.00  0.00    -0.367 A  
ENDBRANCH  17  19
ENDBRANCH  14  17
ENDBRANCH  10  11
ENDBRANCH   4   5
ENDBRANCH   2   4
TORSDOF 5
ENDMDL
MODEL       64
REMARK 921   NORMALIZED FREE ENERGY PREDICTED BY IDOCK:   -4.60 KCAL/MOL
REMARK 922        TOTAL FREE ENERGY PREDICTED BY IDOCK:   -7.00 KCAL/MOL
REMARK 923 INTER-LIGAND FREE ENERGY PREDICTED BY IDOCK:   -5.99 KCAL/MOL
REMARK 924 INTRA-LIGAND FREE ENERGY PREDICTED BY IDOCK:   -1.01 KCAL/MOL
REMARK 927      BINDING AFFINITY PREDICTED BY RF-SCORE:    0.00 PKD
ROOT
HETATM    1  C   UNL     1      -8.037   4.106  66.847  1.00  0.00    -0.101 C  
HETATM    2  C   UNL     1      -8.923   4.989  65.980  1.00  0.00    -0.136 C  
HETATM    3  C   UNL     1     -10.248   4.297  65.690  1.00  0.00    -0.217 C  
ENDROOT
BRANCH   2   4
HETATM    4  O   UNL     1      -9.222   6.201  66.700  1.00  0.00    -0.136 OA 
BRANCH   4   5
HETATM    5  C   UNL     1      -8.739   7.372  66.176  1.00  0.00    -0.156 C  
HETATM    6  O   UNL     1      -8.173   7.458  65.094  1.00  0.00    -0.131 OA 
HETATM    7  C   UNL     1      -9.028   8.547  67.147  1.00  0.00    -0.130 C  
HETATM    8  C   UNL     1     -10.566   8.607  67.271  1.00  0.00    -0.308 C  
HETATM    9  C   UNL     1      -8.311   8.226  68.464  1.00  0.00    -0.129 C  
HETATM   10  O   UNL     1      -8.418   9.720  66.561  1.00  0.00    -0.123 OA 
BRANCH  10  11
HETATM   11  C   UNL     1      -8.914  10.968  66.799  1.00  0.00    -0.157 A  
HETATM   12  C   UNL     1      -8.786  11.673  67.991  1.00  0.00    -0.157 A  
HETATM   13  C   UNL     1      -9.504  12.849  68.197  1.00  0.00    -0.218 A  
HETATM   14  C   UNL     1     -10.308  13.366  67.179  1.00  0.00    -0.246 A  
HETATM   15  C   UNL     1     -10.289  12.765  65.917  1.00  0.00    -0.298 A  
HETATM   16  C   UNL     1      -9.602  11.559  65.737  1.00  0.00    -0.259 A  
BRANCH  14  17
HETATM   17  C   UNL     1     -11.165  14.531  67.504  1.00  0.00    -0.321 C  
HETATM   18  O   UNL     1     -12.334  14.332  67.828  1.00  0.00    -0.247 OA 
BRANCH  17  19
HETATM   19  C   UNL     1     -10.683  15.935  67.377  1.00  0.00    -0.313 A  
HETATM   20  C   UNL     1     -10.680  16.733  68.529  1.00  0.00    -0.358 A  
HETATM   21  C   UNL     1     -10.296  18.074  68.460  1.00  0.00    -0.359 A  
HETATM   22  C   UNL     1      -9.918  18.624  67.237  1.00  0.00    -0.329 A  
HETATM   23  C   UNL     1      -9.921  17.843  66.084  1.00  0.00    -0.288 A  
HETATM   24 CL   UNL     1      -9.471  20.282  67.145  1.00  0.00    -0.531 Cl 
HETATM   25  C   UNL     1     -10.317  16.503  66.149  1.00  0.00    -0.344 A  
ENDBRANCH  17  19
ENDBRANCH  14  17
ENDBRANCH  10  11
ENDBRANCH   4   5
ENDBRANCH   2   4
TORSDOF 5
ENDMDL
MODEL       65
REMARK 921   NORMALIZED FREE ENERGY PREDICTED BY IDOCK:   -4.60 KCAL/MOL
REMARK 922        TOTAL FREE ENERGY PREDICTED BY IDOCK:   -7.00 KCAL/MOL
REMARK 923 INTER-LIGAND FREE ENERGY PREDICTED BY IDOCK:   -6.05 KCAL/MOL
REMARK 924 INTRA-LIGAND FREE ENERGY PREDICTED BY IDOCK:   -0.95 KCAL/MOL
REMARK 927      BINDING AFFINITY PREDICTED BY RF-SCORE:    0.00 PKD
ROOT
HETATM    1  C   UNL     1      -7.124   6.257  68.351  1.00  0.00    -0.083 C  
HETATM    2  C   UNL     1      -6.894   7.707  67.950  1.00  0.00    -0.068 C  
HETATM    3  C   UNL     1      -5.849   7.797  66.845  1.00  0.00    -0.043 C  
ENDROOT
BRANCH   2   4
HETATM    4  O   UNL     1      -8.121   8.248  67.423  1.00  0.00    -0.118 OA 
BRANCH   4   5
HETATM    5  C   UNL     1      -8.720   9.250  68.142  1.00  0.00    -0.125 C  
HETATM    6  O   UNL     1      -8.676   9.340  69.362  1.00  0.00    -0.135 OA 
HETATM    7  C   UNL     1      -9.436  10.237  67.183  1.00  0.00    -0.158 C  
HETATM    8  C   UNL     1      -8.322  10.812  66.281  1.00  0.00    -0.160 C  
HETATM    9  C   UNL     1     -10.496   9.431  66.422  1.00  0.00    -0.165 C  
HETATM   10  O   UNL     1     -10.104  11.208  68.020  1.00  0.00    -0.167 OA 
BRANCH  10  11
HETATM   11  C   UNL     1     -10.337  12.478  67.582  1.00  0.00    -0.218 A  
HETATM   12  C   UNL     1     -11.321  12.849  66.672  1.00  0.00    -0.361 A  
HETATM   13  C   UNL     1     -11.340  14.136  66.138  1.00  0.00    -0.337 A  
HETATM   14  C   UNL     1     -10.408  15.085  66.563  1.00  0.00    -0.287 A  
HETATM   15  C   UNL     1      -9.542  14.772  67.615  1.00  0.00    -0.208 A  
HETATM   16  C   UNL     1      -9.501  13.464  68.111  1.00  0.00    -0.218 A  
BRANCH  14  17
HETATM   17  C   UNL     1     -10.377  16.386  65.853  1.00  0.00    -0.362 C  
HETATM   18  O   UNL     1     -10.947  16.480  64.768  1.00  0.00    -0.688 OA 
BRANCH  17  19
HETATM   19  C   UNL     1      -9.616  17.558  66.369  1.00  0.00    -0.283 A  
HETATM   20  C   UNL     1      -8.224  17.558  66.208  1.00  0.00    -0.275 A  
HETATM   21  C   UNL     1      -7.452  18.601  66.725  1.00  0.00    -0.240 A  
HETATM   22  C   UNL     1      -8.068  19.645  67.410  1.00  0.00    -0.288 A  
HETATM   23  C   UNL     1      -9.451  19.655  67.581  1.00  0.00    -0.438 A  
HETATM   24 CL   UNL     1      -7.117  20.916  68.070  1.00  0.00    -0.208 Cl 
HETATM   25  C   UNL     1     -10.225  18.606  67.075  1.00  0.00    -0.418 A  
ENDBRANCH  17  19
ENDBRANCH  14  17
ENDBRANCH  10  11
ENDBRANCH   4   5
ENDBRANCH   2   4
TORSDOF 5
ENDMDL
MODEL       66
REMARK 921   NORMALIZED FREE ENERGY PREDICTED BY IDOCK:   -4.59 KCAL/MOL
REMARK 922        TOTAL FREE ENERGY PREDICTED BY IDOCK:   -6.98 KCAL/MOL
REMARK 923 INTER-LIGAND FREE ENERGY PREDICTED BY IDOCK:   -5.90 KCAL/MOL
REMARK 924 INTRA-LIGAND FREE ENERGY PREDICTED BY IDOCK:   -1.08 KCAL/MOL
REMARK 927      BINDING AFFINITY PREDICTED BY RF-SCORE:    0.00 PKD
ROOT
HETATM    1  C   UNL     1      -6.272   4.915  65.783  1.00  0.00    -0.034 C  
HETATM    2  C   UNL     1      -6.674   6.336  65.415  1.00  0.00    -0.047 C  
HETATM    3  C   UNL     1      -6.830   6.475  63.906  1.00  0.00    -0.045 C  
ENDROOT
BRANCH   2   4
HETATM    4  O   UNL     1      -7.955   6.628  66.006  1.00  0.00    -0.103 OA 
BRANCH   4   5
HETATM    5  C   UNL     1      -7.992   7.616  66.956  1.00  0.00    -0.116 C  
HETATM    6  O   UNL     1      -7.110   7.807  67.784  1.00  0.00    -0.078 OA 
HETATM    7  C   UNL     1      -9.295   8.445  66.810  1.00  0.00    -0.184 C  
HETATM    8  C   UNL     1      -9.233   9.060  65.395  1.00  0.00    -0.241 C  
HETATM    9  C   UNL     1     -10.467   7.475  67.015  1.00  0.00    -0.409 C  
HETATM   10  O   UNL     1      -9.293   9.404  67.892  1.00  0.00    -0.129 OA 
BRANCH  10  11
HETATM   11  C   UNL     1      -9.929  10.604  67.774  1.00  0.00    -0.167 A  
HETATM   12  C   UNL     1     -11.306  10.794  67.805  1.00  0.00    -0.354 A  
HETATM   13  C   UNL     1     -11.857  12.029  67.470  1.00  0.00    -0.275 A  
HETATM   14  C   UNL     1     -11.025  13.107  67.164  1.00  0.00    -0.289 A  
HETATM   15  C   UNL     1      -9.642  12.972  67.319  1.00  0.00    -0.225 A  
HETATM   16  C   UNL     1      -9.099  11.715  67.610  1.00  0.00    -0.174 A  
BRANCH  14  17
HETATM   17  C   UNL     1     -11.663  14.350  66.668  1.00  0.00    -0.394 C  
HETATM   18  O   UNL     1     -12.645  14.257  65.935  1.00  0.00    -0.450 OA 
BRANCH  17  19
HETATM   19  C   UNL     1     -11.111  15.702  66.963  1.00  0.00    -0.200 A  
HETATM   20  C   UNL     1     -10.411  16.360  65.942  1.00  0.00    -0.378 A  
HETATM   21  C   UNL     1      -9.819  17.603  66.177  1.00  0.00    -0.253 A  
HETATM   22  C   UNL     1      -9.921  18.191  67.436  1.00  0.00    -0.323 A  
HETATM   23  C   UNL     1     -10.610  17.546  68.461  1.00  0.00    -0.312 A  
HETATM   24 CL   UNL     1      -9.170  19.709  67.736  1.00  0.00    -0.394 Cl 
HETATM   25  C   UNL     1     -11.193  16.295  68.230  1.00  0.00    -0.324 A  
ENDBRANCH  17  19
ENDBRANCH  14  17
ENDBRANCH  10  11
ENDBRANCH   4   5
ENDBRANCH   2   4
TORSDOF 5
ENDMDL
MODEL       67
REMARK 921   NORMALIZED FREE ENERGY PREDICTED BY IDOCK:   -4.58 KCAL/MOL
REMARK 922        TOTAL FREE ENERGY PREDICTED BY IDOCK:   -6.98 KCAL/MOL
REMARK 923 INTER-LIGAND FREE ENERGY PREDICTED BY IDOCK:   -7.04 KCAL/MOL
REMARK 924 INTRA-LIGAND FREE ENERGY PREDICTED BY IDOCK:    0.06 KCAL/MOL
REMARK 927      BINDING AFFINITY PREDICTED BY RF-SCORE:    0.00 PKD
ROOT
HETATM    1  C   UNL     1      -9.764  17.459  66.556  1.00  0.00    -0.302 C  
HETATM    2  C   UNL     1     -10.780  16.386  66.193  1.00  0.00    -0.173 C  
HETATM    3  C   UNL     1     -10.134  15.306  65.333  1.00  0.00    -0.397 C  
ENDROOT
BRANCH   2   4
HETATM    4  O   UNL     1     -11.242  15.751  67.400  1.00  0.00    -0.286 OA 
BRANCH   4   5
HETATM    5  C   UNL     1     -11.832  14.520  67.271  1.00  0.00    -0.392 C  
HETATM    6  O   UNL     1     -12.536  14.192  66.325  1.00  0.00    -0.449 OA 
HETATM    7  C   UNL     1     -11.462  13.623  68.481  1.00  0.00    -0.312 C  
HETATM    8  C   UNL     1      -9.924  13.491  68.439  1.00  0.00    -0.232 C  
HETATM    9  C   UNL     1     -11.990  14.329  69.738  1.00  0.00    -0.394 C  
HETATM   10  O   UNL     1     -12.185  12.383  68.308  1.00  0.00    -0.275 OA 
BRANCH  10  11
HETATM   11  C   UNL     1     -11.709  11.210  68.814  1.00  0.00    -0.326 A  
HETATM   12  C   UNL     1     -10.878  10.320  68.143  1.00  0.00    -0.312 A  
HETATM   13  C   UNL     1     -10.618   9.059  68.674  1.00  0.00    -0.194 A  
HETATM   14  C   UNL     1     -11.139   8.702  69.919  1.00  0.00    -0.119 A  
HETATM   15  C   UNL     1     -11.813   9.661  70.681  1.00  0.00    -0.331 A  
HETATM   16  C   UNL     1     -12.108  10.908  70.118  1.00  0.00    -0.431 A  
BRANCH  14  17
HETATM   17  C   UNL     1     -10.960   7.299  70.364  1.00  0.00    -0.252 C  
HETATM   18  O   UNL     1     -11.102   7.035  71.557  1.00  0.00    -0.236 OA 
BRANCH  17  19
HETATM   19  C   UNL     1     -10.538   6.216  69.434  1.00  0.00    -0.349 A  
HETATM   20  C   UNL     1      -9.557   5.318  69.876  1.00  0.00    -0.241 A  
HETATM   21  C   UNL     1      -9.078   4.318  69.026  1.00  0.00    -0.187 A  
HETATM   22  C   UNL     1      -9.575   4.215  67.729  1.00  0.00    -0.155 A  
HETATM   23  C   UNL     1     -10.547   5.104  67.275  1.00  0.00    -0.139 A  
HETATM   24 CL   UNL     1      -8.968   3.001  66.673  1.00  0.00    -0.157 Cl 
HETATM   25  C   UNL     1     -11.020   6.113  68.121  1.00  0.00    -0.398 A  
ENDBRANCH  17  19
ENDBRANCH  14  17
ENDBRANCH  10  11
ENDBRANCH   4   5
ENDBRANCH   2   4
TORSDOF 5
ENDMDL
MODEL       68
REMARK 921   NORMALIZED FREE ENERGY PREDICTED BY IDOCK:   -4.48 KCAL/MOL
REMARK 922        TOTAL FREE ENERGY PREDICTED BY IDOCK:   -6.85 KCAL/MOL
REMARK 923 INTER-LIGAND FREE ENERGY PREDICTED BY IDOCK:   -5.89 KCAL/MOL
REMARK 924 INTRA-LIGAND FREE ENERGY PREDICTED BY IDOCK:   -0.96 KCAL/MOL
REMARK 927      BINDING AFFINITY PREDICTED BY RF-SCORE:    0.00 PKD
ROOT
HETATM    1  C   UNL     1     -12.898  15.429  70.871  1.00  0.00    -0.536 C  
HETATM    2  C   UNL     1     -12.023  15.433  69.626  1.00  0.00    -0.343 C  
HETATM    3  C   UNL     1     -10.899  16.453  69.765  1.00  0.00    -0.343 C  
ENDROOT
BRANCH   2   4
HETATM    4  O   UNL     1     -11.409  14.138  69.481  1.00  0.00    -0.257 OA 
BRANCH   4   5
HETATM    5  C   UNL     1     -11.725  13.420  68.356  1.00  0.00    -0.355 C  
HETATM    6  O   UNL     1     -12.379  13.863  67.421  1.00  0.00    -0.316 OA 
HETATM    7  C   UNL     1     -11.122  11.994  68.449  1.00  0.00    -0.245 C  
HETATM    8  C   UNL     1      -9.595  12.200  68.546  1.00  0.00    -0.137 C  
HETATM    9  C   UNL     1     -11.738  11.328  69.686  1.00  0.00    -0.420 C  
HETATM   10  O   UNL     1     -11.568  11.285  67.270  1.00  0.00    -0.527 OA 
BRANCH  10  11
HETATM   11  C   UNL     1     -10.830  10.271  66.734  1.00  0.00    -0.087 A  
HETATM   12  C   UNL     1     -10.649   9.016  67.305  1.00  0.00    -0.301 A  
HETATM   13  C   UNL     1      -9.713   8.129  66.779  1.00  0.00    -0.303 A  
HETATM   14  C   UNL     1      -8.995   8.468  65.630  1.00  0.00    -0.209 A  
HETATM   15  C   UNL     1      -9.312   9.645  64.946  1.00  0.00    -0.306 A  
HETATM   16  C   UNL     1     -10.220  10.549  65.509  1.00  0.00    -0.325 A  
BRANCH  14  17
HETATM   17  C   UNL     1      -7.907   7.556  65.203  1.00  0.00    -0.122 C  
HETATM   18  O   UNL     1      -6.998   8.005  64.509  1.00  0.00    -0.068 OA 
BRANCH  17  19
HETATM   19  C   UNL     1      -7.917   6.101  65.521  1.00  0.00    -0.117 A  
HETATM   20  C   UNL     1      -8.544   5.236  64.613  1.00  0.00    -0.125 A  
HETATM   21  C   UNL     1      -8.638   3.870  64.886  1.00  0.00    -0.114 A  
HETATM   22  C   UNL     1      -8.110   3.363  66.071  1.00  0.00    -0.093 A  
HETATM   23  C   UNL     1      -7.489   4.211  66.984  1.00  0.00    -0.077 A  
HETATM   24 CL   UNL     1      -8.248   1.685  66.421  1.00  0.00    -0.080 Cl 
HETATM   25  C   UNL     1      -7.404   5.582  66.718  1.00  0.00    -0.083 A  
ENDBRANCH  17  19
ENDBRANCH  14  17
ENDBRANCH  10  11
ENDBRANCH   4   5
ENDBRANCH   2   4
TORSDOF 5
ENDMDL
MODEL       69
REMARK 921   NORMALIZED FREE ENERGY PREDICTED BY IDOCK:   -4.46 KCAL/MOL
REMARK 922        TOTAL FREE ENERGY PREDICTED BY IDOCK:   -6.82 KCAL/MOL
REMARK 923 INTER-LIGAND FREE ENERGY PREDICTED BY IDOCK:   -6.51 KCAL/MOL
REMARK 924 INTRA-LIGAND FREE ENERGY PREDICTED BY IDOCK:   -0.31 KCAL/MOL
REMARK 927      BINDING AFFINITY PREDICTED BY RF-SCORE:    0.00 PKD
ROOT
HETATM    1  C   UNL     1      -6.379  19.989  64.690  1.00  0.00    -0.302 C  
HETATM    2  C   UNL     1      -6.581  19.947  66.198  1.00  0.00    -0.215 C  
HETATM    3  C   UNL     1      -6.329  21.319  66.810  1.00  0.00    -0.373 C  
ENDROOT
BRANCH   2   4
HETATM    4  O   UNL     1      -7.951  19.599  66.477  1.00  0.00    -0.272 OA 
BRANCH   4   5
HETATM    5  C   UNL     1      -8.192  18.883  67.622  1.00  0.00    -0.267 C  
HETATM    6  O   UNL     1      -8.127  19.352  68.751  1.00  0.00    -0.359 OA 
HETATM    7  C   UNL     1      -8.563  17.420  67.265  1.00  0.00    -0.212 C  
HETATM    8  C   UNL     1      -9.846  17.520  66.411  1.00  0.00    -0.316 C  
HETATM    9  C   UNL     1      -7.364  16.825  66.516  1.00  0.00    -0.306 C  
HETATM   10  O   UNL     1      -8.720  16.721  68.521  1.00  0.00    -0.226 OA 
BRANCH  10  11
HETATM   11  C   UNL     1      -9.552  15.647  68.632  1.00  0.00    -0.202 A  
HETATM   12  C   UNL     1     -10.834  15.672  69.172  1.00  0.00    -0.246 A  
HETATM   13  C   UNL     1     -11.516  14.485  69.427  1.00  0.00    -0.323 A  
HETATM   14  C   UNL     1     -10.945  13.259  69.079  1.00  0.00    -0.249 A  
HETATM   15  C   UNL     1      -9.744  13.241  68.363  1.00  0.00    -0.198 A  
HETATM   16  C   UNL     1      -9.045  14.436  68.155  1.00  0.00    -0.194 A  
BRANCH  14  17
HETATM   17  C   UNL     1     -11.645  12.026  69.510  1.00  0.00    -0.321 C  
HETATM   18  O   UNL     1     -12.630  12.130  70.238  1.00  0.00    -0.109 OA 
BRANCH  17  19
HETATM   19  C   UNL     1     -11.153  10.665  69.156  1.00  0.00    -0.309 A  
HETATM   20  C   UNL     1     -11.046  10.341  67.797  1.00  0.00    -0.335 A  
HETATM   21  C   UNL     1     -10.648   9.060  67.404  1.00  0.00    -0.309 A  
HETATM   22  C   UNL     1     -10.361   8.098  68.369  1.00  0.00    -0.199 A  
HETATM   23  C   UNL     1     -10.469   8.406  69.724  1.00  0.00    -0.220 A  
HETATM   24 CL   UNL     1      -9.897   6.514  67.888  1.00  0.00    -0.125 Cl 
HETATM   25  C   UNL     1     -10.878   9.684  70.119  1.00  0.00    -0.325 A  
ENDBRANCH  17  19
ENDBRANCH  14  17
ENDBRANCH  10  11
ENDBRANCH   4   5
ENDBRANCH   2   4
TORSDOF 5
ENDMDL
MODEL       70
REMARK 921   NORMALIZED FREE ENERGY PREDICTED BY IDOCK:   -4.46 KCAL/MOL
REMARK 922        TOTAL FREE ENERGY PREDICTED BY IDOCK:   -6.82 KCAL/MOL
REMARK 923 INTER-LIGAND FREE ENERGY PREDICTED BY IDOCK:   -5.93 KCAL/MOL
REMARK 924 INTRA-LIGAND FREE ENERGY PREDICTED BY IDOCK:   -0.89 KCAL/MOL
REMARK 927      BINDING AFFINITY PREDICTED BY RF-SCORE:    0.00 PKD
ROOT
HETATM    1  C   UNL     1     -10.861  16.679  69.622  1.00  0.00    -0.282 C  
HETATM    2  C   UNL     1     -11.032  16.740  68.111  1.00  0.00    -0.309 C  
HETATM    3  C   UNL     1     -10.648  18.116  67.583  1.00  0.00    -0.424 C  
ENDROOT
BRANCH   2   4
HETATM    4  O   UNL     1     -10.142  15.785  67.501  1.00  0.00    -0.238 OA 
BRANCH   4   5
HETATM    5  C   UNL     1     -10.709  14.831  66.696  1.00  0.00    -0.309 C  
HETATM    6  O   UNL     1     -11.375  15.081  65.699  1.00  0.00    -0.345 OA 
HETATM    7  C   UNL     1     -10.367  13.414  67.228  1.00  0.00    -0.244 C  
HETATM    8  C   UNL     1      -8.827  13.317  67.178  1.00  0.00    -0.223 C  
HETATM    9  C   UNL     1     -10.949  13.318  68.645  1.00  0.00    -0.294 C  
HETATM   10  O   UNL     1     -11.066  12.478  66.376  1.00  0.00    -0.267 OA 
BRANCH  10  11
HETATM   11  C   UNL     1     -10.590  11.217  66.173  1.00  0.00    -0.248 A  
HETATM   12  C   UNL     1     -10.596  10.191  67.112  1.00  0.00    -0.308 A  
HETATM   13  C   UNL     1      -9.900   9.008  66.871  1.00  0.00    -0.288 A  
HETATM   14  C   UNL     1      -9.246   8.816  65.653  1.00  0.00    -0.244 A  
HETATM   15  C   UNL     1      -9.399   9.762  64.635  1.00  0.00    -0.318 A  
HETATM   16  C   UNL     1     -10.059  10.967  64.905  1.00  0.00    -0.374 A  
BRANCH  14  17
HETATM   17  C   UNL     1      -8.399   7.608  65.510  1.00  0.00    -0.135 C  
HETATM   18  O   UNL     1      -7.419   7.659  64.768  1.00  0.00    -0.081 OA 
BRANCH  17  19
HETATM   19  C   UNL     1      -8.733   6.316  66.171  1.00  0.00    -0.148 A  
HETATM   20  C   UNL     1      -7.826   5.806  67.109  1.00  0.00    -0.102 A  
HETATM   21  C   UNL     1      -8.056   4.570  67.717  1.00  0.00    -0.099 A  
HETATM   22  C   UNL     1      -9.193   3.837  67.386  1.00  0.00    -0.183 A  
HETATM   23  C   UNL     1     -10.101   4.330  66.452  1.00  0.00    -0.177 A  
HETATM   24 CL   UNL     1      -9.465   2.302  68.113  1.00  0.00    -0.260 Cl 
HETATM   25  C   UNL     1      -9.866   5.563  65.833  1.00  0.00    -0.029 A  
ENDBRANCH  17  19
ENDBRANCH  14  17
ENDBRANCH  10  11
ENDBRANCH   4   5
ENDBRANCH   2   4
TORSDOF 5
ENDMDL
MODEL       71
REMARK 921   NORMALIZED FREE ENERGY PREDICTED BY IDOCK:   -4.45 KCAL/MOL
REMARK 922        TOTAL FREE ENERGY PREDICTED BY IDOCK:   -6.81 KCAL/MOL
REMARK 923 INTER-LIGAND FREE ENERGY PREDICTED BY IDOCK:   -5.98 KCAL/MOL
REMARK 924 INTRA-LIGAND FREE ENERGY PREDICTED BY IDOCK:   -0.83 KCAL/MOL
REMARK 927      BINDING AFFINITY PREDICTED BY RF-SCORE:    0.00 PKD
ROOT
HETATM    1  C   UNL     1      -9.219  18.329  67.904  1.00  0.00    -0.284 C  
HETATM    2  C   UNL     1     -10.491  18.083  67.105  1.00  0.00    -0.367 C  
HETATM    3  C   UNL     1     -10.556  19.013  65.900  1.00  0.00    -0.466 C  
ENDROOT
BRANCH   2   4
HETATM    4  O   UNL     1     -10.474  16.733  66.603  1.00  0.00    -0.304 OA 
BRANCH   4   5
HETATM    5  C   UNL     1     -10.826  15.737  67.477  1.00  0.00    -0.315 C  
HETATM    6  O   UNL     1     -11.690  15.852  68.337  1.00  0.00    -0.358 OA 
HETATM    7  C   UNL     1      -9.982  14.465  67.202  1.00  0.00    -0.253 C  
HETATM    8  C   UNL     1     -10.321  14.054  65.753  1.00  0.00    -0.330 C  
HETATM    9  C   UNL     1      -8.511  14.851  67.409  1.00  0.00    -0.212 C  
HETATM   10  O   UNL     1     -10.355  13.500  68.213  1.00  0.00    -0.239 OA 
BRANCH  10  11
HETATM   11  C   UNL     1     -10.271  12.160  67.976  1.00  0.00    -0.201 A  
HETATM   12  C   UNL     1     -11.240  11.391  67.342  1.00  0.00    -0.370 A  
HETATM   13  C   UNL     1     -11.145  10.001  67.335  1.00  0.00    -0.157 A  
HETATM   14  C   UNL     1     -10.039   9.371  67.909  1.00  0.00    -0.239 A  
HETATM   15  C   UNL     1      -8.973  10.147  68.374  1.00  0.00    -0.123 A  
HETATM   16  C   UNL     1      -9.100  11.540  68.419  1.00  0.00    -0.185 A  
BRANCH  14  17
HETATM   17  C   UNL     1     -10.063   7.892  68.009  1.00  0.00    -0.192 C  
HETATM   18  O   UNL     1     -10.422   7.378  69.066  1.00  0.00    -0.207 OA 
BRANCH  17  19
HETATM   19  C   UNL     1      -9.597   7.011  66.903  1.00  0.00    -0.214 A  
HETATM   20  C   UNL     1     -10.244   5.780  66.729  1.00  0.00    -0.269 A  
HETATM   21  C   UNL     1      -9.811   4.884  65.748  1.00  0.00    -0.186 A  
HETATM   22  C   UNL     1      -8.726   5.215  64.939  1.00  0.00    -0.140 A  
HETATM   23  C   UNL     1      -8.071   6.434  65.104  1.00  0.00    -0.136 A  
HETATM   24 CL   UNL     1      -8.175   4.104  63.749  1.00  0.00    -0.091 Cl 
HETATM   25  C   UNL     1      -8.496   7.326  66.094  1.00  0.00    -0.144 A  
ENDBRANCH  17  19
ENDBRANCH  14  17
ENDBRANCH  10  11
ENDBRANCH   4   5
ENDBRANCH   2   4
TORSDOF 5
ENDMDL
MODEL       72
REMARK 921   NORMALIZED FREE ENERGY PREDICTED BY IDOCK:   -4.44 KCAL/MOL
REMARK 922        TOTAL FREE ENERGY PREDICTED BY IDOCK:   -6.79 KCAL/MOL
REMARK 923 INTER-LIGAND FREE ENERGY PREDICTED BY IDOCK:   -5.97 KCAL/MOL
REMARK 924 INTRA-LIGAND FREE ENERGY PREDICTED BY IDOCK:   -0.82 KCAL/MOL
REMARK 927      BINDING AFFINITY PREDICTED BY RF-SCORE:    0.00 PKD
ROOT
HETATM    1  C   UNL     1     -11.542   7.392  70.410  1.00  0.00    -0.210 C  
HETATM    2  C   UNL     1     -10.493   8.473  70.197  1.00  0.00    -0.220 C  
HETATM    3  C   UNL     1      -9.114   7.852  70.009  1.00  0.00    -0.152 C  
ENDROOT
BRANCH   2   4
HETATM    4  O   UNL     1     -10.804   9.196  68.991  1.00  0.00    -0.191 OA 
BRANCH   4   5
HETATM    5  C   UNL     1     -11.261  10.481  69.134  1.00  0.00    -0.256 C  
HETATM    6  O   UNL     1     -12.180  10.804  69.876  1.00  0.00    -0.318 OA 
HETATM    7  C   UNL     1     -10.437  11.441  68.236  1.00  0.00    -0.198 C  
HETATM    8  C   UNL     1      -8.982  11.327  68.741  1.00  0.00    -0.116 C  
HETATM    9  C   UNL     1     -10.630  10.974  66.788  1.00  0.00    -0.317 C  
HETATM   10  O   UNL     1     -11.033  12.751  68.385  1.00  0.00    -0.232 OA 
BRANCH  10  11
HETATM   11  C   UNL     1     -10.293  13.885  68.226  1.00  0.00    -0.249 A  
HETATM   12  C   UNL     1      -9.482  14.173  67.134  1.00  0.00    -0.237 A  
HETATM   13  C   UNL     1      -8.613  15.262  67.168  1.00  0.00    -0.236 A  
HETATM   14  C   UNL     1      -8.599  16.113  68.274  1.00  0.00    -0.182 A  
HETATM   15  C   UNL     1      -9.547  15.938  69.286  1.00  0.00    -0.266 A  
HETATM   16  C   UNL     1     -10.382  14.815  69.265  1.00  0.00    -0.213 A  
BRANCH  14  17
HETATM   17  C   UNL     1      -7.552  17.162  68.322  1.00  0.00    -0.224 C  
HETATM   18  O   UNL     1      -6.921  17.319  69.365  1.00  0.00    -0.225 OA 
BRANCH  17  19
HETATM   19  C   UNL     1      -7.292  18.082  67.180  1.00  0.00    -0.214 A  
HETATM   20  C   UNL     1      -6.165  17.835  66.384  1.00  0.00    -0.246 A  
HETATM   21  C   UNL     1      -5.836  18.698  65.336  1.00  0.00    -0.267 A  
HETATM   22  C   UNL     1      -6.630  19.814  65.083  1.00  0.00    -0.280 A  
HETATM   23  C   UNL     1      -7.751  20.073  65.868  1.00  0.00    -0.298 A  
HETATM   24 CL   UNL     1      -6.212  20.892  63.810  1.00  0.00    -0.342 Cl 
HETATM   25  C   UNL     1      -8.076  19.217  66.926  1.00  0.00    -0.277 A  
ENDBRANCH  17  19
ENDBRANCH  14  17
ENDBRANCH  10  11
ENDBRANCH   4   5
ENDBRANCH   2   4
TORSDOF 5
ENDMDL
MODEL       73
REMARK 921   NORMALIZED FREE ENERGY PREDICTED BY IDOCK:   -4.42 KCAL/MOL
REMARK 922        TOTAL FREE ENERGY PREDICTED BY IDOCK:   -6.76 KCAL/MOL
REMARK 923 INTER-LIGAND FREE ENERGY PREDICTED BY IDOCK:   -6.73 KCAL/MOL
REMARK 924 INTRA-LIGAND FREE ENERGY PREDICTED BY IDOCK:   -0.03 KCAL/MOL
REMARK 927      BINDING AFFINITY PREDICTED BY RF-SCORE:    0.00 PKD
ROOT
HETATM    1  C   UNL     1      -6.741  20.324  65.654  1.00  0.00    -0.287 C  
HETATM    2  C   UNL     1      -7.142  19.917  67.064  1.00  0.00    -0.217 C  
HETATM    3  C   UNL     1      -6.784  21.013  68.061  1.00  0.00    -0.226 C  
ENDROOT
BRANCH   2   4
HETATM    4  O   UNL     1      -8.571  19.745  67.113  1.00  0.00    -0.298 OA 
BRANCH   4   5
HETATM    5  C   UNL     1      -9.068  18.931  68.098  1.00  0.00    -0.313 C  
HETATM    6  O   UNL     1      -9.707  19.331  69.063  1.00  0.00    -0.414 OA 
HETATM    7  C   UNL     1      -8.712  17.452  67.794  1.00  0.00    -0.232 C  
HETATM    8  C   UNL     1      -9.388  17.137  66.441  1.00  0.00    -0.286 C  
HETATM    9  C   UNL     1      -7.181  17.359  67.759  1.00  0.00    -0.177 C  
HETATM   10  O   UNL     1      -9.199  16.676  68.913  1.00  0.00    -0.247 OA 
BRANCH  10  11
HETATM   11  C   UNL     1      -9.570  15.373  68.762  1.00  0.00    -0.209 A  
HETATM   12  C   UNL     1      -8.716  14.322  68.446  1.00  0.00    -0.181 A  
HETATM   13  C   UNL     1      -9.229  13.071  68.113  1.00  0.00    -0.212 A  
HETATM   14  C   UNL     1     -10.606  12.843  68.160  1.00  0.00    -0.249 A  
HETATM   15  C   UNL     1     -11.449  13.838  68.661  1.00  0.00    -0.336 A  
HETATM   16  C   UNL     1     -10.929  15.106  68.947  1.00  0.00    -0.256 A  
BRANCH  14  17
HETATM   17  C   UNL     1     -11.106  11.544  67.650  1.00  0.00    -0.266 C  
HETATM   18  O   UNL     1     -12.109  11.054  68.166  1.00  0.00    -0.610 OA 
BRANCH  17  19
HETATM   19  C   UNL     1     -10.395  10.775  66.591  1.00  0.00    -0.294 A  
HETATM   20  C   UNL     1     -10.511  11.222  65.268  1.00  0.00    -0.341 A  
HETATM   21  C   UNL     1      -9.916  10.509  64.225  1.00  0.00    -0.398 A  
HETATM   22  C   UNL     1      -9.207   9.342  64.501  1.00  0.00    -0.092 A  
HETATM   23  C   UNL     1      -9.087   8.884  65.811  1.00  0.00    -0.276 A  
HETATM   24 CL   UNL     1      -8.496   8.447  63.216  1.00  0.00    -0.074 Cl 
HETATM   25  C   UNL     1      -9.692   9.591  66.856  1.00  0.00    -0.237 A  
ENDBRANCH  17  19
ENDBRANCH  14  17
ENDBRANCH  10  11
ENDBRANCH   4   5
ENDBRANCH   2   4
TORSDOF 5
ENDMDL
MODEL       74
REMARK 921   NORMALIZED FREE ENERGY PREDICTED BY IDOCK:   -4.40 KCAL/MOL
REMARK 922        TOTAL FREE ENERGY PREDICTED BY IDOCK:   -6.74 KCAL/MOL
REMARK 923 INTER-LIGAND FREE ENERGY PREDICTED BY IDOCK:   -6.07 KCAL/MOL
REMARK 924 INTRA-LIGAND FREE ENERGY PREDICTED BY IDOCK:   -0.68 KCAL/MOL
REMARK 927      BINDING AFFINITY PREDICTED BY RF-SCORE:    0.00 PKD
ROOT
HETATM    1  C   UNL     1      -7.076   4.555  69.968  1.00  0.00    -0.049 C  
HETATM    2  C   UNL     1      -8.458   5.078  69.604  1.00  0.00    -0.088 C  
HETATM    3  C   UNL     1      -9.527   4.403  70.454  1.00  0.00    -0.245 C  
ENDROOT
BRANCH   2   4
HETATM    4  O   UNL     1      -8.515   6.489  69.887  1.00  0.00    -0.132 OA 
BRANCH   4   5
HETATM    5  C   UNL     1      -8.416   7.344  68.820  1.00  0.00    -0.129 C  
HETATM    6  O   UNL     1      -7.951   7.032  67.731  1.00  0.00    -0.111 OA 
HETATM    7  C   UNL     1      -8.986   8.736  69.199  1.00  0.00    -0.137 C  
HETATM    8  C   UNL     1     -10.468   8.488  69.556  1.00  0.00    -0.222 C  
HETATM    9  C   UNL     1      -8.145   9.259  70.371  1.00  0.00    -0.178 C  
HETATM   10  O   UNL     1      -8.770   9.592  68.054  1.00  0.00    -0.120 OA 
BRANCH  10  11
HETATM   11  C   UNL     1      -9.593  10.647  67.795  1.00  0.00    -0.157 A  
HETATM   12  C   UNL     1     -10.713  10.614  66.972  1.00  0.00    -0.317 A  
HETATM   13  C   UNL     1     -11.362  11.794  66.614  1.00  0.00    -0.381 A  
HETATM   14  C   UNL     1     -10.931  13.016  67.134  1.00  0.00    -0.293 A  
HETATM   15  C   UNL     1      -9.929  13.032  68.109  1.00  0.00    -0.231 A  
HETATM   16  C   UNL     1      -9.254  11.847  68.425  1.00  0.00    -0.173 A  
BRANCH  14  17
HETATM   17  C   UNL     1     -11.557  14.250  66.602  1.00  0.00    -0.383 C  
HETATM   18  O   UNL     1     -12.437  14.145  65.749  1.00  0.00    -0.466 OA 
BRANCH  17  19
HETATM   19  C   UNL     1     -11.107  15.611  67.006  1.00  0.00    -0.200 A  
HETATM   20  C   UNL     1     -10.491  16.412  66.035  1.00  0.00    -0.333 A  
HETATM   21  C   UNL     1      -9.993  17.673  66.369  1.00  0.00    -0.337 A  
HETATM   22  C   UNL     1     -10.105  18.137  67.678  1.00  0.00    -0.359 A  
HETATM   23  C   UNL     1     -10.711  17.349  68.654  1.00  0.00    -0.249 A  
HETATM   24 CL   UNL     1      -9.470  19.678  68.098  1.00  0.00    -0.426 Cl 
HETATM   25  C   UNL     1     -11.199  16.080  68.324  1.00  0.00    -0.350 A  
ENDBRANCH  17  19
ENDBRANCH  14  17
ENDBRANCH  10  11
ENDBRANCH   4   5
ENDBRANCH   2   4
TORSDOF 5
ENDMDL
MODEL       75
REMARK 921   NORMALIZED FREE ENERGY PREDICTED BY IDOCK:   -4.37 KCAL/MOL
REMARK 922        TOTAL FREE ENERGY PREDICTED BY IDOCK:   -6.71 KCAL/MOL
REMARK 923 INTER-LIGAND FREE ENERGY PREDICTED BY IDOCK:   -5.78 KCAL/MOL
REMARK 924 INTRA-LIGAND FREE ENERGY PREDICTED BY IDOCK:   -0.93 KCAL/MOL
REMARK 927      BINDING AFFINITY PREDICTED BY RF-SCORE:    0.00 PKD
ROOT
HETATM    1  C   UNL     1     -10.775  19.716  66.829  1.00  0.00    -0.562 C  
HETATM    2  C   UNL     1      -9.795  18.555  66.904  1.00  0.00    -0.334 C  
HETATM    3  C   UNL     1      -9.003  18.605  68.205  1.00  0.00    -0.335 C  
ENDROOT
BRANCH   2   4
HETATM    4  O   UNL     1     -10.533  17.318  66.900  1.00  0.00    -0.319 OA 
BRANCH   4   5
HETATM    5  C   UNL     1      -9.899  16.215  66.389  1.00  0.00    -0.284 C  
HETATM    6  O   UNL     1      -9.053  16.257  65.505  1.00  0.00    -0.374 OA 
HETATM    7  C   UNL     1     -10.402  14.933  67.104  1.00  0.00    -0.260 C  
HETATM    8  C   UNL     1     -10.037  15.124  68.593  1.00  0.00    -0.222 C  
HETATM    9  C   UNL     1     -11.911  14.839  66.842  1.00  0.00    -0.279 C  
HETATM   10  O   UNL     1      -9.748  13.819  66.455  1.00  0.00    -0.282 OA 
BRANCH  10  11
HETATM   11  C   UNL     1      -9.499  12.658  67.124  1.00  0.00    -0.214 A  
HETATM   12  C   UNL     1      -8.347  12.378  67.851  1.00  0.00    -0.165 A  
HETATM   13  C   UNL     1      -8.105  11.089  68.322  1.00  0.00    -0.128 A  
HETATM   14  C   UNL     1      -9.052  10.082  68.125  1.00  0.00    -0.121 A  
HETATM   15  C   UNL     1     -10.292  10.406  67.565  1.00  0.00    -0.268 A  
HETATM   16  C   UNL     1     -10.504  11.691  67.053  1.00  0.00    -0.258 A  
BRANCH  14  17
HETATM   17  C   UNL     1      -8.678   8.700  68.511  1.00  0.00    -0.139 C  
HETATM   18  O   UNL     1      -8.458   7.879  67.623  1.00  0.00    -0.126 OA 
BRANCH  17  19
HETATM   19  C   UNL     1      -8.635   8.253  69.931  1.00  0.00    -0.125 A  
HETATM   20  C   UNL     1      -9.776   8.462  70.718  1.00  0.00    -0.207 A  
HETATM   21  C   UNL     1      -9.775   8.119  72.072  1.00  0.00    -0.292 A  
HETATM   22  C   UNL     1      -8.630   7.569  72.645  1.00  0.00    -0.118 A  
HETATM   23  C   UNL     1      -7.488   7.360  71.876  1.00  0.00    -0.080 A  
HETATM   24 CL   UNL     1      -8.617   7.171  74.318  1.00  0.00    -0.207 Cl 
HETATM   25  C   UNL     1      -7.484   7.714  70.522  1.00  0.00    -0.079 A  
ENDBRANCH  17  19
ENDBRANCH  14  17
ENDBRANCH  10  11
ENDBRANCH   4   5
ENDBRANCH   2   4
TORSDOF 5
ENDMDL
MODEL       76
REMARK 921   NORMALIZED FREE ENERGY PREDICTED BY IDOCK:   -4.34 KCAL/MOL
REMARK 922        TOTAL FREE ENERGY PREDICTED BY IDOCK:   -6.67 KCAL/MOL
REMARK 923 INTER-LIGAND FREE ENERGY PREDICTED BY IDOCK:   -5.61 KCAL/MOL
REMARK 924 INTRA-LIGAND FREE ENERGY PREDICTED BY IDOCK:   -1.06 KCAL/MOL
REMARK 927      BINDING AFFINITY PREDICTED BY RF-SCORE:    0.00 PKD
ROOT
HETATM    1  C   UNL     1      -9.545   4.103  74.334  1.00  0.00    -0.137 C  
HETATM    2  C   UNL     1     -10.043   3.543  73.010  1.00  0.00    -0.149 C  
HETATM    3  C   UNL     1     -11.221   2.603  73.235  1.00  0.00    -0.208 C  
ENDROOT
BRANCH   2   4
HETATM    4  O   UNL     1     -10.514   4.628  72.189  1.00  0.00    -0.197 OA 
BRANCH   4   5
HETATM    5  C   UNL     1      -9.887   4.817  70.984  1.00  0.00    -0.197 C  
HETATM    6  O   UNL     1      -9.503   3.906  70.260  1.00  0.00    -0.152 OA 
HETATM    7  C   UNL     1      -9.756   6.333  70.683  1.00  0.00    -0.176 C  
HETATM    8  C   UNL     1     -11.205   6.865  70.626  1.00  0.00    -0.346 C  
HETATM    9  C   UNL     1      -8.915   6.941  71.813  1.00  0.00    -0.138 C  
HETATM   10  O   UNL     1      -9.017   6.442  69.445  1.00  0.00    -0.131 OA 
BRANCH  10  11
HETATM   11  C   UNL     1      -9.191   7.505  68.610  1.00  0.00    -0.144 A  
HETATM   12  C   UNL     1      -8.622   8.763  68.776  1.00  0.00    -0.137 A  
HETATM   13  C   UNL     1      -9.028   9.833  67.981  1.00  0.00    -0.118 A  
HETATM   14  C   UNL     1      -9.964   9.634  66.964  1.00  0.00    -0.263 A  
HETATM   15  C   UNL     1     -10.393   8.337  66.671  1.00  0.00    -0.293 A  
HETATM   16  C   UNL     1     -10.016   7.279  67.505  1.00  0.00    -0.218 A  
BRANCH  14  17
HETATM   17  C   UNL     1     -10.472  10.832  66.253  1.00  0.00    -0.226 C  
HETATM   18  O   UNL     1     -10.783  10.727  65.068  1.00  0.00    -0.229 OA 
BRANCH  17  19
HETATM   19  C   UNL     1     -10.545  12.172  66.900  1.00  0.00    -0.257 A  
HETATM   20  C   UNL     1     -11.518  12.369  67.889  1.00  0.00    -0.385 A  
HETATM   21  C   UNL     1     -11.675  13.621  68.488  1.00  0.00    -0.392 A  
HETATM   22  C   UNL     1     -10.861  14.682  68.097  1.00  0.00    -0.252 A  
HETATM   23  C   UNL     1      -9.893  14.501  67.112  1.00  0.00    -0.245 A  
HETATM   24 CL   UNL     1     -11.070  16.231  68.814  1.00  0.00    -0.343 Cl 
HETATM   25  C   UNL     1      -9.742  13.251  66.502  1.00  0.00    -0.273 A  
ENDBRANCH  17  19
ENDBRANCH  14  17
ENDBRANCH  10  11
ENDBRANCH   4   5
ENDBRANCH   2   4
TORSDOF 5
ENDMDL
MODEL       77
REMARK 921   NORMALIZED FREE ENERGY PREDICTED BY IDOCK:   -4.33 KCAL/MOL
REMARK 922        TOTAL FREE ENERGY PREDICTED BY IDOCK:   -6.65 KCAL/MOL
REMARK 923 INTER-LIGAND FREE ENERGY PREDICTED BY IDOCK:   -6.59 KCAL/MOL
REMARK 924 INTRA-LIGAND FREE ENERGY PREDICTED BY IDOCK:   -0.07 KCAL/MOL
REMARK 927      BINDING AFFINITY PREDICTED BY RF-SCORE:    0.00 PKD
ROOT
HETATM    1  C   UNL     1      -6.959   5.974  68.190  1.00  0.00    -0.076 C  
HETATM    2  C   UNL     1      -6.358   5.485  66.880  1.00  0.00    -0.039 C  
HETATM    3  C   UNL     1      -6.816   4.063  66.579  1.00  0.00    -0.058 C  
ENDROOT
BRANCH   2   4
HETATM    4  O   UNL     1      -6.830   6.322  65.807  1.00  0.00    -0.050 OA 
BRANCH   4   5
HETATM    5  C   UNL     1      -8.127   6.762  65.883  1.00  0.00    -0.123 C  
HETATM    6  O   UNL     1      -9.063   6.075  66.268  1.00  0.00    -0.145 OA 
HETATM    7  C   UNL     1      -8.213   8.242  65.426  1.00  0.00    -0.145 C  
HETATM    8  C   UNL     1      -7.318   9.028  66.409  1.00  0.00    -0.088 C  
HETATM    9  C   UNL     1      -7.727   8.289  63.972  1.00  0.00    -0.140 C  
HETATM   10  O   UNL     1      -9.614   8.598  65.459  1.00  0.00    -0.085 OA 
BRANCH  10  11
HETATM   11  C   UNL     1     -10.011   9.885  65.672  1.00  0.00    -0.283 A  
HETATM   12  C   UNL     1     -10.490  10.392  66.875  1.00  0.00    -0.300 A  
HETATM   13  C   UNL     1     -11.060  11.662  66.929  1.00  0.00    -0.365 A  
HETATM   14  C   UNL     1     -11.094  12.464  65.787  1.00  0.00    -0.351 A  
HETATM   15  C   UNL     1     -10.444  12.034  64.627  1.00  0.00    -0.338 A  
HETATM   16  C   UNL     1      -9.917  10.738  64.570  1.00  0.00    -0.395 A  
BRANCH  14  17
HETATM   17  C   UNL     1     -11.846  13.739  65.863  1.00  0.00    -0.383 C  
HETATM   18  O   UNL     1     -12.933  13.819  65.294  1.00  0.00    -0.731 OA 
BRANCH  17  19
HETATM   19  C   UNL     1     -11.298  14.949  66.538  1.00  0.00    -0.319 A  
HETATM   20  C   UNL     1     -11.647  15.166  67.878  1.00  0.00    -0.326 A  
HETATM   21  C   UNL     1     -11.213  16.313  68.545  1.00  0.00    -0.359 A  
HETATM   22  C   UNL     1     -10.431  17.251  67.874  1.00  0.00    -0.382 A  
HETATM   23  C   UNL     1     -10.081  17.050  66.540  1.00  0.00    -0.318 A  
HETATM   24 CL   UNL     1      -9.918  18.677  68.685  1.00  0.00    -0.415 Cl 
HETATM   25  C   UNL     1     -10.525  15.907  65.867  1.00  0.00    -0.373 A  
ENDBRANCH  17  19
ENDBRANCH  14  17
ENDBRANCH  10  11
ENDBRANCH   4   5
ENDBRANCH   2   4
TORSDOF 5
ENDMDL
MODEL       78
REMARK 921   NORMALIZED FREE ENERGY PREDICTED BY IDOCK:   -4.30 KCAL/MOL
REMARK 922        TOTAL FREE ENERGY PREDICTED BY IDOCK:   -6.60 KCAL/MOL
REMARK 923 INTER-LIGAND FREE ENERGY PREDICTED BY IDOCK:   -5.84 KCAL/MOL
REMARK 924 INTRA-LIGAND FREE ENERGY PREDICTED BY IDOCK:   -0.77 KCAL/MOL
REMARK 927      BINDING AFFINITY PREDICTED BY RF-SCORE:    0.00 PKD
ROOT
HETATM    1  C   UNL     1      -7.305  21.047  67.115  1.00  0.00    -0.304 C  
HETATM    2  C   UNL     1      -8.438  20.088  67.452  1.00  0.00    -0.336 C  
HETATM    3  C   UNL     1      -9.383  19.939  66.266  1.00  0.00    -0.474 C  
ENDROOT
BRANCH   2   4
HETATM    4  O   UNL     1      -7.884  18.786  67.724  1.00  0.00    -0.238 OA 
BRANCH   4   5
HETATM    5  C   UNL     1      -8.740  17.836  68.219  1.00  0.00    -0.277 C  
HETATM    6  O   UNL     1      -9.721  18.087  68.907  1.00  0.00    -0.322 OA 
HETATM    7  C   UNL     1      -8.284  16.424  67.767  1.00  0.00    -0.154 C  
HETATM    8  C   UNL     1      -8.341  16.448  66.224  1.00  0.00    -0.362 C  
HETATM    9  C   UNL     1      -6.874  16.207  68.333  1.00  0.00    -0.128 C  
HETATM   10  O   UNL     1      -9.186  15.483  68.395  1.00  0.00    -0.184 OA 
BRANCH  10  11
HETATM   11  C   UNL     1      -9.456  14.275  67.825  1.00  0.00    -0.216 A  
HETATM   12  C   UNL     1     -10.668  13.909  67.248  1.00  0.00    -0.286 A  
HETATM   13  C   UNL     1     -10.903  12.586  66.881  1.00  0.00    -0.280 A  
HETATM   14  C   UNL     1      -9.897  11.628  67.027  1.00  0.00    -0.211 A  
HETATM   15  C   UNL     1      -8.620  12.031  67.425  1.00  0.00    -0.171 A  
HETATM   16  C   UNL     1      -8.408  13.352  67.837  1.00  0.00    -0.166 A  
BRANCH  14  17
HETATM   17  C   UNL     1     -10.251  10.212  66.765  1.00  0.00    -0.228 C  
HETATM   18  O   UNL     1     -11.142   9.693  67.434  1.00  0.00    -0.183 OA 
BRANCH  17  19
HETATM   19  C   UNL     1      -9.515   9.377  65.775  1.00  0.00    -0.325 A  
HETATM   20  C   UNL     1      -8.977   8.161  66.216  1.00  0.00    -0.215 A  
HETATM   21  C   UNL     1      -8.226   7.363  65.351  1.00  0.00    -0.135 A  
HETATM   22  C   UNL     1      -8.005   7.782  64.040  1.00  0.00    -0.104 A  
HETATM   23  C   UNL     1      -8.530   8.991  63.590  1.00  0.00    -0.173 A  
HETATM   24 CL   UNL     1      -7.058   6.815  62.980  1.00  0.00    -0.055 Cl 
HETATM   25  C   UNL     1      -9.274   9.797  64.459  1.00  0.00    -0.310 A  
ENDBRANCH  17  19
ENDBRANCH  14  17
ENDBRANCH  10  11
ENDBRANCH   4   5
ENDBRANCH   2   4
TORSDOF 5
ENDMDL
MODEL       79
REMARK 921   NORMALIZED FREE ENERGY PREDICTED BY IDOCK:   -4.26 KCAL/MOL
REMARK 922        TOTAL FREE ENERGY PREDICTED BY IDOCK:   -6.56 KCAL/MOL
REMARK 923 INTER-LIGAND FREE ENERGY PREDICTED BY IDOCK:   -5.50 KCAL/MOL
REMARK 924 INTRA-LIGAND FREE ENERGY PREDICTED BY IDOCK:   -1.06 KCAL/MOL
REMARK 927      BINDING AFFINITY PREDICTED BY RF-SCORE:    0.00 PKD
ROOT
HETATM    1  C   UNL     1      -9.825   5.161  68.703  1.00  0.00    -0.225 C  
HETATM    2  C   UNL     1     -10.717   6.368  68.948  1.00  0.00    -0.288 C  
HETATM    3  C   UNL     1     -11.516   6.192  70.233  1.00  0.00    -0.357 C  
ENDROOT
BRANCH   2   4
HETATM    4  O   UNL     1      -9.890   7.536  69.116  1.00  0.00    -0.165 OA 
BRANCH   4   5
HETATM    5  C   UNL     1      -9.814   8.404  68.058  1.00  0.00    -0.169 C  
HETATM    6  O   UNL     1     -10.599   8.411  67.119  1.00  0.00    -0.311 OA 
HETATM    7  C   UNL     1      -8.611   9.366  68.245  1.00  0.00    -0.120 C  
HETATM    8  C   UNL     1      -8.899  10.133  69.553  1.00  0.00    -0.198 C  
HETATM    9  C   UNL     1      -7.349   8.495  68.300  1.00  0.00    -0.094 C  
HETATM   10  O   UNL     1      -8.557  10.187  67.055  1.00  0.00    -0.128 OA 
BRANCH  10  11
HETATM   11  C   UNL     1      -8.040  11.448  67.091  1.00  0.00    -0.155 A  
HETATM   12  C   UNL     1      -6.695  11.764  67.251  1.00  0.00    -0.133 A  
HETATM   13  C   UNL     1      -6.302  13.081  67.479  1.00  0.00    -0.153 A  
HETATM   14  C   UNL     1      -7.251  14.105  67.482  1.00  0.00    -0.188 A  
HETATM   15  C   UNL     1      -8.573  13.817  67.132  1.00  0.00    -0.210 A  
HETATM   16  C   UNL     1      -8.965  12.485  66.952  1.00  0.00    -0.212 A  
BRANCH  14  17
HETATM   17  C   UNL     1      -6.800  15.460  67.880  1.00  0.00    -0.149 C  
HETATM   18  O   UNL     1      -5.711  15.580  68.439  1.00  0.00    -0.095 OA 
BRANCH  17  19
HETATM   19  C   UNL     1      -7.650  16.669  67.697  1.00  0.00    -0.170 A  
HETATM   20  C   UNL     1      -7.559  17.355  66.479  1.00  0.00    -0.317 A  
HETATM   21  C   UNL     1      -8.286  18.530  66.271  1.00  0.00    -0.235 A  
HETATM   22  C   UNL     1      -9.105  19.025  67.284  1.00  0.00    -0.283 A  
HETATM   23  C   UNL     1      -9.201  18.355  68.502  1.00  0.00    -0.348 A  
HETATM   24 CL   UNL     1      -9.981  20.484  67.041  1.00  0.00    -0.569 Cl 
HETATM   25  C   UNL     1      -8.464  17.185  68.715  1.00  0.00    -0.225 A  
ENDBRANCH  17  19
ENDBRANCH  14  17
ENDBRANCH  10  11
ENDBRANCH   4   5
ENDBRANCH   2   4
TORSDOF 5
ENDMDL
MODEL       80
REMARK 921   NORMALIZED FREE ENERGY PREDICTED BY IDOCK:   -4.26 KCAL/MOL
REMARK 922        TOTAL FREE ENERGY PREDICTED BY IDOCK:   -6.55 KCAL/MOL
REMARK 923 INTER-LIGAND FREE ENERGY PREDICTED BY IDOCK:   -5.88 KCAL/MOL
REMARK 924 INTRA-LIGAND FREE ENERGY PREDICTED BY IDOCK:   -0.67 KCAL/MOL
REMARK 927      BINDING AFFINITY PREDICTED BY RF-SCORE:    0.00 PKD
ROOT
HETATM    1  C   UNL     1     -10.864  16.659  69.623  1.00  0.00    -0.282 C  
HETATM    2  C   UNL     1     -10.918  16.564  68.105  1.00  0.00    -0.336 C  
HETATM    3  C   UNL     1     -10.407  17.851  67.470  1.00  0.00    -0.383 C  
ENDROOT
BRANCH   2   4
HETATM    4  O   UNL     1     -10.049  15.500  67.671  1.00  0.00    -0.239 OA 
BRANCH   4   5
HETATM    5  C   UNL     1     -10.612  14.506  66.912  1.00  0.00    -0.279 C  
HETATM    6  O   UNL     1     -11.121  14.687  65.814  1.00  0.00    -0.317 OA 
HETATM    7  C   UNL     1     -10.490  13.144  67.644  1.00  0.00    -0.221 C  
HETATM    8  C   UNL     1      -8.974  12.902  67.811  1.00  0.00    -0.191 C  
HETATM    9  C   UNL     1     -11.246  13.282  68.972  1.00  0.00    -0.320 C  
HETATM   10  O   UNL     1     -11.175  12.174  66.819  1.00  0.00    -0.285 OA 
BRANCH  10  11
HETATM   11  C   UNL     1     -10.815  10.859  66.827  1.00  0.00    -0.224 A  
HETATM   12  C   UNL     1     -11.116   9.946  67.832  1.00  0.00    -0.216 A  
HETATM   13  C   UNL     1     -10.526   8.685  67.841  1.00  0.00    -0.269 A  
HETATM   14  C   UNL     1      -9.676   8.302  66.801  1.00  0.00    -0.307 A  
HETATM   15  C   UNL     1      -9.523   9.142  65.695  1.00  0.00    -0.309 A  
HETATM   16  C   UNL     1     -10.082  10.426  65.720  1.00  0.00    -0.329 A  
BRANCH  14  17
HETATM   17  C   UNL     1      -8.958   7.012  66.938  1.00  0.00    -0.126 C  
HETATM   18  O   UNL     1      -8.422   6.526  65.944  1.00  0.00    -0.137 OA 
BRANCH  17  19
HETATM   19  C   UNL     1      -8.930   6.247  68.216  1.00  0.00    -0.115 A  
HETATM   20  C   UNL     1      -9.540   4.986  68.238  1.00  0.00    -0.187 A  
HETATM   21  C   UNL     1      -9.599   4.248  69.423  1.00  0.00    -0.267 A  
HETATM   22  C   UNL     1      -9.051   4.772  70.592  1.00  0.00    -0.128 A  
HETATM   23  C   UNL     1      -8.445   6.026  70.585  1.00  0.00    -0.133 A  
HETATM   24 CL   UNL     1      -9.145   3.877  72.057  1.00  0.00    -0.150 Cl 
HETATM   25  C   UNL     1      -8.397   6.772  69.402  1.00  0.00    -0.132 A  
ENDBRANCH  17  19
ENDBRANCH  14  17
ENDBRANCH  10  11
ENDBRANCH   4   5
ENDBRANCH   2   4
TORSDOF 5
ENDMDL
MODEL       81
REMARK 921   NORMALIZED FREE ENERGY PREDICTED BY IDOCK:   -4.18 KCAL/MOL
REMARK 922        TOTAL FREE ENERGY PREDICTED BY IDOCK:   -6.46 KCAL/MOL
REMARK 923 INTER-LIGAND FREE ENERGY PREDICTED BY IDOCK:   -5.55 KCAL/MOL
REMARK 924 INTRA-LIGAND FREE ENERGY PREDICTED BY IDOCK:   -0.91 KCAL/MOL
REMARK 927      BINDING AFFINITY PREDICTED BY RF-SCORE:    0.00 PKD
ROOT
HETATM    1  C   UNL     1     -10.785   6.230  66.802  1.00  0.00    -0.364 C  
HETATM    2  C   UNL     1      -9.269   6.223  66.665  1.00  0.00    -0.146 C  
HETATM    3  C   UNL     1      -8.841   5.340  65.500  1.00  0.00    -0.153 C  
ENDROOT
BRANCH   2   4
HETATM    4  O   UNL     1      -8.819   7.560  66.376  1.00  0.00    -0.142 OA 
BRANCH   4   5
HETATM    5  C   UNL     1      -8.945   8.491  67.374  1.00  0.00    -0.134 C  
HETATM    6  O   UNL     1      -8.993   8.216  68.566  1.00  0.00    -0.137 OA 
HETATM    7  C   UNL     1      -9.003   9.917  66.768  1.00  0.00    -0.138 C  
HETATM    8  C   UNL     1      -7.661  10.102  66.026  1.00  0.00    -0.118 C  
HETATM    9  C   UNL     1     -10.231   9.963  65.850  1.00  0.00    -0.264 C  
HETATM   10  O   UNL     1      -9.217  10.824  67.874  1.00  0.00    -0.146 OA 
BRANCH  10  11
HETATM   11  C   UNL     1      -8.774  12.112  67.828  1.00  0.00    -0.171 A  
HETATM   12  C   UNL     1      -9.368  13.144  67.109  1.00  0.00    -0.235 A  
HETATM   13  C   UNL     1      -8.720  14.369  66.966  1.00  0.00    -0.244 A  
HETATM   14  C   UNL     1      -7.496  14.593  67.600  1.00  0.00    -0.205 A  
HETATM   15  C   UNL     1      -6.992  13.629  68.478  1.00  0.00    -0.104 A  
HETATM   16  C   UNL     1      -7.627  12.385  68.576  1.00  0.00    -0.122 A  
BRANCH  14  17
HETATM   17  C   UNL     1      -6.781  15.854  67.290  1.00  0.00    -0.186 C  
HETATM   18  O   UNL     1      -5.570  15.810  67.084  1.00  0.00    -0.337 OA 
BRANCH  17  19
HETATM   19  C   UNL     1      -7.461  17.179  67.296  1.00  0.00    -0.186 A  
HETATM   20  C   UNL     1      -8.200  17.530  68.434  1.00  0.00    -0.278 A  
HETATM   21  C   UNL     1      -8.910  18.733  68.474  1.00  0.00    -0.378 A  
HETATM   22  C   UNL     1      -8.887  19.587  67.373  1.00  0.00    -0.308 A  
HETATM   23  C   UNL     1      -8.160  19.247  66.234  1.00  0.00    -0.322 A  
HETATM   24 CL   UNL     1      -9.781  21.055  67.409  1.00  0.00    -0.430 Cl 
HETATM   25  C   UNL     1      -7.458  18.038  66.188  1.00  0.00    -0.305 A  
ENDBRANCH  17  19
ENDBRANCH  14  17
ENDBRANCH  10  11
ENDBRANCH   4   5
ENDBRANCH   2   4
TORSDOF 5
ENDMDL
MODEL       82
REMARK 921   NORMALIZED FREE ENERGY PREDICTED BY IDOCK:   -4.16 KCAL/MOL
REMARK 922        TOTAL FREE ENERGY PREDICTED BY IDOCK:   -6.43 KCAL/MOL
REMARK 923 INTER-LIGAND FREE ENERGY PREDICTED BY IDOCK:   -6.66 KCAL/MOL
REMARK 924 INTRA-LIGAND FREE ENERGY PREDICTED BY IDOCK:    0.23 KCAL/MOL
REMARK 927      BINDING AFFINITY PREDICTED BY RF-SCORE:    0.00 PKD
ROOT
HETATM    1  C   UNL     1      -8.540   7.141  67.850  1.00  0.00    -0.123 C  
HETATM    2  C   UNL     1      -9.333   7.031  66.556  1.00  0.00    -0.159 C  
HETATM    3  C   UNL     1     -10.762   6.587  66.839  1.00  0.00    -0.403 C  
ENDROOT
BRANCH   2   4
HETATM    4  O   UNL     1      -9.404   8.331  65.939  1.00  0.00    -0.178 OA 
BRANCH   4   5
HETATM    5  C   UNL     1     -10.120   9.296  66.598  1.00  0.00    -0.271 C  
HETATM    6  O   UNL     1     -10.876   9.071  67.534  1.00  0.00    -0.232 OA 
HETATM    7  C   UNL     1      -9.817  10.691  65.991  1.00  0.00    -0.228 C  
HETATM    8  C   UNL     1      -8.302  10.907  66.198  1.00  0.00    -0.168 C  
HETATM    9  C   UNL     1     -10.239  10.638  64.517  1.00  0.00    -0.399 C  
HETATM   10  O   UNL     1     -10.668  11.632  66.684  1.00  0.00    -0.246 OA 
BRANCH  10  11
HETATM   11  C   UNL     1     -10.303  12.937  66.833  1.00  0.00    -0.243 A  
HETATM   12  C   UNL     1      -9.675  13.477  67.951  1.00  0.00    -0.225 A  
HETATM   13  C   UNL     1      -9.534  14.857  68.084  1.00  0.00    -0.202 A  
HETATM   14  C   UNL     1      -9.963  15.707  67.063  1.00  0.00    -0.242 A  
HETATM   15  C   UNL     1     -10.417  15.159  65.860  1.00  0.00    -0.350 A  
HETATM   16  C   UNL     1     -10.599  13.775  65.755  1.00  0.00    -0.294 A  
BRANCH  14  17
HETATM   17  C   UNL     1      -9.928  17.166  67.322  1.00  0.00    -0.274 C  
HETATM   18  O   UNL     1     -10.896  17.692  67.868  1.00  0.00    -0.374 OA 
BRANCH  17  19
HETATM   19  C   UNL     1      -8.799  18.028  66.875  1.00  0.00    -0.266 A  
HETATM   20  C   UNL     1      -8.955  19.417  66.978  1.00  0.00    -0.350 A  
HETATM   21  C   UNL     1      -7.955  20.278  66.519  1.00  0.00    -0.276 A  
HETATM   22  C   UNL     1      -6.797  19.753  65.952  1.00  0.00    -0.270 A  
HETATM   23  C   UNL     1      -6.630  18.374  65.840  1.00  0.00    -0.306 A  
HETATM   24 CL   UNL     1      -5.576  20.811  65.363  1.00  0.00    -0.242 Cl 
HETATM   25  C   UNL     1      -7.636  17.511  66.288  1.00  0.00    -0.343 A  
ENDBRANCH  17  19
ENDBRANCH  14  17
ENDBRANCH  10  11
ENDBRANCH   4   5
ENDBRANCH   2   4
TORSDOF 5
ENDMDL
MODEL       83
REMARK 921   NORMALIZED FREE ENERGY PREDICTED BY IDOCK:   -4.13 KCAL/MOL
REMARK 922        TOTAL FREE ENERGY PREDICTED BY IDOCK:   -6.39 KCAL/MOL
REMARK 923 INTER-LIGAND FREE ENERGY PREDICTED BY IDOCK:   -6.75 KCAL/MOL
REMARK 924 INTRA-LIGAND FREE ENERGY PREDICTED BY IDOCK:    0.36 KCAL/MOL
REMARK 927      BINDING AFFINITY PREDICTED BY RF-SCORE:    0.00 PKD
ROOT
HETATM    1  C   UNL     1      -9.288   5.256  72.414  1.00  0.00    -0.157 C  
HETATM    2  C   UNL     1     -10.672   4.627  72.357  1.00  0.00    -0.116 C  
HETATM    3  C   UNL     1     -10.827   3.572  73.444  1.00  0.00    -0.312 C  
ENDROOT
BRANCH   2   4
HETATM    4  O   UNL     1     -11.660   5.645  72.606  1.00  0.00    -0.307 OA 
BRANCH   4   5
HETATM    5  C   UNL     1     -11.216   6.940  72.685  1.00  0.00    -0.260 C  
HETATM    6  O   UNL     1     -10.458   7.354  73.554  1.00  0.00    -0.355 OA 
HETATM    7  C   UNL     1     -11.801   7.776  71.517  1.00  0.00    -0.293 C  
HETATM    8  C   UNL     1     -11.278   7.103  70.229  1.00  0.00    -0.309 C  
HETATM    9  C   UNL     1     -13.328   7.736  71.661  1.00  0.00    -0.386 C  
HETATM   10  O   UNL     1     -11.352   9.135  71.721  1.00  0.00    -0.350 OA 
BRANCH  10  11
HETATM   11  C   UNL     1     -11.183   9.989  70.672  1.00  0.00    -0.350 A  
HETATM   12  C   UNL     1     -12.185  10.754  70.085  1.00  0.00    -0.425 A  
HETATM   13  C   UNL     1     -11.948  11.433  68.892  1.00  0.00    -0.371 A  
HETATM   14  C   UNL     1     -10.679  11.405  68.311  1.00  0.00    -0.240 A  
HETATM   15  C   UNL     1      -9.623  10.798  68.996  1.00  0.00    -0.193 A  
HETATM   16  C   UNL     1      -9.883  10.079  70.169  1.00  0.00    -0.205 A  
BRANCH  14  17
HETATM   17  C   UNL     1     -10.523  12.016  66.969  1.00  0.00    -0.221 C  
HETATM   18  O   UNL     1     -11.002  13.131  66.768  1.00  0.00    -0.273 OA 
BRANCH  17  19
HETATM   19  C   UNL     1      -9.877  11.297  65.836  1.00  0.00    -0.272 A  
HETATM   20  C   UNL     1      -8.568  10.831  66.017  1.00  0.00    -0.181 A  
HETATM   21  C   UNL     1      -7.889  10.203  64.971  1.00  0.00    -0.140 A  
HETATM   22  C   UNL     1      -8.515  10.042  63.737  1.00  0.00    -0.181 A  
HETATM   23  C   UNL     1      -9.814  10.505  63.541  1.00  0.00    -0.339 A  
HETATM   24 CL   UNL     1      -7.671   9.293  62.439  1.00  0.00    -0.114 Cl 
HETATM   25  C   UNL     1     -10.492  11.145  64.585  1.00  0.00    -0.400 A  
ENDBRANCH  17  19
ENDBRANCH  14  17
ENDBRANCH  10  11
ENDBRANCH   4   5
ENDBRANCH   2   4
TORSDOF 5
ENDMDL
MODEL       84
REMARK 921   NORMALIZED FREE ENERGY PREDICTED BY IDOCK:   -4.10 KCAL/MOL
REMARK 922        TOTAL FREE ENERGY PREDICTED BY IDOCK:   -6.35 KCAL/MOL
REMARK 923 INTER-LIGAND FREE ENERGY PREDICTED BY IDOCK:   -5.38 KCAL/MOL
REMARK 924 INTRA-LIGAND FREE ENERGY PREDICTED BY IDOCK:   -0.97 KCAL/MOL
REMARK 927      BINDING AFFINITY PREDICTED BY RF-SCORE:    0.00 PKD
ROOT
HETATM    1  C   UNL     1     -12.018  14.104  63.834  1.00  0.00    -0.278 C  
HETATM    2  C   UNL     1     -12.510  12.781  64.402  1.00  0.00    -0.399 C  
HETATM    3  C   UNL     1     -12.849  11.808  63.279  1.00  0.00    -0.224 C  
ENDROOT
BRANCH   2   4
HETATM    4  O   UNL     1     -11.455  12.184  65.179  1.00  0.00    -0.326 OA 
BRANCH   4   5
HETATM    5  C   UNL     1     -11.504  12.362  66.538  1.00  0.00    -0.371 C  
HETATM    6  O   UNL     1     -12.246  13.157  67.100  1.00  0.00    -0.326 OA 
HETATM    7  C   UNL     1     -10.501  11.406  67.236  1.00  0.00    -0.206 C  
HETATM    8  C   UNL     1     -10.964   9.981  66.861  1.00  0.00    -0.070 C  
HETATM    9  C   UNL     1      -9.104  11.763  66.711  1.00  0.00    -0.194 C  
HETATM   10  O   UNL     1     -10.558  11.714  68.648  1.00  0.00    -0.197 OA 
BRANCH  10  11
HETATM   11  C   UNL     1     -10.279  10.768  69.589  1.00  0.00    -0.057 A  
HETATM   12  C   UNL     1      -9.059  10.120  69.745  1.00  0.00    -0.166 A  
HETATM   13  C   UNL     1      -8.943   9.027  70.601  1.00  0.00    -0.263 A  
HETATM   14  C   UNL     1     -10.039   8.615  71.362  1.00  0.00    -0.325 A  
HETATM   15  C   UNL     1     -11.208   9.380  71.352  1.00  0.00    -0.452 A  
HETATM   16  C   UNL     1     -11.328  10.447  70.453  1.00  0.00    -0.417 A  
BRANCH  14  17
HETATM   17  C   UNL     1      -9.904   7.359  72.138  1.00  0.00    -0.172 C  
HETATM   18  O   UNL     1     -10.568   7.224  73.164  1.00  0.00    -0.284 OA 
BRANCH  17  19
HETATM   19  C   UNL     1      -8.939   6.289  71.761  1.00  0.00    -0.140 A  
HETATM   20  C   UNL     1      -9.294   5.424  70.718  1.00  0.00    -0.200 A  
HETATM   21  C   UNL     1      -8.457   4.364  70.360  1.00  0.00    -0.098 A  
HETATM   22  C   UNL     1      -7.262   4.164  71.048  1.00  0.00    -0.037 A  
HETATM   23  C   UNL     1      -6.899   5.014  72.090  1.00  0.00    -0.061 A  
HETATM   24 CL   UNL     1      -6.243   2.845  70.627  1.00  0.00    -0.022 Cl 
HETATM   25  C   UNL     1      -7.742   6.068  72.458  1.00  0.00    -0.100 A  
ENDBRANCH  17  19
ENDBRANCH  14  17
ENDBRANCH  10  11
ENDBRANCH   4   5
ENDBRANCH   2   4
TORSDOF 5
ENDMDL
MODEL       85
REMARK 921   NORMALIZED FREE ENERGY PREDICTED BY IDOCK:   -4.07 KCAL/MOL
REMARK 922        TOTAL FREE ENERGY PREDICTED BY IDOCK:   -6.31 KCAL/MOL
REMARK 923 INTER-LIGAND FREE ENERGY PREDICTED BY IDOCK:   -6.23 KCAL/MOL
REMARK 924 INTRA-LIGAND FREE ENERGY PREDICTED BY IDOCK:   -0.08 KCAL/MOL
REMARK 927      BINDING AFFINITY PREDICTED BY RF-SCORE:    0.00 PKD
ROOT
HETATM    1  C   UNL     1      -7.840   7.869  69.683  1.00  0.00    -0.105 C  
HETATM    2  C   UNL     1      -6.782   7.260  68.776  1.00  0.00    -0.067 C  
HETATM    3  C   UNL     1      -6.969   5.751  68.673  1.00  0.00    -0.071 C  
ENDROOT
BRANCH   2   4
HETATM    4  O   UNL     1      -6.934   7.800  67.450  1.00  0.00    -0.074 OA 
BRANCH   4   5
HETATM    5  C   UNL     1      -8.214   7.956  66.982  1.00  0.00    -0.117 C  
HETATM    6  O   UNL     1      -9.129   7.178  67.218  1.00  0.00    -0.120 OA 
HETATM    7  C   UNL     1      -8.318   9.252  66.138  1.00  0.00    -0.119 C  
HETATM    8  C   UNL     1      -7.953  10.401  67.103  1.00  0.00    -0.115 C  
HETATM    9  C   UNL     1      -7.345   9.098  64.961  1.00  0.00    -0.100 C  
HETATM   10  O   UNL     1      -9.668   9.296  65.620  1.00  0.00    -0.284 OA 
BRANCH  10  11
HETATM   11  C   UNL     1     -10.278  10.481  65.336  1.00  0.00    -0.270 A  
HETATM   12  C   UNL     1     -10.115  11.212  64.165  1.00  0.00    -0.388 A  
HETATM   13  C   UNL     1     -10.621  12.506  64.063  1.00  0.00    -0.451 A  
HETATM   14  C   UNL     1     -11.356  13.055  65.116  1.00  0.00    -0.320 A  
HETATM   15  C   UNL     1     -11.685  12.255  66.214  1.00  0.00    -0.431 A  
HETATM   16  C   UNL     1     -11.131  10.975  66.326  1.00  0.00    -0.106 A  
BRANCH  14  17
HETATM   17  C   UNL     1     -11.739  14.484  65.016  1.00  0.00    -0.392 C  
HETATM   18  O   UNL     1     -12.531  14.824  64.139  1.00  0.00    -0.758 OA 
BRANCH  17  19
HETATM   19  C   UNL     1     -11.141  15.532  65.889  1.00  0.00    -0.205 A  
HETATM   20  C   UNL     1     -10.688  16.711  65.281  1.00  0.00    -0.219 A  
HETATM   21  C   UNL     1     -10.063  17.704  66.039  1.00  0.00    -0.263 A  
HETATM   22  C   UNL     1      -9.885  17.520  67.408  1.00  0.00    -0.297 A  
HETATM   23  C   UNL     1     -10.327  16.351  68.025  1.00  0.00    -0.288 A  
HETATM   24 CL   UNL     1      -9.093  18.729  68.339  1.00  0.00    -0.356 Cl 
HETATM   25  C   UNL     1     -10.942  15.350  67.265  1.00  0.00    -0.317 A  
ENDBRANCH  17  19
ENDBRANCH  14  17
ENDBRANCH  10  11
ENDBRANCH   4   5
ENDBRANCH   2   4
TORSDOF 5
ENDMDL
MODEL       86
REMARK 921   NORMALIZED FREE ENERGY PREDICTED BY IDOCK:   -4.06 KCAL/MOL
REMARK 922        TOTAL FREE ENERGY PREDICTED BY IDOCK:   -6.30 KCAL/MOL
REMARK 923 INTER-LIGAND FREE ENERGY PREDICTED BY IDOCK:   -5.84 KCAL/MOL
REMARK 924 INTRA-LIGAND FREE ENERGY PREDICTED BY IDOCK:   -0.46 KCAL/MOL
REMARK 927      BINDING AFFINITY PREDICTED BY RF-SCORE:    0.00 PKD
ROOT
HETATM    1  C   UNL     1     -13.372  14.039  71.635  1.00  0.00    -0.442 C  
HETATM    2  C   UNL     1     -12.411  14.915  70.844  1.00  0.00    -0.330 C  
HETATM    3  C   UNL     1     -11.546  15.745  71.784  1.00  0.00    -0.541 C  
ENDROOT
BRANCH   2   4
HETATM    4  O   UNL     1     -11.527  14.071  70.083  1.00  0.00    -0.229 OA 
BRANCH   4   5
HETATM    5  C   UNL     1     -11.890  13.792  68.790  1.00  0.00    -0.363 C  
HETATM    6  O   UNL     1     -12.566  14.536  68.092  1.00  0.00     0.105 OA 
HETATM    7  C   UNL     1     -11.309  12.420  68.359  1.00  0.00    -0.285 C  
HETATM    8  C   UNL     1      -9.776  12.572  68.468  1.00  0.00    -0.133 C  
HETATM    9  C   UNL     1     -11.897  11.367  69.308  1.00  0.00    -0.417 C  
HETATM   10  O   UNL     1     -11.803  12.168  67.024  1.00  0.00    -0.547 OA 
BRANCH  10  11
HETATM   11  C   UNL     1     -11.100  11.401  66.143  1.00  0.00    -0.198 A  
HETATM   12  C   UNL     1     -10.565  10.147  66.413  1.00  0.00    -0.155 A  
HETATM   13  C   UNL     1      -9.692   9.542  65.512  1.00  0.00    -0.344 A  
HETATM   14  C   UNL     1      -9.398  10.163  64.296  1.00  0.00    -0.349 A  
HETATM   15  C   UNL     1     -10.082  11.329  63.939  1.00  0.00    -0.392 A  
HETATM   16  C   UNL     1     -10.920  11.951  64.871  1.00  0.00    -0.367 A  
BRANCH  14  17
HETATM   17  C   UNL     1      -8.349   9.551  63.446  1.00  0.00    -0.179 C  
HETATM   18  O   UNL     1      -7.895  10.203  62.508  1.00  0.00    -0.126 OA 
BRANCH  17  19
HETATM   19  C   UNL     1      -7.882   8.150  63.641  1.00  0.00    -0.151 A  
HETATM   20  C   UNL     1      -8.049   7.251  62.579  1.00  0.00    -0.100 A  
HETATM   21  C   UNL     1      -7.686   5.910  62.723  1.00  0.00    -0.086 A  
HETATM   22  C   UNL     1      -7.159   5.462  63.932  1.00  0.00    -0.049 A  
HETATM   23  C   UNL     1      -6.993   6.344  64.997  1.00  0.00    -0.052 A  
HETATM   24 CL   UNL     1      -6.736   3.806  64.120  1.00  0.00    -0.042 Cl 
HETATM   25  C   UNL     1      -7.366   7.685  64.859  1.00  0.00    -0.075 A  
ENDBRANCH  17  19
ENDBRANCH  14  17
ENDBRANCH  10  11
ENDBRANCH   4   5
ENDBRANCH   2   4
TORSDOF 5
ENDMDL
MODEL       87
REMARK 921   NORMALIZED FREE ENERGY PREDICTED BY IDOCK:   -3.99 KCAL/MOL
REMARK 922        TOTAL FREE ENERGY PREDICTED BY IDOCK:   -6.21 KCAL/MOL
REMARK 923 INTER-LIGAND FREE ENERGY PREDICTED BY IDOCK:   -5.22 KCAL/MOL
REMARK 924 INTRA-LIGAND FREE ENERGY PREDICTED BY IDOCK:   -0.98 KCAL/MOL
REMARK 927      BINDING AFFINITY PREDICTED BY RF-SCORE:    0.00 PKD
ROOT
HETATM    1  C   UNL     1     -10.713   7.270  67.089  1.00  0.00    -0.413 C  
HETATM    2  C   UNL     1      -9.537   8.153  66.697  1.00  0.00    -0.229 C  
HETATM    3  C   UNL     1     -10.010   9.332  65.856  1.00  0.00    -0.289 C  
ENDROOT
BRANCH   2   4
HETATM    4  O   UNL     1      -8.939   8.692  67.891  1.00  0.00    -0.139 OA 
BRANCH   4   5
HETATM    5  C   UNL     1      -7.770   9.393  67.741  1.00  0.00    -0.088 C  
HETATM    6  O   UNL     1      -6.904   9.116  66.921  1.00  0.00    -0.078 OA 
HETATM    7  C   UNL     1      -7.725  10.574  68.746  1.00  0.00    -0.109 C  
HETATM    8  C   UNL     1      -8.936  11.463  68.388  1.00  0.00    -0.172 C  
HETATM    9  C   UNL     1      -7.796   9.966  70.153  1.00  0.00    -0.186 C  
HETATM   10  O   UNL     1      -6.435  11.205  68.578  1.00  0.00    -0.055 OA 
BRANCH  10  11
HETATM   11  C   UNL     1      -6.256  12.530  68.844  1.00  0.00    -0.080 A  
HETATM   12  C   UNL     1      -6.160  13.092  70.112  1.00  0.00    -0.097 A  
HETATM   13  C   UNL     1      -6.186  14.475  70.276  1.00  0.00    -0.176 A  
HETATM   14  C   UNL     1      -6.240  15.312  69.159  1.00  0.00    -0.108 A  
HETATM   15  C   UNL     1      -6.143  14.756  67.880  1.00  0.00    -0.167 A  
HETATM   16  C   UNL     1      -6.166  13.365  67.728  1.00  0.00    -0.160 A  
BRANCH  14  17
HETATM   17  C   UNL     1      -6.419  16.764  69.395  1.00  0.00    -0.229 C  
HETATM   18  O   UNL     1      -5.707  17.319  70.231  1.00  0.00    -0.235 OA 
BRANCH  17  19
HETATM   19  C   UNL     1      -7.479  17.558  68.714  1.00  0.00    -0.258 A  
HETATM   20  C   UNL     1      -8.804  17.114  68.826  1.00  0.00    -0.235 A  
HETATM   21  C   UNL     1      -9.833  17.782  68.159  1.00  0.00    -0.326 A  
HETATM   22  C   UNL     1      -9.541  18.895  67.374  1.00  0.00    -0.306 A  
HETATM   23  C   UNL     1      -8.229  19.345  67.251  1.00  0.00    -0.311 A  
HETATM   24 CL   UNL     1     -10.804  19.704  66.532  1.00  0.00    -0.524 Cl 
HETATM   25  C   UNL     1      -7.195  18.670  67.908  1.00  0.00    -0.252 A  
ENDBRANCH  17  19
ENDBRANCH  14  17
ENDBRANCH  10  11
ENDBRANCH   4   5
ENDBRANCH   2   4
TORSDOF 5
ENDMDL
MODEL       88
REMARK 921   NORMALIZED FREE ENERGY PREDICTED BY IDOCK:   -3.96 KCAL/MOL
REMARK 922        TOTAL FREE ENERGY PREDICTED BY IDOCK:   -6.17 KCAL/MOL
REMARK 923 INTER-LIGAND FREE ENERGY PREDICTED BY IDOCK:   -6.06 KCAL/MOL
REMARK 924 INTRA-LIGAND FREE ENERGY PREDICTED BY IDOCK:   -0.12 KCAL/MOL
REMARK 927      BINDING AFFINITY PREDICTED BY RF-SCORE:    0.00 PKD
ROOT
HETATM    1  C   UNL     1     -11.775   6.203  71.249  1.00  0.00    -0.211 C  
HETATM    2  C   UNL     1     -11.501   7.673  71.527  1.00  0.00    -0.264 C  
HETATM    3  C   UNL     1     -10.618   7.830  72.759  1.00  0.00    -0.401 C  
ENDROOT
BRANCH   2   4
HETATM    4  O   UNL     1     -10.782   8.235  70.412  1.00  0.00    -0.224 OA 
BRANCH   4   5
HETATM    5  C   UNL     1     -11.041   9.544  70.099  1.00  0.00    -0.255 C  
HETATM    6  O   UNL     1     -11.926  10.213  70.620  1.00  0.00    -0.289 OA 
HETATM    7  C   UNL     1     -10.049  10.038  69.014  1.00  0.00    -0.200 C  
HETATM    8  C   UNL     1      -8.647   9.903  69.648  1.00  0.00    -0.207 C  
HETATM    9  C   UNL     1     -10.260   9.152  67.780  1.00  0.00    -0.278 C  
HETATM   10  O   UNL     1     -10.441  11.391  68.686  1.00  0.00    -0.188 OA 
BRANCH  10  11
HETATM   11  C   UNL     1      -9.532  12.301  68.236  1.00  0.00    -0.209 A  
HETATM   12  C   UNL     1      -8.229  12.439  68.703  1.00  0.00    -0.002 A  
HETATM   13  C   UNL     1      -7.454  13.531  68.321  1.00  0.00    -0.122 A  
HETATM   14  C   UNL     1      -7.956  14.463  67.410  1.00  0.00    -0.220 A  
HETATM   15  C   UNL     1      -9.188  14.225  66.794  1.00  0.00    -0.282 A  
HETATM   16  C   UNL     1      -9.978  13.151  67.221  1.00  0.00    -0.230 A  
BRANCH  14  17
HETATM   17  C   UNL     1      -7.151  15.682  67.157  1.00  0.00    -0.168 C  
HETATM   18  O   UNL     1      -5.946  15.560  66.946  1.00  0.00    -0.180 OA 
BRANCH  17  19
HETATM   19  C   UNL     1      -7.733  17.051  67.227  1.00  0.00    -0.196 A  
HETATM   20  C   UNL     1      -8.765  17.277  68.148  1.00  0.00    -0.243 A  
HETATM   21  C   UNL     1      -9.391  18.524  68.217  1.00  0.00    -0.350 A  
HETATM   22  C   UNL     1      -8.991  19.548  67.362  1.00  0.00    -0.307 A  
HETATM   23  C   UNL     1      -7.970  19.335  66.438  1.00  0.00    -0.310 A  
HETATM   24 CL   UNL     1      -9.778  21.075  67.426  1.00  0.00    -0.430 Cl 
HETATM   25  C   UNL     1      -7.349  18.083  66.360  1.00  0.00    -0.292 A  
ENDBRANCH  17  19
ENDBRANCH  14  17
ENDBRANCH  10  11
ENDBRANCH   4   5
ENDBRANCH   2   4
TORSDOF 5
ENDMDL
MODEL       89
REMARK 921   NORMALIZED FREE ENERGY PREDICTED BY IDOCK:   -3.95 KCAL/MOL
REMARK 922        TOTAL FREE ENERGY PREDICTED BY IDOCK:   -6.16 KCAL/MOL
REMARK 923 INTER-LIGAND FREE ENERGY PREDICTED BY IDOCK:   -5.28 KCAL/MOL
REMARK 924 INTRA-LIGAND FREE ENERGY PREDICTED BY IDOCK:   -0.88 KCAL/MOL
REMARK 927      BINDING AFFINITY PREDICTED BY RF-SCORE:    0.00 PKD
ROOT
HETATM    1  C   UNL     1      -5.520   2.653  67.222  1.00  0.00    -0.017 C  
HETATM    2  C   UNL     1      -6.813   3.258  66.695  1.00  0.00    -0.053 C  
HETATM    3  C   UNL     1      -7.934   2.226  66.713  1.00  0.00    -0.072 C  
ENDROOT
BRANCH   2   4
HETATM    4  O   UNL     1      -7.212   4.337  67.562  1.00  0.00    -0.066 OA 
BRANCH   4   5
HETATM    5  C   UNL     1      -7.017   5.613  67.099  1.00  0.00    -0.065 C  
HETATM    6  O   UNL     1      -6.071   5.953  66.399  1.00  0.00    -0.027 OA 
HETATM    7  C   UNL     1      -8.167   6.535  67.582  1.00  0.00    -0.122 C  
HETATM    8  C   UNL     1      -9.455   5.934  66.978  1.00  0.00    -0.134 C  
HETATM    9  C   UNL     1      -8.136   6.523  69.116  1.00  0.00    -0.112 C  
HETATM   10  O   UNL     1      -7.843   7.868  67.122  1.00  0.00    -0.105 OA 
BRANCH  10  11
HETATM   11  C   UNL     1      -8.820   8.782  66.861  1.00  0.00    -0.127 A  
HETATM   12  C   UNL     1      -9.313   9.098  65.600  1.00  0.00    -0.300 A  
HETATM   13  C   UNL     1     -10.161  10.190  65.426  1.00  0.00    -0.342 A  
HETATM   14  C   UNL     1     -10.576  10.937  66.529  1.00  0.00    -0.295 A  
HETATM   15  C   UNL     1     -10.237  10.507  67.816  1.00  0.00    -0.223 A  
HETATM   16  C   UNL     1      -9.347   9.438  67.975  1.00  0.00    -0.140 A  
BRANCH  14  17
HETATM   17  C   UNL     1     -11.351  12.174  66.271  1.00  0.00    -0.357 C  
HETATM   18  O   UNL     1     -12.395  12.093  65.626  1.00  0.00    -0.560 OA 
BRANCH  17  19
HETATM   19  C   UNL     1     -10.872  13.518  66.697  1.00  0.00    -0.283 A  
HETATM   20  C   UNL     1     -11.553  14.155  67.744  1.00  0.00    -0.379 A  
HETATM   21  C   UNL     1     -11.188  15.441  68.147  1.00  0.00    -0.326 A  
HETATM   22  C   UNL     1     -10.143  16.099  67.502  1.00  0.00    -0.256 A  
HETATM   23  C   UNL     1      -9.461  15.480  66.457  1.00  0.00    -0.299 A  
HETATM   24 CL   UNL     1      -9.710  17.693  67.979  1.00  0.00    -0.289 Cl 
HETATM   25  C   UNL     1      -9.833  14.196  66.044  1.00  0.00    -0.329 A  
ENDBRANCH  17  19
ENDBRANCH  14  17
ENDBRANCH  10  11
ENDBRANCH   4   5
ENDBRANCH   2   4
TORSDOF 5
ENDMDL
MODEL       90
REMARK 921   NORMALIZED FREE ENERGY PREDICTED BY IDOCK:   -3.95 KCAL/MOL
REMARK 922        TOTAL FREE ENERGY PREDICTED BY IDOCK:   -6.15 KCAL/MOL
REMARK 923 INTER-LIGAND FREE ENERGY PREDICTED BY IDOCK:   -5.26 KCAL/MOL
REMARK 924 INTRA-LIGAND FREE ENERGY PREDICTED BY IDOCK:   -0.89 KCAL/MOL
REMARK 927      BINDING AFFINITY PREDICTED BY RF-SCORE:    0.00 PKD
ROOT
HETATM    1  C   UNL     1     -11.820  15.530  64.328  1.00  0.00    -0.179 C  
HETATM    2  C   UNL     1     -12.080  14.145  64.902  1.00  0.00    -0.428 C  
HETATM    3  C   UNL     1     -12.127  13.105  63.789  1.00  0.00    -0.563 C  
ENDROOT
BRANCH   2   4
HETATM    4  O   UNL     1     -10.991  13.788  65.774  1.00  0.00    -0.279 OA 
BRANCH   4   5
HETATM    5  C   UNL     1     -11.311  13.127  66.933  1.00  0.00    -0.318 C  
HETATM    6  O   UNL     1     -12.361  13.281  67.543  1.00  0.00    -0.225 OA 
HETATM    7  C   UNL     1     -10.161  12.165  67.331  1.00  0.00    -0.199 C  
HETATM    8  C   UNL     1     -10.036  11.168  66.158  1.00  0.00    -0.284 C  
HETATM    9  C   UNL     1      -8.911  13.028  67.547  1.00  0.00    -0.195 C  
HETATM   10  O   UNL     1     -10.541  11.575  68.595  1.00  0.00    -0.194 OA 
BRANCH  10  11
HETATM   11  C   UNL     1     -10.103  10.336  68.957  1.00  0.00    -0.213 A  
HETATM   12  C   UNL     1      -8.786   9.894  68.886  1.00  0.00    -0.145 A  
HETATM   13  C   UNL     1      -8.481   8.549  69.085  1.00  0.00    -0.125 A  
HETATM   14  C   UNL     1      -9.489   7.645  69.424  1.00  0.00    -0.152 A  
HETATM   15  C   UNL     1     -10.778   8.119  69.684  1.00  0.00    -0.196 A  
HETATM   16  C   UNL     1     -11.083   9.463  69.435  1.00  0.00    -0.098 A  
BRANCH  14  17
HETATM   17  C   UNL     1      -9.135   6.206  69.474  1.00  0.00    -0.139 C  
HETATM   18  O   UNL     1      -8.756   5.727  70.541  1.00  0.00    -0.134 OA 
BRANCH  17  19
HETATM   19  C   UNL     1      -9.148   5.340  68.262  1.00  0.00    -0.122 A  
HETATM   20  C   UNL     1     -10.183   5.524  67.336  1.00  0.00    -0.253 A  
HETATM   21  C   UNL     1     -10.282   4.702  66.211  1.00  0.00    -0.306 A  
HETATM   22  C   UNL     1      -9.348   3.689  66.010  1.00  0.00    -0.168 A  
HETATM   23  C   UNL     1      -8.316   3.491  66.925  1.00  0.00    -0.100 A  
HETATM   24 CL   UNL     1      -9.483   2.658  64.640  1.00  0.00    -0.151 Cl 
HETATM   25  C   UNL     1      -8.222   4.306  68.059  1.00  0.00    -0.093 A  
ENDBRANCH  17  19
ENDBRANCH  14  17
ENDBRANCH  10  11
ENDBRANCH   4   5
ENDBRANCH   2   4
TORSDOF 5
ENDMDL
MODEL       91
REMARK 921   NORMALIZED FREE ENERGY PREDICTED BY IDOCK:   -3.88 KCAL/MOL
REMARK 922        TOTAL FREE ENERGY PREDICTED BY IDOCK:   -6.07 KCAL/MOL
REMARK 923 INTER-LIGAND FREE ENERGY PREDICTED BY IDOCK:   -5.29 KCAL/MOL
REMARK 924 INTRA-LIGAND FREE ENERGY PREDICTED BY IDOCK:   -0.78 KCAL/MOL
REMARK 927      BINDING AFFINITY PREDICTED BY RF-SCORE:    0.00 PKD
ROOT
HETATM    1  C   UNL     1     -11.846  14.772  64.466  1.00  0.00    -0.428 C  
HETATM    2  C   UNL     1     -11.979  13.272  64.682  1.00  0.00    -0.394 C  
HETATM    3  C   UNL     1     -11.924  12.532  63.351  1.00  0.00    -0.602 C  
ENDROOT
BRANCH   2   4
HETATM    4  O   UNL     1     -10.866  12.812  65.473  1.00  0.00    -0.268 OA 
BRANCH   4   5
HETATM    5  C   UNL     1     -11.147  11.962  66.511  1.00  0.00    -0.306 C  
HETATM    6  O   UNL     1     -12.159  12.029  67.198  1.00  0.00    -0.587 OA 
HETATM    7  C   UNL     1     -10.012  10.917  66.666  1.00  0.00    -0.208 C  
HETATM    8  C   UNL     1      -9.982  10.144  65.329  1.00  0.00    -0.381 C  
HETATM    9  C   UNL     1      -8.724  11.697  66.960  1.00  0.00    -0.173 C  
HETATM   10  O   UNL     1     -10.346  10.119  67.824  1.00  0.00    -0.182 OA 
BRANCH  10  11
HETATM   11  C   UNL     1      -9.931   8.825  67.935  1.00  0.00    -0.187 A  
HETATM   12  C   UNL     1      -8.689   8.339  67.538  1.00  0.00    -0.129 A  
HETATM   13  C   UNL     1      -8.445   6.968  67.505  1.00  0.00    -0.122 A  
HETATM   14  C   UNL     1      -9.425   6.071  67.935  1.00  0.00    -0.112 A  
HETATM   15  C   UNL     1     -10.599   6.563  68.512  1.00  0.00    -0.291 A  
HETATM   16  C   UNL     1     -10.853   7.940  68.497  1.00  0.00     0.031 A  
BRANCH  14  17
HETATM   17  C   UNL     1      -9.170   4.625  67.735  1.00  0.00    -0.126 C  
HETATM   18  O   UNL     1      -9.243   3.873  68.705  1.00  0.00    -0.127 OA 
BRANCH  17  19
HETATM   19  C   UNL     1      -8.754   4.063  66.420  1.00  0.00    -0.116 A  
HETATM   20  C   UNL     1      -9.732   3.931  65.425  1.00  0.00    -0.181 A  
HETATM   21  C   UNL     1      -9.415   3.355  64.193  1.00  0.00    -0.139 A  
HETATM   22  C   UNL     1      -8.119   2.905  63.952  1.00  0.00    -0.082 A  
HETATM   23  C   UNL     1      -7.138   3.026  64.933  1.00  0.00    -0.057 A  
HETATM   24 CL   UNL     1      -7.733   2.171  62.445  1.00  0.00    -0.045 Cl 
HETATM   25  C   UNL     1      -7.457   3.592  66.173  1.00  0.00    -0.077 A  
ENDBRANCH  17  19
ENDBRANCH  14  17
ENDBRANCH  10  11
ENDBRANCH   4   5
ENDBRANCH   2   4
TORSDOF 5
ENDMDL
MODEL       92
REMARK 921   NORMALIZED FREE ENERGY PREDICTED BY IDOCK:   -3.87 KCAL/MOL
REMARK 922        TOTAL FREE ENERGY PREDICTED BY IDOCK:   -6.06 KCAL/MOL
REMARK 923 INTER-LIGAND FREE ENERGY PREDICTED BY IDOCK:   -6.37 KCAL/MOL
REMARK 924 INTRA-LIGAND FREE ENERGY PREDICTED BY IDOCK:    0.31 KCAL/MOL
REMARK 927      BINDING AFFINITY PREDICTED BY RF-SCORE:    0.00 PKD
ROOT
HETATM    1  C   UNL     1      -8.403  19.459  67.805  1.00  0.00    -0.340 C  
HETATM    2  C   UNL     1      -9.805  19.416  68.393  1.00  0.00    -0.428 C  
HETATM    3  C   UNL     1     -10.850  19.616  67.302  1.00  0.00    -0.519 C  
ENDROOT
BRANCH   2   4
HETATM    4  O   UNL     1     -10.032  18.116  68.968  1.00  0.00    -0.358 OA 
BRANCH   4   5
HETATM    5  C   UNL     1     -10.202  17.070  68.099  1.00  0.00    -0.322 C  
HETATM    6  O   UNL     1     -10.176  17.179  66.880  1.00  0.00    -0.300 OA 
HETATM    7  C   UNL     1     -10.415  15.751  68.888  1.00  0.00    -0.223 C  
HETATM    8  C   UNL     1      -9.127  15.558  69.718  1.00  0.00    -0.062 C  
HETATM    9  C   UNL     1     -11.679  15.938  69.737  1.00  0.00    -0.323 C  
HETATM   10  O   UNL     1     -10.666  14.722  67.903  1.00  0.00    -0.252 OA 
BRANCH  10  11
HETATM   11  C   UNL     1     -10.345  13.419  68.146  1.00  0.00    -0.247 A  
HETATM   12  C   UNL     1     -11.166  12.490  68.777  1.00  0.00    -0.318 A  
HETATM   13  C   UNL     1     -10.664  11.248  69.157  1.00  0.00    -0.247 A  
HETATM   14  C   UNL     1      -9.348  10.899  68.847  1.00  0.00    -0.169 A  
HETATM   15  C   UNL     1      -8.583  11.752  68.047  1.00  0.00    -0.158 A  
HETATM   16  C   UNL     1      -9.081  13.016  67.711  1.00  0.00    -0.200 A  
BRANCH  14  17
HETATM   17  C   UNL     1      -8.821   9.631  69.408  1.00  0.00    -0.180 C  
HETATM   18  O   UNL     1      -7.646   9.337  69.199  1.00  0.00    -0.071 OA 
BRANCH  17  19
HETATM   19  C   UNL     1      -9.684   8.668  70.147  1.00  0.00    -0.182 A  
HETATM   20  C   UNL     1     -10.301   7.646  69.414  1.00  0.00    -0.214 A  
HETATM   21  C   UNL     1     -11.169   6.749  70.041  1.00  0.00    -0.380 A  
HETATM   22  C   UNL     1     -11.426   6.874  71.404  1.00  0.00    -0.282 A  
HETATM   23  C   UNL     1     -10.822   7.888  72.144  1.00  0.00    -0.327 A  
HETATM   24 CL   UNL     1     -12.514   5.787  72.174  1.00  0.00     0.107 Cl 
HETATM   25  C   UNL     1      -9.962   8.795  71.515  1.00  0.00    -0.370 A  
ENDBRANCH  17  19
ENDBRANCH  14  17
ENDBRANCH  10  11
ENDBRANCH   4   5
ENDBRANCH   2   4
TORSDOF 5
ENDMDL
MODEL       93
REMARK 921   NORMALIZED FREE ENERGY PREDICTED BY IDOCK:   -3.83 KCAL/MOL
REMARK 922        TOTAL FREE ENERGY PREDICTED BY IDOCK:   -6.00 KCAL/MOL
REMARK 923 INTER-LIGAND FREE ENERGY PREDICTED BY IDOCK:   -6.86 KCAL/MOL
REMARK 924 INTRA-LIGAND FREE ENERGY PREDICTED BY IDOCK:    0.86 KCAL/MOL
REMARK 927      BINDING AFFINITY PREDICTED BY RF-SCORE:    0.00 PKD
ROOT
HETATM    1  C   UNL     1     -10.078   6.478  74.307  1.00  0.00    -0.379 C  
HETATM    2  C   UNL     1     -10.541   5.705  73.081  1.00  0.00    -0.247 C  
HETATM    3  C   UNL     1     -11.522   4.608  73.478  1.00  0.00    -0.277 C  
ENDROOT
BRANCH   2   4
HETATM    4  O   UNL     1     -11.238   6.602  72.197  1.00  0.00    -0.243 OA 
BRANCH   4   5
HETATM    5  C   UNL     1     -10.913   6.545  70.866  1.00  0.00    -0.274 C  
HETATM    6  O   UNL     1     -11.061   5.552  70.166  1.00  0.00    -0.248 OA 
HETATM    7  C   UNL     1     -10.353   7.913  70.397  1.00  0.00    -0.212 C  
HETATM    8  C   UNL     1     -11.495   8.926  70.629  1.00  0.00    -0.280 C  
HETATM    9  C   UNL     1      -9.097   8.192  71.232  1.00  0.00    -0.185 C  
HETATM   10  O   UNL     1      -9.962   7.742  69.015  1.00  0.00    -0.173 OA 
BRANCH  10  11
HETATM   11  C   UNL     1      -9.967   8.791  68.144  1.00  0.00    -0.173 A  
HETATM   12  C   UNL     1     -10.094  10.130  68.495  1.00  0.00    -0.186 A  
HETATM   13  C   UNL     1     -10.295  11.101  67.516  1.00  0.00    -0.228 A  
HETATM   14  C   UNL     1     -10.303  10.743  66.166  1.00  0.00    -0.300 A  
HETATM   15  C   UNL     1      -9.985   9.432  65.802  1.00  0.00    -0.278 A  
HETATM   16  C   UNL     1      -9.833   8.457  66.794  1.00  0.00    -0.329 A  
BRANCH  14  17
HETATM   17  C   UNL     1     -10.671  11.787  65.180  1.00  0.00    -0.291 C  
HETATM   18  O   UNL     1     -11.052  11.438  64.064  1.00  0.00    -0.374 OA 
BRANCH  17  19
HETATM   19  C   UNL     1     -10.523  13.242  65.466  1.00  0.00    -0.295 A  
HETATM   20  C   UNL     1     -10.107  13.618  66.750  1.00  0.00    -0.269 A  
HETATM   21  C   UNL     1     -10.009  14.967  67.096  1.00  0.00    -0.237 A  
HETATM   22  C   UNL     1     -10.330  15.947  66.159  1.00  0.00    -0.328 A  
HETATM   23  C   UNL     1     -10.749  15.587  64.880  1.00  0.00    -0.415 A  
HETATM   24 CL   UNL     1     -10.235  17.609  66.590  1.00  0.00    -0.331 Cl 
HETATM   25  C   UNL     1     -10.859  14.235  64.536  1.00  0.00    -0.305 A  
ENDBRANCH  17  19
ENDBRANCH  14  17
ENDBRANCH  10  11
ENDBRANCH   4   5
ENDBRANCH   2   4
TORSDOF 5
ENDMDL
MODEL       94
REMARK 921   NORMALIZED FREE ENERGY PREDICTED BY IDOCK:   -3.80 KCAL/MOL
REMARK 922        TOTAL FREE ENERGY PREDICTED BY IDOCK:   -5.96 KCAL/MOL
REMARK 923 INTER-LIGAND FREE ENERGY PREDICTED BY IDOCK:   -6.43 KCAL/MOL
REMARK 924 INTRA-LIGAND FREE ENERGY PREDICTED BY IDOCK:    0.47 KCAL/MOL
REMARK 927      BINDING AFFINITY PREDICTED BY RF-SCORE:    0.00 PKD
ROOT
HETATM    1  C   UNL     1      -8.824   4.458  66.278  1.00  0.00    -0.114 C  
HETATM    2  C   UNL     1      -9.295   3.212  67.014  1.00  0.00    -0.150 C  
HETATM    3  C   UNL     1      -8.298   2.074  66.833  1.00  0.00    -0.087 C  
ENDROOT
BRANCH   2   4
HETATM    4  O   UNL     1      -9.364   3.500  68.424  1.00  0.00    -0.155 OA 
BRANCH   4   5
HETATM    5  C   UNL     1      -8.788   4.668  68.851  1.00  0.00    -0.099 C  
HETATM    6  O   UNL     1      -7.661   5.032  68.540  1.00  0.00    -0.077 OA 
HETATM    7  C   UNL     1      -9.775   5.446  69.760  1.00  0.00    -0.184 C  
HETATM    8  C   UNL     1     -11.003   5.743  68.873  1.00  0.00    -0.250 C  
HETATM    9  C   UNL     1     -10.081   4.543  70.962  1.00  0.00    -0.222 C  
HETATM   10  O   UNL     1      -9.064   6.615  70.229  1.00  0.00    -0.154 OA 
BRANCH  10  11
HETATM   11  C   UNL     1      -9.727   7.762  70.553  1.00  0.00    -0.175 A  
HETATM   12  C   UNL     1     -10.579   7.921  71.641  1.00  0.00    -0.267 A  
HETATM   13  C   UNL     1     -11.362   9.067  71.763  1.00  0.00    -0.447 A  
HETATM   14  C   UNL     1     -11.248  10.096  70.827  1.00  0.00    -0.414 A  
HETATM   15  C   UNL     1     -10.257  10.023  69.844  1.00  0.00    -0.304 A  
HETATM   16  C   UNL     1      -9.509   8.848  69.702  1.00  0.00    -0.168 A  
BRANCH  14  17
HETATM   17  C   UNL     1     -12.210  11.220  70.919  1.00  0.00    -0.356 C  
HETATM   18  O   UNL     1     -13.275  11.039  71.506  1.00  0.00    -0.388 OA 
BRANCH  17  19
HETATM   19  C   UNL     1     -11.968  12.533  70.259  1.00  0.00    -0.364 A  
HETATM   20  C   UNL     1     -11.443  12.527  68.959  1.00  0.00    -0.355 A  
HETATM   21  C   UNL     1     -11.138  13.726  68.313  1.00  0.00    -0.279 A  
HETATM   22  C   UNL     1     -11.352  14.938  68.965  1.00  0.00    -0.292 A  
HETATM   23  C   UNL     1     -11.869  14.959  70.259  1.00  0.00    -0.358 A  
HETATM   24 CL   UNL     1     -10.952  16.416  68.181  1.00  0.00    -0.347 Cl 
HETATM   25  C   UNL     1     -12.164  13.758  70.913  1.00  0.00    -0.427 A  
ENDBRANCH  17  19
ENDBRANCH  14  17
ENDBRANCH  10  11
ENDBRANCH   4   5
ENDBRANCH   2   4
TORSDOF 5
ENDMDL
MODEL       95
REMARK 921   NORMALIZED FREE ENERGY PREDICTED BY IDOCK:   -3.73 KCAL/MOL
REMARK 922        TOTAL FREE ENERGY PREDICTED BY IDOCK:   -5.88 KCAL/MOL
REMARK 923 INTER-LIGAND FREE ENERGY PREDICTED BY IDOCK:   -5.14 KCAL/MOL
REMARK 924 INTRA-LIGAND FREE ENERGY PREDICTED BY IDOCK:   -0.73 KCAL/MOL
REMARK 927      BINDING AFFINITY PREDICTED BY RF-SCORE:    0.00 PKD
ROOT
HETATM    1  C   UNL     1      -8.546   4.532  72.994  1.00  0.00    -0.105 C  
HETATM    2  C   UNL     1      -7.968   4.347  71.599  1.00  0.00    -0.091 C  
HETATM    3  C   UNL     1      -7.821   2.866  71.272  1.00  0.00    -0.047 C  
ENDROOT
BRANCH   2   4
HETATM    4  O   UNL     1      -8.880   4.909  70.636  1.00  0.00    -0.112 OA 
BRANCH   4   5
HETATM    5  C   UNL     1      -8.337   5.406  69.479  1.00  0.00    -0.100 C  
HETATM    6  O   UNL     1      -7.733   4.727  68.658  1.00  0.00    -0.075 OA 
HETATM    7  C   UNL     1      -8.616   6.928  69.372  1.00  0.00    -0.133 C  
HETATM    8  C   UNL     1     -10.154   7.063  69.347  1.00  0.00    -0.175 C  
HETATM    9  C   UNL     1      -7.954   7.590  70.588  1.00  0.00    -0.100 C  
HETATM   10  O   UNL     1      -7.944   7.383  68.174  1.00  0.00    -0.119 OA 
BRANCH  10  11
HETATM   11  C   UNL     1      -8.402   8.459  67.473  1.00  0.00    -0.129 A  
HETATM   12  C   UNL     1      -8.331   9.783  67.891  1.00  0.00    -0.114 A  
HETATM   13  C   UNL     1      -9.011  10.781  67.196  1.00  0.00    -0.145 A  
HETATM   14  C   UNL     1      -9.715  10.467  66.031  1.00  0.00    -0.257 A  
HETATM   15  C   UNL     1      -9.629   9.176  65.504  1.00  0.00    -0.239 A  
HETATM   16  C   UNL     1      -8.983   8.172  66.236  1.00  0.00    -0.215 A  
BRANCH  14  17
HETATM   17  C   UNL     1     -10.542  11.534  65.419  1.00  0.00    -0.282 C  
HETATM   18  O   UNL     1     -11.010  11.349  64.298  1.00  0.00    -0.350 OA 
BRANCH  17  19
HETATM   19  C   UNL     1     -10.762  12.851  66.080  1.00  0.00    -0.290 A  
HETATM   20  C   UNL     1      -9.953  13.925  65.686  1.00  0.00    -0.298 A  
HETATM   21  C   UNL     1     -10.071  15.168  66.313  1.00  0.00    -0.299 A  
HETATM   22  C   UNL     1     -10.996  15.340  67.339  1.00  0.00    -0.321 A  
HETATM   23  C   UNL     1     -11.804  14.280  67.744  1.00  0.00    -0.414 A  
HETATM   24 CL   UNL     1     -11.125  16.862  68.130  1.00  0.00    -0.293 Cl 
HETATM   25  C   UNL     1     -11.679  13.031  67.126  1.00  0.00    -0.439 A  
ENDBRANCH  17  19
ENDBRANCH  14  17
ENDBRANCH  10  11
ENDBRANCH   4   5
ENDBRANCH   2   4
TORSDOF 5
ENDMDL
MODEL       96
REMARK 921   NORMALIZED FREE ENERGY PREDICTED BY IDOCK:   -3.73 KCAL/MOL
REMARK 922        TOTAL FREE ENERGY PREDICTED BY IDOCK:   -5.87 KCAL/MOL
REMARK 923 INTER-LIGAND FREE ENERGY PREDICTED BY IDOCK:   -5.80 KCAL/MOL
REMARK 924 INTRA-LIGAND FREE ENERGY PREDICTED BY IDOCK:   -0.07 KCAL/MOL
REMARK 927      BINDING AFFINITY PREDICTED BY RF-SCORE:    0.00 PKD
ROOT
HETATM    1  C   UNL     1     -10.242   3.582  63.685  1.00  0.00    -0.218 C  
HETATM    2  C   UNL     1      -9.552   2.634  64.655  1.00  0.00    -0.099 C  
HETATM    3  C   UNL     1      -8.302   2.036  64.022  1.00  0.00    -0.081 C  
ENDROOT
BRANCH   2   4
HETATM    4  O   UNL     1      -9.131   3.375  65.816  1.00  0.00    -0.141 OA 
BRANCH   4   5
HETATM    5  C   UNL     1      -8.594   4.618  65.601  1.00  0.00    -0.124 C  
HETATM    6  O   UNL     1      -7.868   4.898  64.655  1.00  0.00    -0.084 OA 
HETATM    7  C   UNL     1      -9.052   5.596  66.714  1.00  0.00    -0.120 C  
HETATM    8  C   UNL     1     -10.592   5.648  66.606  1.00  0.00    -0.361 C  
HETATM    9  C   UNL     1      -8.543   5.027  68.045  1.00  0.00    -0.103 C  
HETATM   10  O   UNL     1      -8.381   6.851  66.459  1.00  0.00    -0.113 OA 
BRANCH  10  11
HETATM   11  C   UNL     1      -8.930   8.037  66.843  1.00  0.00    -0.138 A  
HETATM   12  C   UNL     1      -8.964   8.526  68.145  1.00  0.00    -0.142 A  
HETATM   13  C   UNL     1      -9.729   9.648  68.458  1.00  0.00    -0.161 A  
HETATM   14  C   UNL     1     -10.415  10.331  67.452  1.00  0.00    -0.303 A  
HETATM   15  C   UNL     1     -10.229   9.957  66.119  1.00  0.00    -0.277 A  
HETATM   16  C   UNL     1      -9.497   8.801  65.821  1.00  0.00    -0.239 A  
BRANCH  14  17
HETATM   17  C   UNL     1     -11.332  11.422  67.863  1.00  0.00    -0.303 C  
HETATM   18  O   UNL     1     -12.399  11.126  68.397  1.00  0.00    -0.556 OA 
BRANCH  17  19
HETATM   19  C   UNL     1     -11.042  12.855  67.582  1.00  0.00    -0.297 A  
HETATM   20  C   UNL     1     -11.812  13.821  68.244  1.00  0.00    -0.413 A  
HETATM   21  C   UNL     1     -11.627  15.179  67.976  1.00  0.00    -0.345 A  
HETATM   22  C   UNL     1     -10.673  15.577  67.042  1.00  0.00    -0.321 A  
HETATM   23  C   UNL     1      -9.904  14.627  66.373  1.00  0.00    -0.302 A  
HETATM   24 CL   UNL     1     -10.462  17.247  66.691  1.00  0.00    -0.293 Cl 
HETATM   25  C   UNL     1     -10.096  13.266  66.631  1.00  0.00    -0.266 A  
ENDBRANCH  17  19
ENDBRANCH  14  17
ENDBRANCH  10  11
ENDBRANCH   4   5
ENDBRANCH   2   4
TORSDOF 5
ENDMDL
MODEL       97
REMARK 921   NORMALIZED FREE ENERGY PREDICTED BY IDOCK:   -3.71 KCAL/MOL
REMARK 922        TOTAL FREE ENERGY PREDICTED BY IDOCK:   -5.85 KCAL/MOL
REMARK 923 INTER-LIGAND FREE ENERGY PREDICTED BY IDOCK:   -5.40 KCAL/MOL
REMARK 924 INTRA-LIGAND FREE ENERGY PREDICTED BY IDOCK:   -0.45 KCAL/MOL
REMARK 927      BINDING AFFINITY PREDICTED BY RF-SCORE:    0.00 PKD
ROOT
HETATM    1  C   UNL     1      -9.160   6.007  74.373  1.00  0.00    -0.140 C  
HETATM    2  C   UNL     1      -9.982   5.679  73.135  1.00  0.00    -0.175 C  
HETATM    3  C   UNL     1     -11.157   4.779  73.495  1.00  0.00    -0.412 C  
ENDROOT
BRANCH   2   4
HETATM    4  O   UNL     1     -10.527   6.899  72.597  1.00  0.00    -0.197 OA 
BRANCH   4   5
HETATM    5  C   UNL     1     -10.831   6.910  71.260  1.00  0.00    -0.234 C  
HETATM    6  O   UNL     1     -11.645   6.161  70.735  1.00  0.00    -0.316 OA 
HETATM    7  C   UNL     1     -10.008   8.008  70.537  1.00  0.00    -0.190 C  
HETATM    8  C   UNL     1     -10.431   9.339  71.197  1.00  0.00    -0.401 C  
HETATM    9  C   UNL     1      -8.527   7.660  70.735  1.00  0.00    -0.125 C  
HETATM   10  O   UNL     1     -10.327   7.898  69.131  1.00  0.00    -0.213 OA 
BRANCH  10  11
HETATM   11  C   UNL     1     -10.261   8.980  68.304  1.00  0.00    -0.204 A  
HETATM   12  C   UNL     1      -9.200   9.284  67.457  1.00  0.00    -0.140 A  
HETATM   13  C   UNL     1      -9.144  10.517  66.811  1.00  0.00    -0.167 A  
HETATM   14  C   UNL     1     -10.188  11.433  66.957  1.00  0.00    -0.246 A  
HETATM   15  C   UNL     1     -11.341  11.054  67.651  1.00  0.00    -0.355 A  
HETATM   16  C   UNL     1     -11.366   9.833  68.334  1.00  0.00     0.027 A  
BRANCH  14  17
HETATM   17  C   UNL     1     -10.006  12.784  66.374  1.00  0.00    -0.265 C  
HETATM   18  O   UNL     1     -10.519  13.030  65.284  1.00  0.00    -0.291 OA 
BRANCH  17  19
HETATM   19  C   UNL     1      -9.161  13.825  67.022  1.00  0.00    -0.256 A  
HETATM   20  C   UNL     1      -8.754  13.607  68.345  1.00  0.00    -0.153 A  
HETATM   21  C   UNL     1      -8.011  14.574  69.027  1.00  0.00    -0.090 A  
HETATM   22  C   UNL     1      -7.677  15.766  68.388  1.00  0.00    -0.128 A  
HETATM   23  C   UNL     1      -8.080  15.998  67.075  1.00  0.00    -0.257 A  
HETATM   24 CL   UNL     1      -6.787  16.970  69.233  1.00  0.00    -0.236 Cl 
HETATM   25  C   UNL     1      -8.834  15.035  66.395  1.00  0.00    -0.238 A  
ENDBRANCH  17  19
ENDBRANCH  14  17
ENDBRANCH  10  11
ENDBRANCH   4   5
ENDBRANCH   2   4
TORSDOF 5
ENDMDL
MODEL       98
REMARK 921   NORMALIZED FREE ENERGY PREDICTED BY IDOCK:   -3.69 KCAL/MOL
REMARK 922        TOTAL FREE ENERGY PREDICTED BY IDOCK:   -5.82 KCAL/MOL
REMARK 923 INTER-LIGAND FREE ENERGY PREDICTED BY IDOCK:   -5.02 KCAL/MOL
REMARK 924 INTRA-LIGAND FREE ENERGY PREDICTED BY IDOCK:   -0.80 KCAL/MOL
REMARK 927      BINDING AFFINITY PREDICTED BY RF-SCORE:    0.00 PKD
ROOT
HETATM    1  C   UNL     1      -8.973   3.126  72.879  1.00  0.00    -0.102 C  
HETATM    2  C   UNL     1      -8.249   3.325  71.556  1.00  0.00    -0.061 C  
HETATM    3  C   UNL     1      -8.189   2.018  70.775  1.00  0.00    -0.065 C  
ENDROOT
BRANCH   2   4
HETATM    4  O   UNL     1      -8.987   4.267  70.755  1.00  0.00    -0.092 OA 
BRANCH   4   5
HETATM    5  C   UNL     1      -8.366   5.452  70.453  1.00  0.00    -0.113 C  
HETATM    6  O   UNL     1      -7.228   5.537  70.010  1.00  0.00    -0.064 OA 
HETATM    7  C   UNL     1      -9.319   6.641  70.744  1.00  0.00    -0.158 C  
HETATM    8  C   UNL     1     -10.539   6.423  69.823  1.00  0.00    -0.309 C  
HETATM    9  C   UNL     1      -9.654   6.590  72.240  1.00  0.00    -0.149 C  
HETATM   10  O   UNL     1      -8.563   7.845  70.479  1.00  0.00    -0.128 OA 
BRANCH  10  11
HETATM   11  C   UNL     1      -9.180   8.995  70.084  1.00  0.00    -0.192 A  
HETATM   12  C   UNL     1     -10.300   9.556  70.687  1.00  0.00    -0.369 A  
HETATM   13  C   UNL     1     -10.971  10.616  70.081  1.00  0.00    -0.292 A  
HETATM   14  C   UNL     1     -10.483  11.168  68.894  1.00  0.00    -0.233 A  
HETATM   15  C   UNL     1      -9.255  10.733  68.390  1.00  0.00    -0.164 A  
HETATM   16  C   UNL     1      -8.614   9.637  68.980  1.00  0.00    -0.133 A  
BRANCH  14  17
HETATM   17  C   UNL     1     -11.318  12.188  68.215  1.00  0.00    -0.289 C  
HETATM   18  O   UNL     1     -12.173  11.814  67.415  1.00  0.00    -0.501 OA 
BRANCH  17  19
HETATM   19  C   UNL     1     -11.105  13.649  68.410  1.00  0.00    -0.289 A  
HETATM   20  C   UNL     1     -11.715  14.526  67.502  1.00  0.00    -0.413 A  
HETATM   21  C   UNL     1     -11.503  15.903  67.597  1.00  0.00    -0.070 A  
HETATM   22  C   UNL     1     -10.676  16.409  68.598  1.00  0.00    -0.317 A  
HETATM   23  C   UNL     1     -10.061  15.549  69.504  1.00  0.00    -0.278 A  
HETATM   24 CL   UNL     1     -10.393  18.102  68.700  1.00  0.00    -0.360 Cl 
HETATM   25  C   UNL     1     -10.262  14.168  69.403  1.00  0.00     0.120 A  
ENDBRANCH  17  19
ENDBRANCH  14  17
ENDBRANCH  10  11
ENDBRANCH   4   5
ENDBRANCH   2   4
TORSDOF 5
ENDMDL
MODEL       99
REMARK 921   NORMALIZED FREE ENERGY PREDICTED BY IDOCK:   -3.67 KCAL/MOL
REMARK 922        TOTAL FREE ENERGY PREDICTED BY IDOCK:   -5.80 KCAL/MOL
REMARK 923 INTER-LIGAND FREE ENERGY PREDICTED BY IDOCK:   -5.71 KCAL/MOL
REMARK 924 INTRA-LIGAND FREE ENERGY PREDICTED BY IDOCK:   -0.09 KCAL/MOL
REMARK 927      BINDING AFFINITY PREDICTED BY RF-SCORE:    0.00 PKD
ROOT
HETATM    1  C   UNL     1      -9.724  17.311  67.217  1.00  0.00    -0.262 C  
HETATM    2  C   UNL     1     -10.945  16.559  66.707  1.00  0.00     0.046 C  
HETATM    3  C   UNL     1     -10.638  15.880  65.378  1.00  0.00    -0.439 C  
ENDROOT
BRANCH   2   4
HETATM    4  O   UNL     1     -11.284  15.523  67.648  1.00  0.00    -0.323 OA 
BRANCH   4   5
HETATM    5  C   UNL     1     -11.645  14.305  67.132  1.00  0.00    -0.380 C  
HETATM    6  O   UNL     1     -12.393  14.160  66.174  1.00  0.00    -0.450 OA 
HETATM    7  C   UNL     1     -10.958  13.166  67.929  1.00  0.00    -0.249 C  
HETATM    8  C   UNL     1      -9.441  13.398  67.753  1.00  0.00    -0.210 C  
HETATM    9  C   UNL     1     -11.439  13.283  69.381  1.00  0.00    -0.323 C  
HETATM   10  O   UNL     1     -11.452  11.924  67.376  1.00  0.00    -0.307 OA 
BRANCH  10  11
HETATM   11  C   UNL     1     -10.703  10.786  67.412  1.00  0.00    -0.268 A  
HETATM   12  C   UNL     1      -9.922  10.301  66.368  1.00  0.00    -0.287 A  
HETATM   13  C   UNL     1      -9.363   9.027  66.438  1.00  0.00    -0.264 A  
HETATM   14  C   UNL     1      -9.526   8.252  67.588  1.00  0.00    -0.176 A  
HETATM   15  C   UNL     1     -10.145   8.811  68.710  1.00  0.00    -0.213 A  
HETATM   16  C   UNL     1     -10.744  10.072  68.612  1.00  0.00    -0.256 A  
BRANCH  14  17
HETATM   17  C   UNL     1      -9.041   6.852  67.549  1.00  0.00    -0.118 C  
HETATM   18  O   UNL     1      -8.290   6.461  68.441  1.00  0.00    -0.115 OA 
BRANCH  17  19
HETATM   19  C   UNL     1      -9.369   5.926  66.430  1.00  0.00    -0.171 A  
HETATM   20  C   UNL     1     -10.670   5.410  66.366  1.00  0.00    -0.284 A  
HETATM   21  C   UNL     1     -11.020   4.490  65.375  1.00  0.00     0.005 A  
HETATM   22  C   UNL     1     -10.068   4.079  64.445  1.00  0.00    -0.190 A  
HETATM   23  C   UNL     1      -8.769   4.581  64.499  1.00  0.00    -0.148 A  
HETATM   24 CL   UNL     1     -10.488   2.928  63.239  1.00  0.00    -0.182 Cl 
HETATM   25  C   UNL     1      -8.414   5.493  65.499  1.00  0.00    -0.144 A  
ENDBRANCH  17  19
ENDBRANCH  14  17
ENDBRANCH  10  11
ENDBRANCH   4   5
ENDBRANCH   2   4
TORSDOF 5
ENDMDL
MODEL      100
REMARK 921   NORMALIZED FREE ENERGY PREDICTED BY IDOCK:   -3.66 KCAL/MOL
REMARK 922        TOTAL FREE ENERGY PREDICTED BY IDOCK:   -5.78 KCAL/MOL
REMARK 923 INTER-LIGAND FREE ENERGY PREDICTED BY IDOCK:   -5.09 KCAL/MOL
REMARK 924 INTRA-LIGAND FREE ENERGY PREDICTED BY IDOCK:   -0.68 KCAL/MOL
REMARK 927      BINDING AFFINITY PREDICTED BY RF-SCORE:    0.00 PKD
ROOT
HETATM    1  C   UNL     1      -6.505   5.459  71.485  1.00  0.00    -0.040 C  
HETATM    2  C   UNL     1      -7.074   6.492  72.446  1.00  0.00    -0.077 C  
HETATM    3  C   UNL     1      -5.979   7.043  73.351  1.00  0.00    -0.057 C  
ENDROOT
BRANCH   2   4
HETATM    4  O   UNL     1      -7.599   7.599  71.688  1.00  0.00    -0.080 OA 
BRANCH   4   5
HETATM    5  C   UNL     1      -8.451   7.299  70.656  1.00  0.00    -0.140 C  
HETATM    6  O   UNL     1      -9.338   6.459  70.720  1.00  0.00    -0.157 OA 
HETATM    7  C   UNL     1      -8.127   8.186  69.425  1.00  0.00    -0.116 C  
HETATM    8  C   UNL     1      -8.344   9.640  69.899  1.00  0.00    -0.195 C  
HETATM    9  C   UNL     1      -6.681   7.875  69.018  1.00  0.00    -0.049 C  
HETATM   10  O   UNL     1      -9.010   7.753  68.365  1.00  0.00    -0.133 OA 
BRANCH  10  11
HETATM   11  C   UNL     1      -9.408   8.609  67.382  1.00  0.00    -0.144 A  
HETATM   12  C   UNL     1      -8.710   8.870  66.208  1.00  0.00    -0.162 A  
HETATM   13  C   UNL     1      -9.102   9.913  65.371  1.00  0.00    -0.241 A  
HETATM   14  C   UNL     1     -10.241  10.662  65.671  1.00  0.00    -0.319 A  
HETATM   15  C   UNL     1     -11.051  10.280  66.743  1.00  0.00     0.029 A  
HETATM   16  C   UNL     1     -10.623   9.262  67.604  1.00  0.00    -0.324 A  
BRANCH  14  17
HETATM   17  C   UNL     1     -10.523  11.852  64.832  1.00  0.00    -0.287 C  
HETATM   18  O   UNL     1     -10.850  11.683  63.658  1.00  0.00    -0.372 OA 
BRANCH  17  19
HETATM   19  C   UNL     1     -10.350  13.242  65.336  1.00  0.00    -0.316 A  
HETATM   20  C   UNL     1      -9.601  13.426  66.506  1.00  0.00    -0.277 A  
HETATM   21  C   UNL     1      -9.454  14.699  67.061  1.00  0.00    -0.249 A  
HETATM   22  C   UNL     1     -10.061  15.794  66.449  1.00  0.00    -0.291 A  
HETATM   23  C   UNL     1     -10.812  15.625  65.288  1.00  0.00    -0.420 A  
HETATM   24 CL   UNL     1      -9.904  17.359  67.145  1.00  0.00    -0.269 Cl 
HETATM   25  C   UNL     1     -10.970  14.349  64.738  1.00  0.00    -0.409 A  
ENDBRANCH  17  19
ENDBRANCH  14  17
ENDBRANCH  10  11
ENDBRANCH   4   5
ENDBRANCH   2   4
TORSDOF 5
ENDMDL
MODEL      101
REMARK 921   NORMALIZED FREE ENERGY PREDICTED BY IDOCK:   -3.64 KCAL/MOL
REMARK 922        TOTAL FREE ENERGY PREDICTED BY IDOCK:   -5.76 KCAL/MOL
REMARK 923 INTER-LIGAND FREE ENERGY PREDICTED BY IDOCK:   -5.68 KCAL/MOL
REMARK 924 INTRA-LIGAND FREE ENERGY PREDICTED BY IDOCK:   -0.08 KCAL/MOL
REMARK 927      BINDING AFFINITY PREDICTED BY RF-SCORE:    0.00 PKD
ROOT
HETATM    1  C   UNL     1      -9.104   6.523  71.688  1.00  0.00    -0.143 C  
HETATM    2  C   UNL     1      -9.794   6.005  70.434  1.00  0.00    -0.179 C  
HETATM    3  C   UNL     1     -11.248   6.459  70.397  1.00  0.00    -0.435 C  
ENDROOT
BRANCH   2   4
HETATM    4  O   UNL     1      -9.143   6.563  69.277  1.00  0.00    -0.137 OA 
BRANCH   4   5
HETATM    5  C   UNL     1      -9.943   7.168  68.342  1.00  0.00    -0.158 C  
HETATM    6  O   UNL     1     -10.965   6.670  67.889  1.00  0.00    -0.264 OA 
HETATM    7  C   UNL     1      -9.366   8.558  67.968  1.00  0.00    -0.136 C  
HETATM    8  C   UNL     1      -9.366   9.369  69.282  1.00  0.00    -0.167 C  
HETATM    9  C   UNL     1      -7.967   8.320  67.385  1.00  0.00    -0.106 C  
HETATM   10  O   UNL     1     -10.218   9.087  66.926  1.00  0.00    -0.238 OA 
BRANCH  10  11
HETATM   11  C   UNL     1     -10.376  10.431  66.756  1.00  0.00    -0.235 A  
HETATM   12  C   UNL     1      -9.562  11.247  65.979  1.00  0.00    -0.245 A  
HETATM   13  C   UNL     1      -9.687  12.633  66.039  1.00  0.00    -0.232 A  
HETATM   14  C   UNL     1     -10.680  13.213  66.831  1.00  0.00    -0.270 A  
HETATM   15  C   UNL     1     -11.620  12.393  67.462  1.00  0.00    -0.431 A  
HETATM   16  C   UNL     1     -11.455  11.003  67.433  1.00  0.00    -0.217 A  
BRANCH  14  17
HETATM   17  C   UNL     1     -10.670  14.688  66.977  1.00  0.00    -0.290 C  
HETATM   18  O   UNL     1     -11.713  15.308  66.776  1.00  0.00    -0.159 OA 
BRANCH  17  19
HETATM   19  C   UNL     1      -9.428  15.451  67.281  1.00  0.00    -0.215 A  
HETATM   20  C   UNL     1      -8.956  15.435  68.601  1.00  0.00    -0.191 A  
HETATM   21  C   UNL     1      -7.831  16.180  68.960  1.00  0.00    -0.227 A  
HETATM   22  C   UNL     1      -7.174  16.948  68.001  1.00  0.00    -0.162 A  
HETATM   23  C   UNL     1      -7.635  16.976  66.686  1.00  0.00    -0.298 A  
HETATM   24 CL   UNL     1      -5.804  17.887  68.446  1.00  0.00    -0.170 Cl 
HETATM   25  C   UNL     1      -8.769  16.240  66.328  1.00  0.00    -0.370 A  
ENDBRANCH  17  19
ENDBRANCH  14  17
ENDBRANCH  10  11
ENDBRANCH   4   5
ENDBRANCH   2   4
TORSDOF 5
ENDMDL
MODEL      102
REMARK 921   NORMALIZED FREE ENERGY PREDICTED BY IDOCK:   -3.62 KCAL/MOL
REMARK 922        TOTAL FREE ENERGY PREDICTED BY IDOCK:   -5.73 KCAL/MOL
REMARK 923 INTER-LIGAND FREE ENERGY PREDICTED BY IDOCK:   -5.66 KCAL/MOL
REMARK 924 INTRA-LIGAND FREE ENERGY PREDICTED BY IDOCK:   -0.07 KCAL/MOL
REMARK 927      BINDING AFFINITY PREDICTED BY RF-SCORE:    0.00 PKD
ROOT
HETATM    1  C   UNL     1      -8.533   5.006  72.990  1.00  0.00    -0.111 C  
HETATM    2  C   UNL     1      -9.649   6.024  73.172  1.00  0.00    -0.143 C  
HETATM    3  C   UNL     1      -9.182   7.181  74.047  1.00  0.00    -0.281 C  
ENDROOT
BRANCH   2   4
HETATM    4  O   UNL     1      -9.996   6.574  71.886  1.00  0.00    -0.178 OA 
BRANCH   4   5
HETATM    5  C   UNL     1      -9.198   7.577  71.401  1.00  0.00    -0.141 C  
HETATM    6  O   UNL     1      -7.982   7.616  71.541  1.00  0.00    -0.091 OA 
HETATM    7  C   UNL     1     -10.059   8.626  70.651  1.00  0.00    -0.198 C  
HETATM    8  C   UNL     1     -10.723   7.856  69.489  1.00  0.00    -0.195 C  
HETATM    9  C   UNL     1     -11.057   9.195  71.668  1.00  0.00    -0.445 C  
HETATM   10  O   UNL     1      -9.158   9.682  70.246  1.00  0.00    -0.235 OA 
BRANCH  10  11
HETATM   11  C   UNL     1      -9.408  10.440  69.141  1.00  0.00    -0.199 A  
HETATM   12  C   UNL     1      -8.727  10.354  67.932  1.00  0.00    -0.118 A  
HETATM   13  C   UNL     1      -8.924  11.313  66.940  1.00  0.00    -0.163 A  
HETATM   14  C   UNL     1      -9.860  12.332  67.128  1.00  0.00    -0.207 A  
HETATM   15  C   UNL     1     -10.681  12.311  68.258  1.00  0.00    -0.244 A  
HETATM   16  C   UNL     1     -10.442  11.371  69.269  1.00  0.00    -0.104 A  
BRANCH  14  17
HETATM   17  C   UNL     1      -9.919  13.408  66.109  1.00  0.00    -0.294 C  
HETATM   18  O   UNL     1     -10.214  13.111  64.953  1.00  0.00    -0.316 OA 
BRANCH  17  19
HETATM   19  C   UNL     1      -9.558  14.820  66.419  1.00  0.00    -0.324 A  
HETATM   20  C   UNL     1     -10.525  15.808  66.190  1.00  0.00    -0.326 A  
HETATM   21  C   UNL     1     -10.225  17.155  66.404  1.00  0.00    -0.331 A  
HETATM   22  C   UNL     1      -8.955  17.520  66.844  1.00  0.00    -0.251 A  
HETATM   23  C   UNL     1      -7.983  16.548  67.072  1.00  0.00    -0.239 A  
HETATM   24 CL   UNL     1      -8.575  19.180  67.084  1.00  0.00    -0.297 Cl 
HETATM   25  C   UNL     1      -8.278  15.199  66.846  1.00  0.00    -0.234 A  
ENDBRANCH  17  19
ENDBRANCH  14  17
ENDBRANCH  10  11
ENDBRANCH   4   5
ENDBRANCH   2   4
TORSDOF 5
ENDMDL
MODEL      103
REMARK 921   NORMALIZED FREE ENERGY PREDICTED BY IDOCK:   -3.61 KCAL/MOL
REMARK 922        TOTAL FREE ENERGY PREDICTED BY IDOCK:   -5.72 KCAL/MOL
REMARK 923 INTER-LIGAND FREE ENERGY PREDICTED BY IDOCK:   -4.98 KCAL/MOL
REMARK 924 INTRA-LIGAND FREE ENERGY PREDICTED BY IDOCK:   -0.74 KCAL/MOL
REMARK 927      BINDING AFFINITY PREDICTED BY RF-SCORE:    0.00 PKD
ROOT
HETATM    1  C   UNL     1      -5.378   3.403  74.067  1.00  0.00     0.000 C  
HETATM    2  C   UNL     1      -6.459   3.536  73.005  1.00  0.00    -0.024 C  
HETATM    3  C   UNL     1      -7.286   2.259  72.919  1.00  0.00    -0.036 C  
ENDROOT
BRANCH   2   4
HETATM    4  O   UNL     1      -7.355   4.600  73.379  1.00  0.00    -0.078 OA 
BRANCH   4   5
HETATM    5  C   UNL     1      -7.188   5.806  72.749  1.00  0.00    -0.090 C  
HETATM    6  O   UNL     1      -6.111   6.226  72.344  1.00  0.00    -0.037 OA 
HETATM    7  C   UNL     1      -8.552   6.533  72.621  1.00  0.00    -0.124 C  
HETATM    8  C   UNL     1      -9.437   5.597  71.768  1.00  0.00    -0.169 C  
HETATM    9  C   UNL     1      -9.076   6.753  74.046  1.00  0.00    -0.209 C  
HETATM   10  O   UNL     1      -8.275   7.821  72.024  1.00  0.00    -0.100 OA 
BRANCH  10  11
HETATM   11  C   UNL     1      -9.210   8.466  71.270  1.00  0.00    -0.178 A  
HETATM   12  C   UNL     1      -9.135   8.675  69.897  1.00  0.00    -0.151 A  
HETATM   13  C   UNL     1     -10.040   9.522  69.262  1.00  0.00    -0.203 A  
HETATM   14  C   UNL     1     -11.072  10.117  69.989  1.00  0.00    -0.368 A  
HETATM   15  C   UNL     1     -11.265   9.759  71.326  1.00  0.00    -0.417 A  
HETATM   16  C   UNL     1     -10.323   8.945  71.966  1.00  0.00    -0.378 A  
BRANCH  14  17
HETATM   17  C   UNL     1     -11.910  11.126  69.296  1.00  0.00    -0.352 C  
HETATM   18  O   UNL     1     -13.132  11.060  69.414  1.00  0.00     0.090 OA 
BRANCH  17  19
HETATM   19  C   UNL     1     -11.329  12.166  68.402  1.00  0.00    -0.336 A  
HETATM   20  C   UNL     1     -10.937  13.381  68.980  1.00  0.00    -0.265 A  
HETATM   21  C   UNL     1     -10.443  14.417  68.184  1.00  0.00    -0.237 A  
HETATM   22  C   UNL     1     -10.342  14.242  66.805  1.00  0.00    -0.274 A  
HETATM   23  C   UNL     1     -10.732  13.041  66.218  1.00  0.00    -0.290 A  
HETATM   24 CL   UNL     1      -9.758  15.525  65.820  1.00  0.00    -0.381 Cl 
HETATM   25  C   UNL     1     -11.239  12.007  67.012  1.00  0.00    -0.377 A  
ENDBRANCH  17  19
ENDBRANCH  14  17
ENDBRANCH  10  11
ENDBRANCH   4   5
ENDBRANCH   2   4
TORSDOF 5
ENDMDL
MODEL      104
REMARK 921   NORMALIZED FREE ENERGY PREDICTED BY IDOCK:   -3.60 KCAL/MOL
REMARK 922        TOTAL FREE ENERGY PREDICTED BY IDOCK:   -5.71 KCAL/MOL
REMARK 923 INTER-LIGAND FREE ENERGY PREDICTED BY IDOCK:   -5.68 KCAL/MOL
REMARK 924 INTRA-LIGAND FREE ENERGY PREDICTED BY IDOCK:   -0.03 KCAL/MOL
REMARK 927      BINDING AFFINITY PREDICTED BY RF-SCORE:    0.00 PKD
ROOT
HETATM    1  C   UNL     1     -10.250  17.660  67.690  1.00  0.00    -0.351 C  
HETATM    2  C   UNL     1     -11.079  16.549  67.061  1.00  0.00     0.106 C  
HETATM    3  C   UNL     1     -10.754  16.411  65.579  1.00  0.00    -0.300 C  
ENDROOT
BRANCH   2   4
HETATM    4  O   UNL     1     -10.740  15.299  67.691  1.00  0.00    -0.268 OA 
BRANCH   4   5
HETATM    5  C   UNL     1      -9.870  14.478  67.020  1.00  0.00    -0.249 C  
HETATM    6  O   UNL     1      -8.816  14.855  66.525  1.00  0.00    -0.266 OA 
HETATM    7  C   UNL     1     -10.416  13.026  67.002  1.00  0.00    -0.247 C  
HETATM    8  C   UNL     1     -10.517  12.607  68.484  1.00  0.00    -0.249 C  
HETATM    9  C   UNL     1     -11.766  13.066  66.274  1.00  0.00    -0.440 C  
HETATM   10  O   UNL     1      -9.486  12.251  66.211  1.00  0.00    -0.234 OA 
BRANCH  10  11
HETATM   11  C   UNL     1      -9.315  10.916  66.429  1.00  0.00    -0.176 A  
HETATM   12  C   UNL     1     -10.288   9.938  66.252  1.00  0.00    -0.233 A  
HETATM   13  C   UNL     1     -10.071   8.637  66.699  1.00  0.00    -0.364 A  
HETATM   14  C   UNL     1      -8.846   8.287  67.270  1.00  0.00    -0.137 A  
HETATM   15  C   UNL     1      -7.801   9.215  67.275  1.00  0.00    -0.099 A  
HETATM   16  C   UNL     1      -8.045  10.532  66.867  1.00  0.00    -0.120 A  
BRANCH  14  17
HETATM   17  C   UNL     1      -8.725   6.935  67.866  1.00  0.00    -0.121 C  
HETATM   18  O   UNL     1      -8.091   6.075  67.256  1.00  0.00    -0.105 OA 
BRANCH  17  19
HETATM   19  C   UNL     1      -9.406   6.559  69.135  1.00  0.00    -0.133 A  
HETATM   20  C   UNL     1      -8.621   6.027  70.167  1.00  0.00    -0.135 A  
HETATM   21  C   UNL     1      -9.213   5.600  71.359  1.00  0.00    -0.163 A  
HETATM   22  C   UNL     1     -10.593   5.699  71.521  1.00  0.00    -0.244 A  
HETATM   23  C   UNL     1     -11.385   6.222  70.501  1.00  0.00    -0.428 A  
HETATM   24 CL   UNL     1     -11.326   5.150  72.976  1.00  0.00    -0.385 Cl 
HETATM   25  C   UNL     1     -10.796   6.639  69.303  1.00  0.00    -0.335 A  
ENDBRANCH  17  19
ENDBRANCH  14  17
ENDBRANCH  10  11
ENDBRANCH   4   5
ENDBRANCH   2   4
TORSDOF 5
ENDMDL
MODEL      105
REMARK 921   NORMALIZED FREE ENERGY PREDICTED BY IDOCK:   -3.59 KCAL/MOL
REMARK 922        TOTAL FREE ENERGY PREDICTED BY IDOCK:   -5.69 KCAL/MOL
REMARK 923 INTER-LIGAND FREE ENERGY PREDICTED BY IDOCK:   -5.56 KCAL/MOL
REMARK 924 INTRA-LIGAND FREE ENERGY PREDICTED BY IDOCK:   -0.12 KCAL/MOL
REMARK 927      BINDING AFFINITY PREDICTED BY RF-SCORE:    0.00 PKD
ROOT
HETATM    1  C   UNL     1      -8.967   6.325  67.935  1.00  0.00    -0.113 C  
HETATM    2  C   UNL     1     -10.290   7.076  67.894  1.00  0.00    -0.199 C  
HETATM    3  C   UNL     1     -10.818   7.308  69.304  1.00  0.00    -0.177 C  
ENDROOT
BRANCH   2   4
HETATM    4  O   UNL     1     -10.075   8.371  67.300  1.00  0.00    -0.205 OA 
BRANCH   4   5
HETATM    5  C   UNL     1      -9.558   9.350  68.108  1.00  0.00    -0.142 C  
HETATM    6  O   UNL     1      -8.668   9.164  68.929  1.00  0.00    -0.129 OA 
HETATM    7  C   UNL     1     -10.255  10.704  67.815  1.00  0.00    -0.180 C  
HETATM    8  C   UNL     1      -9.948  11.011  66.333  1.00  0.00    -0.264 C  
HETATM    9  C   UNL     1     -11.748  10.512  68.112  1.00  0.00     0.001 C  
HETATM   10  O   UNL     1      -9.713  11.656  68.760  1.00  0.00    -0.181 OA 
BRANCH  10  11
HETATM   11  C   UNL     1      -9.647  12.985  68.465  1.00  0.00    -0.111 A  
HETATM   12  C   UNL     1     -10.630  13.925  68.752  1.00  0.00    -0.258 A  
HETATM   13  C   UNL     1     -10.552  15.213  68.225  1.00  0.00    -0.243 A  
HETATM   14  C   UNL     1      -9.449  15.589  67.457  1.00  0.00    -0.208 A  
HETATM   15  C   UNL     1      -8.371  14.710  67.327  1.00  0.00    -0.234 A  
HETATM   16  C   UNL     1      -8.481  13.404  67.820  1.00  0.00    -0.181 A  
BRANCH  14  17
HETATM   17  C   UNL     1      -9.491  16.916  66.797  1.00  0.00    -0.255 C  
HETATM   18  O   UNL     1     -10.342  17.120  65.933  1.00  0.00    -0.433 OA 
BRANCH  17  19
HETATM   19  C   UNL     1      -8.492  17.983  67.087  1.00  0.00    -0.241 A  
HETATM   20  C   UNL     1      -8.160  18.221  68.427  1.00  0.00    -0.322 A  
HETATM   21  C   UNL     1      -7.275  19.248  68.765  1.00  0.00    -0.380 A  
HETATM   22  C   UNL     1      -6.724  20.044  67.764  1.00  0.00    -0.250 A  
HETATM   23  C   UNL     1      -7.049  19.821  66.428  1.00  0.00    -0.248 A  
HETATM   24 CL   UNL     1      -5.656  21.326  68.180  1.00  0.00    -0.367 Cl 
HETATM   25  C   UNL     1      -7.944  18.800  66.088  1.00  0.00    -0.241 A  
ENDBRANCH  17  19
ENDBRANCH  14  17
ENDBRANCH  10  11
ENDBRANCH   4   5
ENDBRANCH   2   4
TORSDOF 5
ENDMDL
MODEL      106
REMARK 921   NORMALIZED FREE ENERGY PREDICTED BY IDOCK:   -3.57 KCAL/MOL
REMARK 922        TOTAL FREE ENERGY PREDICTED BY IDOCK:   -5.67 KCAL/MOL
REMARK 923 INTER-LIGAND FREE ENERGY PREDICTED BY IDOCK:   -5.60 KCAL/MOL
REMARK 924 INTRA-LIGAND FREE ENERGY PREDICTED BY IDOCK:   -0.07 KCAL/MOL
REMARK 927      BINDING AFFINITY PREDICTED BY RF-SCORE:    0.00 PKD
ROOT
HETATM    1  C   UNL     1     -10.091  17.760  68.815  1.00  0.00    -0.381 C  
HETATM    2  C   UNL     1     -10.866  16.895  67.833  1.00  0.00    -0.310 C  
HETATM    3  C   UNL     1     -10.026  16.604  66.596  1.00  0.00    -0.290 C  
ENDROOT
BRANCH   2   4
HETATM    4  O   UNL     1     -11.161  15.630  68.456  1.00  0.00    -0.303 OA 
BRANCH   4   5
HETATM    5  C   UNL     1     -10.224  14.637  68.327  1.00  0.00    -0.227 C  
HETATM    6  O   UNL     1      -9.018  14.813  68.445  1.00  0.00    -0.174 OA 
HETATM    7  C   UNL     1     -10.920  13.284  68.029  1.00  0.00    -0.244 C  
HETATM    8  C   UNL     1     -11.828  13.012  69.248  1.00  0.00    -0.370 C  
HETATM    9  C   UNL     1     -11.686  13.456  66.711  1.00  0.00    -0.429 C  
HETATM   10  O   UNL     1      -9.864  12.316  67.828  1.00  0.00    -0.192 OA 
BRANCH  10  11
HETATM   11  C   UNL     1     -10.054  10.995  68.102  1.00  0.00    -0.179 A  
HETATM   12  C   UNL     1      -9.785  10.375  69.318  1.00  0.00    -0.231 A  
HETATM   13  C   UNL     1      -9.821   8.987  69.427  1.00  0.00    -0.183 A  
HETATM   14  C   UNL     1     -10.194   8.208  68.330  1.00  0.00    -0.245 A  
HETATM   15  C   UNL     1     -10.649   8.834  67.166  1.00  0.00    -0.303 A  
HETATM   16  C   UNL     1     -10.564  10.227  67.052  1.00  0.00    -0.302 A  
BRANCH  14  17
HETATM   17  C   UNL     1     -10.068   6.736  68.456  1.00  0.00    -0.162 C  
HETATM   18  O   UNL     1     -10.478   6.194  69.480  1.00  0.00    -0.205 OA 
BRANCH  17  19
HETATM   19  C   UNL     1      -9.393   5.902  67.423  1.00  0.00    -0.111 A  
HETATM   20  C   UNL     1      -9.981   4.677  67.083  1.00  0.00    -0.215 A  
HETATM   21  C   UNL     1      -9.363   3.824  66.166  1.00  0.00    -0.183 A  
HETATM   22  C   UNL     1      -8.151   4.193  65.587  1.00  0.00    -0.101 A  
HETATM   23  C   UNL     1      -7.553   5.406  65.918  1.00  0.00    -0.083 A  
HETATM   24 CL   UNL     1      -7.375   3.133  64.477  1.00  0.00    -0.069 Cl 
HETATM   25  C   UNL     1      -8.165   6.256  66.846  1.00  0.00    -0.109 A  
ENDBRANCH  17  19
ENDBRANCH  14  17
ENDBRANCH  10  11
ENDBRANCH   4   5
ENDBRANCH   2   4
TORSDOF 5
ENDMDL
MODEL      107
REMARK 921   NORMALIZED FREE ENERGY PREDICTED BY IDOCK:   -3.54 KCAL/MOL
REMARK 922        TOTAL FREE ENERGY PREDICTED BY IDOCK:   -5.63 KCAL/MOL
REMARK 923 INTER-LIGAND FREE ENERGY PREDICTED BY IDOCK:   -4.95 KCAL/MOL
REMARK 924 INTRA-LIGAND FREE ENERGY PREDICTED BY IDOCK:   -0.67 KCAL/MOL
REMARK 927      BINDING AFFINITY PREDICTED BY RF-SCORE:    0.00 PKD
ROOT
HETATM    1  C   UNL     1     -11.766  16.039  70.456  1.00  0.00    -0.350 C  
HETATM    2  C   UNL     1     -11.794  14.533  70.669  1.00  0.00    -0.303 C  
HETATM    3  C   UNL     1     -13.050  14.122  71.428  1.00  0.00    -0.428 C  
ENDROOT
BRANCH   2   4
HETATM    4  O   UNL     1     -11.837  13.878  69.387  1.00  0.00    -0.290 OA 
BRANCH   4   5
HETATM    5  C   UNL     1     -10.671  13.840  68.667  1.00  0.00    -0.256 C  
HETATM    6  O   UNL     1      -9.716  14.581  68.866  1.00  0.00    -0.213 OA 
HETATM    7  C   UNL     1     -10.746  12.725  67.591  1.00  0.00    -0.219 C  
HETATM    8  C   UNL     1     -10.938  11.410  68.377  1.00  0.00    -0.263 C  
HETATM    9  C   UNL     1     -11.922  13.074  66.668  1.00  0.00    -0.453 C  
HETATM   10  O   UNL     1      -9.519  12.808  66.830  1.00  0.00    -0.221 OA 
BRANCH  10  11
HETATM   11  C   UNL     1      -8.990  11.709  66.221  1.00  0.00    -0.193 A  
HETATM   12  C   UNL     1      -9.588  10.992  65.190  1.00  0.00    -0.281 A  
HETATM   13  C   UNL     1      -9.060   9.769  64.782  1.00  0.00    -0.290 A  
HETATM   14  C   UNL     1      -7.885   9.285  65.361  1.00  0.00    -0.100 A  
HETATM   15  C   UNL     1      -7.179  10.092  66.257  1.00  0.00    -0.106 A  
HETATM   16  C   UNL     1      -7.743  11.296  66.695  1.00  0.00    -0.148 A  
BRANCH  14  17
HETATM   17  C   UNL     1      -7.453   7.914  64.999  1.00  0.00    -0.088 C  
HETATM   18  O   UNL     1      -6.964   7.723  63.887  1.00  0.00    -0.060 OA 
BRANCH  17  19
HETATM   19  C   UNL     1      -7.662   6.748  65.902  1.00  0.00    -0.094 A  
HETATM   20  C   UNL     1      -8.839   6.003  65.748  1.00  0.00    -0.143 A  
HETATM   21  C   UNL     1      -9.119   4.936  66.605  1.00  0.00    -0.119 A  
HETATM   22  C   UNL     1      -8.224   4.613  67.622  1.00  0.00    -0.100 A  
HETATM   23  C   UNL     1      -7.053   5.348  67.789  1.00  0.00    -0.067 A  
HETATM   24 CL   UNL     1      -8.579   3.316  68.695  1.00  0.00    -0.109 Cl 
HETATM   25  C   UNL     1      -6.777   6.424  66.939  1.00  0.00    -0.060 A  
ENDBRANCH  17  19
ENDBRANCH  14  17
ENDBRANCH  10  11
ENDBRANCH   4   5
ENDBRANCH   2   4
TORSDOF 5
ENDMDL
MODEL      108
REMARK 921   NORMALIZED FREE ENERGY PREDICTED BY IDOCK:   -3.54 KCAL/MOL
REMARK 922        TOTAL FREE ENERGY PREDICTED BY IDOCK:   -5.63 KCAL/MOL
REMARK 923 INTER-LIGAND FREE ENERGY PREDICTED BY IDOCK:   -5.26 KCAL/MOL
REMARK 924 INTRA-LIGAND FREE ENERGY PREDICTED BY IDOCK:   -0.36 KCAL/MOL
REMARK 927      BINDING AFFINITY PREDICTED BY RF-SCORE:    0.00 PKD
ROOT
HETATM    1  C   UNL     1      -8.386   2.955  66.210  1.00  0.00    -0.092 C  
HETATM    2  C   UNL     1      -9.486   2.983  67.261  1.00  0.00    -0.097 C  
HETATM    3  C   UNL     1      -9.252   1.905  68.312  1.00  0.00    -0.232 C  
ENDROOT
BRANCH   2   4
HETATM    4  O   UNL     1      -9.454   4.254  67.938  1.00  0.00    -0.149 OA 
BRANCH   4   5
HETATM    5  C   UNL     1      -9.865   5.351  67.226  1.00  0.00    -0.156 C  
HETATM    6  O   UNL     1     -10.569   5.296  66.226  1.00  0.00    -0.283 OA 
HETATM    7  C   UNL     1      -9.320   6.647  67.883  1.00  0.00    -0.109 C  
HETATM    8  C   UNL     1      -9.922   6.670  69.304  1.00  0.00    -0.171 C  
HETATM    9  C   UNL     1      -7.789   6.549  67.859  1.00  0.00    -0.108 C  
HETATM   10  O   UNL     1      -9.728   7.740  67.029  1.00  0.00    -0.166 OA 
BRANCH  10  11
HETATM   11  C   UNL     1      -9.930   8.991  67.532  1.00  0.00    -0.207 A  
HETATM   12  C   UNL     1      -9.254   9.545  68.614  1.00  0.00    -0.135 A  
HETATM   13  C   UNL     1      -9.680  10.748  69.173  1.00  0.00    -0.181 A  
HETATM   14  C   UNL     1     -10.750  11.443  68.606  1.00  0.00    -0.241 A  
HETATM   15  C   UNL     1     -11.306  10.988  67.408  1.00  0.00    -0.306 A  
HETATM   16  C   UNL     1     -10.903   9.755  66.883  1.00  0.00    -0.120 A  
BRANCH  14  17
HETATM   17  C   UNL     1     -11.256  12.635  69.329  1.00  0.00    -0.193 C  
HETATM   18  O   UNL     1     -11.924  12.468  70.348  1.00  0.00    -0.340 OA 
BRANCH  17  19
HETATM   19  C   UNL     1     -11.051  14.020  68.823  1.00  0.00    -0.287 A  
HETATM   20  C   UNL     1     -10.109  14.213  67.804  1.00  0.00    -0.239 A  
HETATM   21  C   UNL     1      -9.829  15.497  67.331  1.00  0.00    -0.224 A  
HETATM   22  C   UNL     1     -10.489  16.595  67.879  1.00  0.00    -0.322 A  
HETATM   23  C   UNL     1     -11.425  16.418  68.895  1.00  0.00    -0.216 A  
HETATM   24 CL   UNL     1     -10.128  18.179  67.317  1.00  0.00    -0.335 Cl 
HETATM   25  C   UNL     1     -11.697  15.134  69.379  1.00  0.00    -0.355 A  
ENDBRANCH  17  19
ENDBRANCH  14  17
ENDBRANCH  10  11
ENDBRANCH   4   5
ENDBRANCH   2   4
TORSDOF 5
ENDMDL
MODEL      109
REMARK 921   NORMALIZED FREE ENERGY PREDICTED BY IDOCK:   -3.53 KCAL/MOL
REMARK 922        TOTAL FREE ENERGY PREDICTED BY IDOCK:   -5.61 KCAL/MOL
REMARK 923 INTER-LIGAND FREE ENERGY PREDICTED BY IDOCK:   -5.43 KCAL/MOL
REMARK 924 INTRA-LIGAND FREE ENERGY PREDICTED BY IDOCK:   -0.18 KCAL/MOL
REMARK 927      BINDING AFFINITY PREDICTED BY RF-SCORE:    0.00 PKD
ROOT
HETATM    1  C   UNL     1     -12.224  14.386  65.348  1.00  0.00    -0.362 C  
HETATM    2  C   UNL     1     -12.349  12.960  64.833  1.00  0.00    -0.475 C  
HETATM    3  C   UNL     1     -11.374  12.716  63.687  1.00  0.00    -0.544 C  
ENDROOT
BRANCH   2   4
HETATM    4  O   UNL     1     -12.000  12.048  65.892  1.00  0.00    -0.540 OA 
BRANCH   4   5
HETATM    5  C   UNL     1     -10.734  12.147  66.408  1.00  0.00    -0.257 C  
HETATM    6  O   UNL     1     -10.155  13.207  66.608  1.00  0.00    -0.253 OA 
HETATM    7  C   UNL     1     -10.169  10.733  66.706  1.00  0.00    -0.230 C  
HETATM    8  C   UNL     1     -11.130  10.118  67.747  1.00  0.00    -0.293 C  
HETATM    9  C   UNL     1     -10.133   9.976  65.372  1.00  0.00    -0.317 C  
HETATM   10  O   UNL     1      -8.812  10.924  67.167  1.00  0.00    -0.134 OA 
BRANCH  10  11
HETATM   11  C   UNL     1      -8.223  10.037  68.018  1.00  0.00    -0.116 A  
HETATM   12  C   UNL     1      -7.802   8.755  67.682  1.00  0.00    -0.102 A  
HETATM   13  C   UNL     1      -7.403   7.860  68.672  1.00  0.00    -0.090 A  
HETATM   14  C   UNL     1      -7.359   8.266  70.007  1.00  0.00    -0.063 A  
HETATM   15  C   UNL     1      -7.596   9.607  70.324  1.00  0.00    -0.175 A  
HETATM   16  C   UNL     1      -8.042  10.484  69.329  1.00  0.00    -0.152 A  
BRANCH  14  17
HETATM   17  C   UNL     1      -7.076   7.233  71.032  1.00  0.00    -0.064 C  
HETATM   18  O   UNL     1      -5.905   6.941  71.268  1.00  0.00    -0.035 OA 
BRANCH  17  19
HETATM   19  C   UNL     1      -8.158   6.485  71.730  1.00  0.00    -0.104 A  
HETATM   20  C   UNL     1      -8.652   5.325  71.117  1.00  0.00    -0.128 A  
HETATM   21  C   UNL     1      -9.708   4.614  71.693  1.00  0.00    -0.235 A  
HETATM   22  C   UNL     1     -10.277   5.064  72.882  1.00  0.00    -0.178 A  
HETATM   23  C   UNL     1      -9.799   6.218  73.500  1.00  0.00    -0.188 A  
HETATM   24 CL   UNL     1     -11.594   4.206  73.580  1.00  0.00    -0.253 Cl 
HETATM   25  C   UNL     1      -8.749   6.937  72.918  1.00  0.00    -0.138 A  
ENDBRANCH  17  19
ENDBRANCH  14  17
ENDBRANCH  10  11
ENDBRANCH   4   5
ENDBRANCH   2   4
TORSDOF 5
ENDMDL
MODEL      110
REMARK 921   NORMALIZED FREE ENERGY PREDICTED BY IDOCK:   -3.52 KCAL/MOL
REMARK 922        TOTAL FREE ENERGY PREDICTED BY IDOCK:   -5.61 KCAL/MOL
REMARK 923 INTER-LIGAND FREE ENERGY PREDICTED BY IDOCK:   -5.68 KCAL/MOL
REMARK 924 INTRA-LIGAND FREE ENERGY PREDICTED BY IDOCK:    0.07 KCAL/MOL
REMARK 927      BINDING AFFINITY PREDICTED BY RF-SCORE:    0.00 PKD
ROOT
HETATM    1  C   UNL     1      -6.837   7.216  69.564  1.00  0.00    -0.050 C  
HETATM    2  C   UNL     1      -5.558   7.184  68.741  1.00  0.00    -0.018 C  
HETATM    3  C   UNL     1      -5.191   5.750  68.377  1.00  0.00    -0.003 C  
ENDROOT
BRANCH   2   4
HETATM    4  O   UNL     1      -5.777   7.895  67.508  1.00  0.00    -0.035 OA 
BRANCH   4   5
HETATM    5  C   UNL     1      -7.056   7.911  67.015  1.00  0.00    -0.078 C  
HETATM    6  O   UNL     1      -7.758   6.915  66.895  1.00  0.00    -0.096 OA 
HETATM    7  C   UNL     1      -7.469   9.362  66.655  1.00  0.00    -0.093 C  
HETATM    8  C   UNL     1      -7.392  10.151  67.980  1.00  0.00    -0.086 C  
HETATM    9  C   UNL     1      -6.488   9.852  65.583  1.00  0.00    -0.092 C  
HETATM   10  O   UNL     1      -8.790   9.278  66.072  1.00  0.00    -0.143 OA 
BRANCH  10  11
HETATM   11  C   UNL     1      -9.668  10.317  66.157  1.00  0.00    -0.211 A  
HETATM   12  C   UNL     1      -9.669  11.441  65.337  1.00  0.00    -0.265 A  
HETATM   13  C   UNL     1     -10.476  12.535  65.641  1.00  0.00    -0.299 A  
HETATM   14  C   UNL     1     -11.341  12.486  66.736  1.00  0.00    -0.390 A  
HETATM   15  C   UNL     1     -11.482  11.290  67.445  1.00  0.00    -0.300 A  
HETATM   16  C   UNL     1     -10.633  10.214  67.161  1.00  0.00    -0.308 A  
BRANCH  14  17
HETATM   17  C   UNL     1     -12.061  13.729  67.101  1.00  0.00    -0.378 C  
HETATM   18  O   UNL     1     -12.601  14.383  66.210  1.00  0.00    -0.355 OA 
BRANCH  17  19
HETATM   19  C   UNL     1     -12.089  14.254  68.495  1.00  0.00    -0.295 A  
HETATM   20  C   UNL     1     -11.643  15.565  68.710  1.00  0.00    -0.390 A  
HETATM   21  C   UNL     1     -11.588  16.091  70.002  1.00  0.00    -0.316 A  
HETATM   22  C   UNL     1     -11.976  15.307  71.086  1.00  0.00    -0.345 A  
HETATM   23  C   UNL     1     -12.418  14.001  70.887  1.00  0.00    -0.439 A  
HETATM   24 CL   UNL     1     -11.885  15.944  72.681  1.00  0.00    -0.582 Cl 
HETATM   25  C   UNL     1     -12.462  13.468  69.594  1.00  0.00    -0.107 A  
ENDBRANCH  17  19
ENDBRANCH  14  17
ENDBRANCH  10  11
ENDBRANCH   4   5
ENDBRANCH   2   4
TORSDOF 5
ENDMDL
MODEL      111
REMARK 921   NORMALIZED FREE ENERGY PREDICTED BY IDOCK:   -3.52 KCAL/MOL
REMARK 922        TOTAL FREE ENERGY PREDICTED BY IDOCK:   -5.60 KCAL/MOL
REMARK 923 INTER-LIGAND FREE ENERGY PREDICTED BY IDOCK:   -4.79 KCAL/MOL
REMARK 924 INTRA-LIGAND FREE ENERGY PREDICTED BY IDOCK:   -0.80 KCAL/MOL
REMARK 927      BINDING AFFINITY PREDICTED BY RF-SCORE:    0.00 PKD
ROOT
HETATM    1  C   UNL     1      -9.604   4.207  65.000  1.00  0.00    -0.180 C  
HETATM    2  C   UNL     1      -9.879   4.521  66.463  1.00  0.00    -0.227 C  
HETATM    3  C   UNL     1      -9.433   3.366  67.352  1.00  0.00    -0.220 C  
ENDROOT
BRANCH   2   4
HETATM    4  O   UNL     1      -9.111   5.677  66.847  1.00  0.00    -0.115 OA 
BRANCH   4   5
HETATM    5  C   UNL     1      -9.755   6.888  66.829  1.00  0.00    -0.177 C  
HETATM    6  O   UNL     1     -10.970   7.018  66.764  1.00  0.00    -0.317 OA 
HETATM    7  C   UNL     1      -8.721   8.041  66.919  1.00  0.00    -0.130 C  
HETATM    8  C   UNL     1      -7.993   7.836  68.265  1.00  0.00    -0.122 C  
HETATM    9  C   UNL     1      -7.805   7.916  65.694  1.00  0.00    -0.109 C  
HETATM   10  O   UNL     1      -9.472   9.272  66.812  1.00  0.00    -0.156 OA 
BRANCH  10  11
HETATM   11  C   UNL     1      -9.026  10.424  67.389  1.00  0.00    -0.135 A  
HETATM   12  C   UNL     1      -9.650  11.098  68.433  1.00  0.00    -0.192 A  
HETATM   13  C   UNL     1      -9.224  12.370  68.808  1.00  0.00     0.127 A  
HETATM   14  C   UNL     1      -8.120  12.952  68.181  1.00  0.00    -0.158 A  
HETATM   15  C   UNL     1      -7.375  12.201  67.268  1.00  0.00    -0.149 A  
HETATM   16  C   UNL     1      -7.840  10.943  66.865  1.00  0.00    -0.135 A  
BRANCH  14  17
HETATM   17  C   UNL     1      -7.805  14.362  68.512  1.00  0.00    -0.138 C  
HETATM   18  O   UNL     1      -6.947  14.592  69.361  1.00  0.00    -0.143 OA 
BRANCH  17  19
HETATM   19  C   UNL     1      -8.545  15.506  67.909  1.00  0.00    -0.156 A  
HETATM   20  C   UNL     1      -9.002  15.369  66.592  1.00  0.00    -0.319 A  
HETATM   21  C   UNL     1      -9.649  16.429  65.952  1.00  0.00    -0.309 A  
HETATM   22  C   UNL     1      -9.836  17.634  66.627  1.00  0.00    -0.309 A  
HETATM   23  C   UNL     1      -9.382  17.785  67.936  1.00  0.00    -0.266 A  
HETATM   24 CL   UNL     1     -10.608  18.949  65.834  1.00  0.00    -0.513 Cl 
HETATM   25  C   UNL     1      -8.724  16.728  68.573  1.00  0.00    -0.245 A  
ENDBRANCH  17  19
ENDBRANCH  14  17
ENDBRANCH  10  11
ENDBRANCH   4   5
ENDBRANCH   2   4
TORSDOF 5
ENDMDL
MODEL      112
REMARK 921   NORMALIZED FREE ENERGY PREDICTED BY IDOCK:   -3.51 KCAL/MOL
REMARK 922        TOTAL FREE ENERGY PREDICTED BY IDOCK:   -5.59 KCAL/MOL
REMARK 923 INTER-LIGAND FREE ENERGY PREDICTED BY IDOCK:   -4.77 KCAL/MOL
REMARK 924 INTRA-LIGAND FREE ENERGY PREDICTED BY IDOCK:   -0.81 KCAL/MOL
REMARK 927      BINDING AFFINITY PREDICTED BY RF-SCORE:    0.00 PKD
ROOT
HETATM    1  C   UNL     1     -11.396  13.958  65.849  1.00  0.00    -0.314 C  
HETATM    2  C   UNL     1     -12.007  12.709  65.231  1.00  0.00    -0.439 C  
HETATM    3  C   UNL     1     -11.763  12.681  63.728  1.00  0.00    -0.566 C  
ENDROOT
BRANCH   2   4
HETATM    4  O   UNL     1     -11.365  11.548  65.790  1.00  0.00    -0.229 OA 
BRANCH   4   5
HETATM    5  C   UNL     1     -11.410  11.406  67.153  1.00  0.00    -0.255 C  
HETATM    6  O   UNL     1     -12.319  11.824  67.857  1.00  0.00    -0.399 OA 
HETATM    7  C   UNL     1     -10.158  10.635  67.649  1.00  0.00    -0.177 C  
HETATM    8  C   UNL     1     -10.227   9.254  66.960  1.00  0.00    -0.331 C  
HETATM    9  C   UNL     1      -8.933  11.468  67.247  1.00  0.00    -0.162 C  
HETATM   10  O   UNL     1     -10.243  10.601  69.092  1.00  0.00    -0.204 OA 
BRANCH  10  11
HETATM   11  C   UNL     1      -9.681   9.588  69.810  1.00  0.00    -0.214 A  
HETATM   12  C   UNL     1      -8.349   9.521  70.204  1.00  0.00    -0.212 A  
HETATM   13  C   UNL     1      -7.832   8.350  70.753  1.00  0.00    -0.089 A  
HETATM   14  C   UNL     1      -8.667   7.253  70.974  1.00  0.00    -0.140 A  
HETATM   15  C   UNL     1     -10.042   7.382  70.759  1.00  0.00    -0.190 A  
HETATM   16  C   UNL     1     -10.541   8.546  70.163  1.00  0.00    -0.238 A  
BRANCH  14  17
HETATM   17  C   UNL     1      -8.036   5.986  71.416  1.00  0.00    -0.115 C  
HETATM   18  O   UNL     1      -7.643   5.896  72.578  1.00  0.00    -0.098 OA 
BRANCH  17  19
HETATM   19  C   UNL     1      -7.793   4.849  70.485  1.00  0.00    -0.066 A  
HETATM   20  C   UNL     1      -7.740   5.127  69.112  1.00  0.00    -0.080 A  
HETATM   21  C   UNL     1      -7.575   4.094  68.187  1.00  0.00    -0.067 A  
HETATM   22  C   UNL     1      -7.466   2.778  68.630  1.00  0.00    -0.048 A  
HETATM   23  C   UNL     1      -7.521   2.488  69.992  1.00  0.00    -0.043 A  
HETATM   24 CL   UNL     1      -7.289   1.502  67.491  1.00  0.00    -0.052 Cl 
HETATM   25  C   UNL     1      -7.698   3.520  70.920  1.00  0.00    -0.047 A  
ENDBRANCH  17  19
ENDBRANCH  14  17
ENDBRANCH  10  11
ENDBRANCH   4   5
ENDBRANCH   2   4
TORSDOF 5
ENDMDL
MODEL      113
REMARK 921   NORMALIZED FREE ENERGY PREDICTED BY IDOCK:   -3.51 KCAL/MOL
REMARK 922        TOTAL FREE ENERGY PREDICTED BY IDOCK:   -5.58 KCAL/MOL
REMARK 923 INTER-LIGAND FREE ENERGY PREDICTED BY IDOCK:   -5.93 KCAL/MOL
REMARK 924 INTRA-LIGAND FREE ENERGY PREDICTED BY IDOCK:    0.35 KCAL/MOL
REMARK 927      BINDING AFFINITY PREDICTED BY RF-SCORE:    0.00 PKD
ROOT
HETATM    1  C   UNL     1      -7.088  20.594  66.657  1.00  0.00    -0.299 C  
HETATM    2  C   UNL     1      -8.380  20.354  67.424  1.00  0.00    -0.318 C  
HETATM    3  C   UNL     1      -9.501  19.951  66.473  1.00  0.00    -0.516 C  
ENDROOT
BRANCH   2   4
HETATM    4  O   UNL     1      -8.184  19.261  68.341  1.00  0.00    -0.322 OA 
BRANCH   4   5
HETATM    5  C   UNL     1      -9.061  18.210  68.255  1.00  0.00    -0.300 C  
HETATM    6  O   UNL     1     -10.278  18.326  68.307  1.00  0.00    -0.359 OA 
HETATM    7  C   UNL     1      -8.281  16.882  68.073  1.00  0.00    -0.203 C  
HETATM    8  C   UNL     1      -7.500  17.043  66.750  1.00  0.00    -0.266 C  
HETATM    9  C   UNL     1      -7.384  16.717  69.306  1.00  0.00    -0.164 C  
HETATM   10  O   UNL     1      -9.268  15.825  68.073  1.00  0.00    -0.187 OA 
BRANCH  10  11
HETATM   11  C   UNL     1      -9.054  14.657  67.403  1.00  0.00    -0.197 A  
HETATM   12  C   UNL     1      -9.690  14.273  66.228  1.00  0.00    -0.321 A  
HETATM   13  C   UNL     1      -9.550  12.976  65.740  1.00  0.00    -0.073 A  
HETATM   14  C   UNL     1      -8.714  12.068  66.394  1.00  0.00    -0.088 A  
HETATM   15  C   UNL     1      -7.927  12.507  67.462  1.00  0.00    -0.175 A  
HETATM   16  C   UNL     1      -8.111  13.798  67.972  1.00  0.00    -0.163 A  
BRANCH  14  17
HETATM   17  C   UNL     1      -8.721  10.663  65.922  1.00  0.00    -0.177 C  
HETATM   18  O   UNL     1      -8.392  10.428  64.761  1.00  0.00    -0.166 OA 
BRANCH  17  19
HETATM   19  C   UNL     1      -9.187   9.537  66.778  1.00  0.00    -0.184 A  
HETATM   20  C   UNL     1     -10.093   8.623  66.224  1.00  0.00    -0.215 A  
HETATM   21  C   UNL     1     -10.611   7.582  66.997  1.00  0.00    -0.409 A  
HETATM   22  C   UNL     1     -10.228   7.453  68.330  1.00  0.00    -0.183 A  
HETATM   23  C   UNL     1      -9.332   8.357  68.895  1.00  0.00    -0.147 A  
HETATM   24 CL   UNL     1     -10.885   6.187  69.291  1.00  0.00    -0.378 Cl 
HETATM   25  C   UNL     1      -8.821   9.407  68.126  1.00  0.00    -0.124 A  
ENDBRANCH  17  19
ENDBRANCH  14  17
ENDBRANCH  10  11
ENDBRANCH   4   5
ENDBRANCH   2   4
TORSDOF 5
ENDMDL
MODEL      114
REMARK 921   NORMALIZED FREE ENERGY PREDICTED BY IDOCK:   -3.47 KCAL/MOL
REMARK 922        TOTAL FREE ENERGY PREDICTED BY IDOCK:   -5.54 KCAL/MOL
REMARK 923 INTER-LIGAND FREE ENERGY PREDICTED BY IDOCK:   -4.73 KCAL/MOL
REMARK 924 INTRA-LIGAND FREE ENERGY PREDICTED BY IDOCK:   -0.81 KCAL/MOL
REMARK 927      BINDING AFFINITY PREDICTED BY RF-SCORE:    0.00 PKD
ROOT
HETATM    1  C   UNL     1      -9.027   3.095  65.686  1.00  0.00    -0.145 C  
HETATM    2  C   UNL     1      -9.326   3.391  67.148  1.00  0.00    -0.193 C  
HETATM    3  C   UNL     1      -8.474   2.514  68.057  1.00  0.00    -0.097 C  
ENDROOT
BRANCH   2   4
HETATM    4  O   UNL     1      -8.980   4.761  67.429  1.00  0.00    -0.107 OA 
BRANCH   4   5
HETATM    5  C   UNL     1      -9.969   5.697  67.278  1.00  0.00    -0.159 C  
HETATM    6  O   UNL     1     -11.160   5.473  67.455  1.00  0.00     0.004 OA 
HETATM    7  C   UNL     1      -9.353   7.061  66.868  1.00  0.00    -0.153 C  
HETATM    8  C   UNL     1      -8.413   7.452  68.030  1.00  0.00    -0.123 C  
HETATM    9  C   UNL     1      -8.630   6.840  65.533  1.00  0.00    -0.095 C  
HETATM   10  O   UNL     1     -10.462   7.962  66.651  1.00  0.00    -0.296 OA 
BRANCH  10  11
HETATM   11  C   UNL     1     -10.327   9.306  66.834  1.00  0.00    -0.246 A  
HETATM   12  C   UNL     1     -10.964  10.055  67.818  1.00  0.00    -0.310 A  
HETATM   13  C   UNL     1     -10.917  11.447  67.788  1.00  0.00    -0.301 A  
HETATM   14  C   UNL     1     -10.171  12.101  66.805  1.00  0.00    -0.224 A  
HETATM   15  C   UNL     1      -9.376  11.352  65.934  1.00  0.00    -0.247 A  
HETATM   16  C   UNL     1      -9.469   9.955  65.943  1.00  0.00    -0.272 A  
BRANCH  14  17
HETATM   17  C   UNL     1     -10.280  13.578  66.728  1.00  0.00    -0.264 C  
HETATM   18  O   UNL     1     -10.073  14.130  65.649  1.00  0.00    -0.312 OA 
BRANCH  17  19
HETATM   19  C   UNL     1     -10.555  14.420  67.925  1.00  0.00    -0.240 A  
HETATM   20  C   UNL     1      -9.495  14.670  68.808  1.00  0.00    -0.199 A  
HETATM   21  C   UNL     1      -9.705  15.402  69.978  1.00  0.00    -0.049 A  
HETATM   22  C   UNL     1     -10.979  15.884  70.274  1.00  0.00    -0.362 A  
HETATM   23  C   UNL     1     -12.042  15.640  69.407  1.00  0.00    -0.287 A  
HETATM   24 CL   UNL     1     -11.246  16.763  71.727  1.00  0.00     0.256 Cl 
HETATM   25  C   UNL     1     -11.835  14.896  68.240  1.00  0.00    -0.308 A  
ENDBRANCH  17  19
ENDBRANCH  14  17
ENDBRANCH  10  11
ENDBRANCH   4   5
ENDBRANCH   2   4
TORSDOF 5
ENDMDL
MODEL      115
REMARK 921   NORMALIZED FREE ENERGY PREDICTED BY IDOCK:   -3.44 KCAL/MOL
REMARK 922        TOTAL FREE ENERGY PREDICTED BY IDOCK:   -5.50 KCAL/MOL
REMARK 923 INTER-LIGAND FREE ENERGY PREDICTED BY IDOCK:   -5.96 KCAL/MOL
REMARK 924 INTRA-LIGAND FREE ENERGY PREDICTED BY IDOCK:    0.46 KCAL/MOL
REMARK 927      BINDING AFFINITY PREDICTED BY RF-SCORE:    0.00 PKD
ROOT
HETATM    1  C   UNL     1      -9.551  18.184  67.262  1.00  0.00    -0.281 C  
HETATM    2  C   UNL     1      -9.825  16.985  66.365  1.00  0.00    -0.299 C  
HETATM    3  C   UNL     1      -8.524  16.279  66.003  1.00  0.00    -0.185 C  
ENDROOT
BRANCH   2   4
HETATM    4  O   UNL     1     -10.639  16.039  67.084  1.00  0.00    -0.306 OA 
BRANCH   4   5
HETATM    5  C   UNL     1      -9.985  15.057  67.782  1.00  0.00    -0.229 C  
HETATM    6  O   UNL     1      -9.020  15.258  68.508  1.00  0.00    -0.173 OA 
HETATM    7  C   UNL     1     -10.656  13.683  67.522  1.00  0.00    -0.241 C  
HETATM    8  C   UNL     1     -12.106  13.832  68.031  1.00  0.00    -0.315 C  
HETATM    9  C   UNL     1     -10.552  13.413  66.015  1.00  0.00    -0.290 C  
HETATM   10  O   UNL     1      -9.861  12.700  68.224  1.00  0.00    -0.223 OA 
BRANCH  10  11
HETATM   11  C   UNL     1     -10.414  11.543  68.687  1.00  0.00    -0.202 A  
HETATM   12  C   UNL     1     -11.197  11.424  69.830  1.00  0.00    -0.221 A  
HETATM   13  C   UNL     1     -11.538  10.167  70.325  1.00  0.00    -0.379 A  
HETATM   14  C   UNL     1     -11.153   9.015  69.636  1.00  0.00    -0.080 A  
HETATM   15  C   UNL     1     -10.534   9.136  68.389  1.00  0.00    -0.241 A  
HETATM   16  C   UNL     1     -10.153  10.402  67.926  1.00  0.00    -0.200 A  
BRANCH  14  17
HETATM   17  C   UNL     1     -11.410   7.707  70.285  1.00  0.00    -0.181 C  
HETATM   18  O   UNL     1     -12.134   7.673  71.278  1.00  0.00    -0.302 OA 
BRANCH  17  19
HETATM   19  C   UNL     1     -10.764   6.448  69.823  1.00  0.00    -0.341 A  
HETATM   20  C   UNL     1     -10.905   6.095  68.474  1.00  0.00    -0.389 A  
HETATM   21  C   UNL     1     -10.373   4.896  67.995  1.00  0.00    -0.044 A  
HETATM   22  C   UNL     1      -9.700   4.041  68.866  1.00  0.00    -0.081 A  
HETATM   23  C   UNL     1      -9.555   4.378  70.210  1.00  0.00    -0.263 A  
HETATM   24 CL   UNL     1      -9.066   2.552  68.285  1.00  0.00    -0.205 Cl 
HETATM   25  C   UNL     1     -10.098   5.573  70.693  1.00  0.00    -0.288 A  
ENDBRANCH  17  19
ENDBRANCH  14  17
ENDBRANCH  10  11
ENDBRANCH   4   5
ENDBRANCH   2   4
TORSDOF 5
ENDMDL
MODEL      116
REMARK 921   NORMALIZED FREE ENERGY PREDICTED BY IDOCK:   -3.41 KCAL/MOL
REMARK 922        TOTAL FREE ENERGY PREDICTED BY IDOCK:   -5.46 KCAL/MOL
REMARK 923 INTER-LIGAND FREE ENERGY PREDICTED BY IDOCK:   -5.35 KCAL/MOL
REMARK 924 INTRA-LIGAND FREE ENERGY PREDICTED BY IDOCK:   -0.11 KCAL/MOL
REMARK 927      BINDING AFFINITY PREDICTED BY RF-SCORE:    0.00 PKD
ROOT
HETATM    1  C   UNL     1      -8.540   3.246  71.043  1.00  0.00    -0.112 C  
HETATM    2  C   UNL     1      -9.904   2.932  71.638  1.00  0.00    -0.139 C  
HETATM    3  C   UNL     1      -9.764   2.457  73.079  1.00  0.00    -0.159 C  
ENDROOT
BRANCH   2   4
HETATM    4  O   UNL     1     -10.694   4.136  71.660  1.00  0.00     0.143 OA 
BRANCH   4   5
HETATM    5  C   UNL     1     -10.032   5.312  71.906  1.00  0.00    -0.187 C  
HETATM    6  O   UNL     1      -9.149   5.440  72.743  1.00  0.00    -0.131 OA 
HETATM    7  C   UNL     1     -10.560   6.425  70.964  1.00  0.00    -0.234 C  
HETATM    8  C   UNL     1     -10.263   5.927  69.533  1.00  0.00    -0.288 C  
HETATM    9  C   UNL     1     -12.055   6.593  71.264  1.00  0.00    -0.395 C  
HETATM   10  O   UNL     1      -9.872   7.640  71.342  1.00  0.00    -0.173 OA 
BRANCH  10  11
HETATM   11  C   UNL     1      -9.647   8.635  70.438  1.00  0.00    -0.173 A  
HETATM   12  C   UNL     1      -8.453   8.853  69.759  1.00  0.00    -0.131 A  
HETATM   13  C   UNL     1      -8.265  10.016  69.016  1.00  0.00    -0.124 A  
HETATM   14  C   UNL     1      -9.301  10.943  68.892  1.00  0.00    -0.169 A  
HETATM   15  C   UNL     1     -10.562  10.637  69.412  1.00  0.00    -0.270 A  
HETATM   16  C   UNL     1     -10.725   9.489  70.196  1.00  0.00    -0.299 A  
BRANCH  14  17
HETATM   17  C   UNL     1      -8.997  12.230  68.220  1.00  0.00    -0.182 C  
HETATM   18  O   UNL     1      -7.969  12.829  68.528  1.00  0.00    -0.144 OA 
BRANCH  17  19
HETATM   19  C   UNL     1      -9.930  12.858  67.244  1.00  0.00    -0.224 A  
HETATM   20  C   UNL     1      -9.913  12.386  65.924  1.00  0.00    -0.271 A  
HETATM   21  C   UNL     1     -10.721  12.976  64.950  1.00  0.00    -0.349 A  
HETATM   22  C   UNL     1     -11.546  14.046  65.291  1.00  0.00    -0.337 A  
HETATM   23  C   UNL     1     -11.569  14.529  66.597  1.00  0.00    -0.385 A  
HETATM   24 CL   UNL     1     -12.522  14.792  64.087  1.00  0.00    -0.345 Cl 
HETATM   25  C   UNL     1     -10.752  13.946  67.572  1.00  0.00    -0.271 A  
ENDBRANCH  17  19
ENDBRANCH  14  17
ENDBRANCH  10  11
ENDBRANCH   4   5
ENDBRANCH   2   4
TORSDOF 5
ENDMDL
MODEL      117
REMARK 921   NORMALIZED FREE ENERGY PREDICTED BY IDOCK:   -3.38 KCAL/MOL
REMARK 922        TOTAL FREE ENERGY PREDICTED BY IDOCK:   -5.42 KCAL/MOL
REMARK 923 INTER-LIGAND FREE ENERGY PREDICTED BY IDOCK:   -4.76 KCAL/MOL
REMARK 924 INTRA-LIGAND FREE ENERGY PREDICTED BY IDOCK:   -0.66 KCAL/MOL
REMARK 927      BINDING AFFINITY PREDICTED BY RF-SCORE:    0.00 PKD
ROOT
HETATM    1  C   UNL     1     -11.820  15.530  64.328  1.00  0.00    -0.179 C  
HETATM    2  C   UNL     1     -12.081  14.150  64.913  1.00  0.00    -0.428 C  
HETATM    3  C   UNL     1     -12.132  13.101  63.810  1.00  0.00    -0.563 C  
ENDROOT
BRANCH   2   4
HETATM    4  O   UNL     1     -10.991  13.798  65.787  1.00  0.00    -0.279 OA 
BRANCH   4   5
HETATM    5  C   UNL     1     -11.310  13.148  66.951  1.00  0.00    -0.318 C  
HETATM    6  O   UNL     1     -12.359  13.308  67.562  1.00  0.00    -0.225 OA 
HETATM    7  C   UNL     1     -10.161  12.187  67.356  1.00  0.00    -0.199 C  
HETATM    8  C   UNL     1     -10.039  11.180  66.191  1.00  0.00    -0.284 C  
HETATM    9  C   UNL     1      -8.909  13.050  67.563  1.00  0.00    -0.195 C  
HETATM   10  O   UNL     1     -10.540  11.608  68.625  1.00  0.00    -0.197 OA 
BRANCH  10  11
HETATM   11  C   UNL     1     -10.103  10.372  68.997  1.00  0.00    -0.213 A  
HETATM   12  C   UNL     1      -8.787   9.927  68.928  1.00  0.00    -0.145 A  
HETATM   13  C   UNL     1      -8.483   8.584  69.137  1.00  0.00    -0.125 A  
HETATM   14  C   UNL     1      -9.492   7.683  69.485  1.00  0.00    -0.152 A  
HETATM   15  C   UNL     1     -10.780   8.162  69.743  1.00  0.00    -0.229 A  
HETATM   16  C   UNL     1     -11.083   9.504  69.483  1.00  0.00    -0.168 A  
BRANCH  14  17
HETATM   17  C   UNL     1      -9.140   6.244  69.546  1.00  0.00    -0.137 C  
HETATM   18  O   UNL     1      -9.472   5.515  68.613  1.00  0.00    -0.121 OA 
BRANCH  17  19
HETATM   19  C   UNL     1      -8.468   5.638  70.728  1.00  0.00    -0.124 A  
HETATM   20  C   UNL     1      -7.465   6.381  71.365  1.00  0.00    -0.089 A  
HETATM   21  C   UNL     1      -6.758   5.840  72.441  1.00  0.00    -0.072 A  
HETATM   22  C   UNL     1      -7.048   4.551  72.882  1.00  0.00    -0.076 A  
HETATM   23  C   UNL     1      -8.040   3.800  72.256  1.00  0.00    -0.077 A  
HETATM   24 CL   UNL     1      -6.161   3.874  74.190  1.00  0.00    -0.027 Cl 
HETATM   25  C   UNL     1      -8.741   4.335  71.170  1.00  0.00    -0.134 A  
ENDBRANCH  17  19
ENDBRANCH  14  17
ENDBRANCH  10  11
ENDBRANCH   4   5
ENDBRANCH   2   4
TORSDOF 5
ENDMDL
MODEL      118
REMARK 921   NORMALIZED FREE ENERGY PREDICTED BY IDOCK:   -3.32 KCAL/MOL
REMARK 922        TOTAL FREE ENERGY PREDICTED BY IDOCK:   -5.35 KCAL/MOL
REMARK 923 INTER-LIGAND FREE ENERGY PREDICTED BY IDOCK:   -4.94 KCAL/MOL
REMARK 924 INTRA-LIGAND FREE ENERGY PREDICTED BY IDOCK:   -0.41 KCAL/MOL
REMARK 927      BINDING AFFINITY PREDICTED BY RF-SCORE:    0.00 PKD
ROOT
HETATM    1  C   UNL     1      -5.169   3.873  74.397  1.00  0.00    -0.004 C  
HETATM    2  C   UNL     1      -6.225   3.998  73.309  1.00  0.00    -0.020 C  
HETATM    3  C   UNL     1      -6.908   2.658  73.067  1.00  0.00    -0.027 C  
ENDROOT
BRANCH   2   4
HETATM    4  O   UNL     1      -7.240   4.922  73.746  1.00  0.00    -0.079 OA 
BRANCH   4   5
HETATM    5  C   UNL     1      -7.166   6.204  73.266  1.00  0.00    -0.088 C  
HETATM    6  O   UNL     1      -6.116   6.782  73.012  1.00  0.00    -0.056 OA 
HETATM    7  C   UNL     1      -8.591   6.789  73.088  1.00  0.00    -0.119 C  
HETATM    8  C   UNL     1      -9.286   5.869  72.061  1.00  0.00    -0.160 C  
HETATM    9  C   UNL     1      -9.252   6.785  74.472  1.00  0.00    -0.238 C  
HETATM   10  O   UNL     1      -8.420   8.160  72.660  1.00  0.00    -0.157 OA 
BRANCH  10  11
HETATM   11  C   UNL     1      -9.359   8.783  71.893  1.00  0.00    -0.273 A  
HETATM   12  C   UNL     1      -9.160   9.260  70.602  1.00  0.00    -0.309 A  
HETATM   13  C   UNL     1     -10.120  10.062  69.989  1.00  0.00    -0.289 A  
HETATM   14  C   UNL     1     -11.323  10.338  70.643  1.00  0.00    -0.431 A  
HETATM   15  C   UNL     1     -11.605   9.705  71.856  1.00  0.00    -0.167 A  
HETATM   16  C   UNL     1     -10.615   8.941  72.484  1.00  0.00     0.093 A  
BRANCH  14  17
HETATM   17  C   UNL     1     -12.240  11.317  70.012  1.00  0.00    -0.314 C  
HETATM   18  O   UNL     1     -12.679  11.076  68.889  1.00  0.00    -0.216 OA 
BRANCH  17  19
HETATM   19  C   UNL     1     -12.587  12.614  70.656  1.00  0.00    -0.241 A  
HETATM   20  C   UNL     1     -13.009  12.590  71.992  1.00  0.00    -0.379 A  
HETATM   21  C   UNL     1     -13.405  13.768  72.631  1.00  0.00    -0.618 A  
HETATM   22  C   UNL     1     -13.385  14.974  71.934  1.00  0.00    -0.381 A  
HETATM   23  C   UNL     1     -12.972  15.011  70.604  1.00  0.00    -0.394 A  
HETATM   24 CL   UNL     1     -13.897  16.420  72.710  1.00  0.00     0.134 Cl 
HETATM   25  C   UNL     1     -12.586  13.831  69.959  1.00  0.00    -0.207 A  
ENDBRANCH  17  19
ENDBRANCH  14  17
ENDBRANCH  10  11
ENDBRANCH   4   5
ENDBRANCH   2   4
TORSDOF 5
ENDMDL
MODEL      119
REMARK 921   NORMALIZED FREE ENERGY PREDICTED BY IDOCK:   -3.19 KCAL/MOL
REMARK 922        TOTAL FREE ENERGY PREDICTED BY IDOCK:   -5.18 KCAL/MOL
REMARK 923 INTER-LIGAND FREE ENERGY PREDICTED BY IDOCK:   -4.63 KCAL/MOL
REMARK 924 INTRA-LIGAND FREE ENERGY PREDICTED BY IDOCK:   -0.55 KCAL/MOL
REMARK 927      BINDING AFFINITY PREDICTED BY RF-SCORE:    0.00 PKD
ROOT
HETATM    1  C   UNL     1     -10.888   5.320  73.463  1.00  0.00    -0.358 C  
HETATM    2  C   UNL     1      -9.646   4.694  72.846  1.00  0.00    -0.131 C  
HETATM    3  C   UNL     1      -9.963   3.313  72.287  1.00  0.00    -0.235 C  
ENDROOT
BRANCH   2   4
HETATM    4  O   UNL     1      -9.208   5.511  71.744  1.00  0.00    -0.141 OA 
BRANCH   4   5
HETATM    5  C   UNL     1      -8.809   6.790  72.035  1.00  0.00    -0.134 C  
HETATM    6  O   UNL     1      -8.358   7.139  73.118  1.00  0.00    -0.109 OA 
HETATM    7  C   UNL     1      -9.005   7.703  70.796  1.00  0.00    -0.149 C  
HETATM    8  C   UNL     1      -8.108   7.097  69.695  1.00  0.00    -0.129 C  
HETATM    9  C   UNL     1     -10.501   7.684  70.459  1.00  0.00    -0.221 C  
HETATM   10  O   UNL     1      -8.641   9.040  71.212  1.00  0.00    -0.212 OA 
BRANCH  10  11
HETATM   11  C   UNL     1      -8.156   9.949  70.320  1.00  0.00    -0.085 A  
HETATM   12  C   UNL     1      -6.852  10.433  70.289  1.00  0.00    -0.132 A  
HETATM   13  C   UNL     1      -6.518  11.510  69.470  1.00  0.00    -0.124 A  
HETATM   14  C   UNL     1      -7.475  12.069  68.623  1.00  0.00    -0.113 A  
HETATM   15  C   UNL     1      -8.730  11.464  68.511  1.00  0.00    -0.149 A  
HETATM   16  C   UNL     1      -9.070  10.414  69.372  1.00  0.00    -0.170 A  
BRANCH  14  17
HETATM   17  C   UNL     1      -7.108  13.304  67.889  1.00  0.00    -0.133 C  
HETATM   18  O   UNL     1      -6.033  13.340  67.293  1.00  0.00    -0.341 OA 
BRANCH  17  19
HETATM   19  C   UNL     1      -7.957  14.528  67.913  1.00  0.00    -0.152 A  
HETATM   20  C   UNL     1      -8.717  14.776  69.064  1.00  0.00    -0.139 A  
HETATM   21  C   UNL     1      -9.578  15.874  69.122  1.00  0.00    -0.253 A  
HETATM   22  C   UNL     1      -9.686  16.726  68.026  1.00  0.00    -0.243 A  
HETATM   23  C   UNL     1      -8.940  16.489  66.873  1.00  0.00    -0.242 A  
HETATM   24 CL   UNL     1     -10.765  18.064  68.084  1.00  0.00    -0.327 Cl 
HETATM   25  C   UNL     1      -8.086  15.383  66.810  1.00  0.00    -0.212 A  
ENDBRANCH  17  19
ENDBRANCH  14  17
ENDBRANCH  10  11
ENDBRANCH   4   5
ENDBRANCH   2   4
TORSDOF 5
ENDMDL
MODEL      120
REMARK 921   NORMALIZED FREE ENERGY PREDICTED BY IDOCK:   -3.17 KCAL/MOL
REMARK 922        TOTAL FREE ENERGY PREDICTED BY IDOCK:   -5.15 KCAL/MOL
REMARK 923 INTER-LIGAND FREE ENERGY PREDICTED BY IDOCK:   -5.59 KCAL/MOL
REMARK 924 INTRA-LIGAND FREE ENERGY PREDICTED BY IDOCK:    0.45 KCAL/MOL
REMARK 927      BINDING AFFINITY PREDICTED BY RF-SCORE:    0.00 PKD
ROOT
HETATM    1  C   UNL     1      -9.909  15.496  65.701  1.00  0.00    -0.377 C  
HETATM    2  C   UNL     1     -10.892  14.355  65.485  1.00  0.00    -0.331 C  
HETATM    3  C   UNL     1     -11.785  14.637  64.282  1.00  0.00    -0.291 C  
ENDROOT
BRANCH   2   4
HETATM    4  O   UNL     1     -10.156  13.151  65.197  1.00  0.00    -0.281 OA 
BRANCH   4   5
HETATM    5  C   UNL     1     -10.729  11.964  65.575  1.00  0.00    -0.283 C  
HETATM    6  O   UNL     1     -11.218  11.158  64.793  1.00  0.00    -0.146 OA 
HETATM    7  C   UNL     1     -10.647  11.801  67.115  1.00  0.00    -0.231 C  
HETATM    8  C   UNL     1      -9.140  11.803  67.449  1.00  0.00    -0.175 C  
HETATM    9  C   UNL     1     -11.420  12.976  67.730  1.00  0.00    -0.359 C  
HETATM   10  O   UNL     1     -11.341  10.573  67.433  1.00  0.00    -0.381 OA 
BRANCH  10  11
HETATM   11  C   UNL     1     -11.010   9.839  68.533  1.00  0.00    -0.149 A  
HETATM   12  C   UNL     1     -10.311   8.636  68.520  1.00  0.00    -0.228 A  
HETATM   13  C   UNL     1     -10.206   7.868  69.678  1.00  0.00    -0.207 A  
HETATM   14  C   UNL     1     -10.745   8.333  70.879  1.00  0.00    -0.250 A  
HETATM   15  C   UNL     1     -11.277   9.624  70.937  1.00  0.00    -0.422 A  
HETATM   16  C   UNL     1     -11.420  10.367  69.759  1.00  0.00    -0.348 A  
BRANCH  14  17
HETATM   17  C   UNL     1     -10.738   7.410  72.039  1.00  0.00    -0.219 C  
HETATM   18  O   UNL     1     -11.801   7.171  72.610  1.00  0.00    -0.191 OA 
BRANCH  17  19
HETATM   19  C   UNL     1      -9.482   6.825  72.585  1.00  0.00    -0.152 A  
HETATM   20  C   UNL     1      -9.550   6.163  73.818  1.00  0.00    -0.167 A  
HETATM   21  C   UNL     1      -8.395   5.646  74.409  1.00  0.00    -0.105 A  
HETATM   22  C   UNL     1      -7.166   5.794  73.770  1.00  0.00    -0.086 A  
HETATM   23  C   UNL     1      -7.083   6.453  72.546  1.00  0.00    -0.078 A  
HETATM   24 CL   UNL     1      -5.738   5.182  74.508  1.00  0.00    -0.034 Cl 
HETATM   25  C   UNL     1      -8.238   6.982  71.958  1.00  0.00    -0.101 A  
ENDBRANCH  17  19
ENDBRANCH  14  17
ENDBRANCH  10  11
ENDBRANCH   4   5
ENDBRANCH   2   4
TORSDOF 5
ENDMDL
MODEL      121
REMARK 921   NORMALIZED FREE ENERGY PREDICTED BY IDOCK:   -3.15 KCAL/MOL
REMARK 922        TOTAL FREE ENERGY PREDICTED BY IDOCK:   -5.13 KCAL/MOL
REMARK 923 INTER-LIGAND FREE ENERGY PREDICTED BY IDOCK:   -4.51 KCAL/MOL
REMARK 924 INTRA-LIGAND FREE ENERGY PREDICTED BY IDOCK:   -0.62 KCAL/MOL
REMARK 927      BINDING AFFINITY PREDICTED BY RF-SCORE:    0.00 PKD
ROOT
HETATM    1  C   UNL     1     -12.272  16.159  72.832  1.00  0.00    -0.640 C  
HETATM    2  C   UNL     1     -12.574  15.023  71.866  1.00  0.00    -0.333 C  
HETATM    3  C   UNL     1     -13.916  14.381  72.196  1.00  0.00    -0.607 C  
ENDROOT
BRANCH   2   4
HETATM    4  O   UNL     1     -12.673  15.557  70.532  1.00  0.00    -0.434 OA 
BRANCH   4   5
HETATM    5  C   UNL     1     -11.500  15.742  69.846  1.00  0.00    -0.346 C  
HETATM    6  O   UNL     1     -10.708  16.648  70.072  1.00  0.00    -0.292 OA 
HETATM    7  C   UNL     1     -11.334  14.638  68.769  1.00  0.00    -0.281 C  
HETATM    8  C   UNL     1     -11.297  13.306  69.550  1.00  0.00    -0.236 C  
HETATM    9  C   UNL     1     -12.527  14.763  67.813  1.00  0.00     0.417 C  
HETATM   10  O   UNL     1     -10.123  14.953  68.044  1.00  0.00    -0.218 OA 
BRANCH  10  11
HETATM   11  C   UNL     1      -9.379  13.976  67.452  1.00  0.00    -0.220 A  
HETATM   12  C   UNL     1      -9.760  13.236  66.338  1.00  0.00    -0.279 A  
HETATM   13  C   UNL     1      -9.019  12.126  65.940  1.00  0.00     0.081 A  
HETATM   14  C   UNL     1      -7.846  11.787  66.619  1.00  0.00    -0.043 A  
HETATM   15  C   UNL     1      -7.359  12.638  67.614  1.00  0.00    -0.139 A  
HETATM   16  C   UNL     1      -8.136  13.723  68.037  1.00  0.00    -0.163 A  
BRANCH  14  17
HETATM   17  C   UNL     1      -7.182  10.513  66.251  1.00  0.00    -0.133 C  
HETATM   18  O   UNL     1      -6.806  10.357  65.091  1.00  0.00    -0.133 OA 
BRANCH  17  19
HETATM   19  C   UNL     1      -7.023   9.390  67.216  1.00  0.00    -0.085 A  
HETATM   20  C   UNL     1      -8.044   8.431  67.279  1.00  0.00    -0.105 A  
HETATM   21  C   UNL     1      -7.981   7.389  68.206  1.00  0.00    -0.124 A  
HETATM   22  C   UNL     1      -6.897   7.303  69.077  1.00  0.00    -0.064 A  
HETATM   23  C   UNL     1      -5.878   8.251  69.029  1.00  0.00    -0.039 A  
HETATM   24 CL   UNL     1      -6.830   6.035  70.237  1.00  0.00    -0.052 Cl 
HETATM   25  C   UNL     1      -5.946   9.303  68.109  1.00  0.00    -0.041 A  
ENDBRANCH  17  19
ENDBRANCH  14  17
ENDBRANCH  10  11
ENDBRANCH   4   5
ENDBRANCH   2   4
TORSDOF 5
ENDMDL
MODEL      122
REMARK 921   NORMALIZED FREE ENERGY PREDICTED BY IDOCK:   -3.11 KCAL/MOL
REMARK 922        TOTAL FREE ENERGY PREDICTED BY IDOCK:   -5.08 KCAL/MOL
REMARK 923 INTER-LIGAND FREE ENERGY PREDICTED BY IDOCK:   -4.09 KCAL/MOL
REMARK 924 INTRA-LIGAND FREE ENERGY PREDICTED BY IDOCK:   -0.99 KCAL/MOL
REMARK 927      BINDING AFFINITY PREDICTED BY RF-SCORE:    0.00 PKD
ROOT
HETATM    1  C   UNL     1      -9.655   5.684  69.836  1.00  0.00    -0.208 C  
HETATM    2  C   UNL     1      -9.756   7.120  70.329  1.00  0.00    -0.175 C  
HETATM    3  C   UNL     1      -8.392   7.631  70.774  1.00  0.00    -0.117 C  
ENDROOT
BRANCH   2   4
HETATM    4  O   UNL     1     -10.192   7.959  69.241  1.00  0.00    -0.205 OA 
BRANCH   4   5
HETATM    5  C   UNL     1     -11.162   8.887  69.520  1.00  0.00     0.103 C  
HETATM    6  O   UNL     1     -12.012   8.752  70.391  1.00  0.00    -0.060 OA 
HETATM    7  C   UNL     1     -11.005  10.116  68.587  1.00  0.00    -0.230 C  
HETATM    8  C   UNL     1      -9.604  10.689  68.895  1.00  0.00    -0.204 C  
HETATM    9  C   UNL     1     -11.164   9.608  67.148  1.00  0.00     0.365 C  
HETATM   10  O   UNL     1     -12.106  11.003  68.889  1.00  0.00    -0.479 OA 
BRANCH  10  11
HETATM   11  C   UNL     1     -12.000  12.350  68.709  1.00  0.00    -0.229 A  
HETATM   12  C   UNL     1     -11.870  12.992  67.482  1.00  0.00    -0.408 A  
HETATM   13  C   UNL     1     -11.562  14.349  67.424  1.00  0.00    -0.398 A  
HETATM   14  C   UNL     1     -11.447  15.092  68.601  1.00  0.00    -0.341 A  
HETATM   15  C   UNL     1     -11.765  14.495  69.823  1.00  0.00    -0.356 A  
HETATM   16  C   UNL     1     -12.027  13.120  69.874  1.00  0.00    -0.387 A  
BRANCH  14  17
HETATM   17  C   UNL     1     -10.969  16.491  68.487  1.00  0.00    -0.350 C  
HETATM   18  O   UNL     1     -11.747  17.350  68.076  1.00  0.00     0.549 OA 
BRANCH  17  19
HETATM   19  C   UNL     1      -9.561  16.879  68.779  1.00  0.00    -0.268 A  
HETATM   20  C   UNL     1      -8.749  15.947  69.441  1.00  0.00    -0.198 A  
HETATM   21  C   UNL     1      -7.439  16.276  69.796  1.00  0.00     0.287 A  
HETATM   22  C   UNL     1      -6.936  17.539  69.494  1.00  0.00     0.000 A  
HETATM   23  C   UNL     1      -7.734  18.476  68.840  1.00  0.00    -0.253 A  
HETATM   24 CL   UNL     1      -5.332  17.955  69.953  1.00  0.00    -0.208 Cl 
HETATM   25  C   UNL     1      -9.050  18.153  68.495  1.00  0.00    -0.318 A  
ENDBRANCH  17  19
ENDBRANCH  14  17
ENDBRANCH  10  11
ENDBRANCH   4   5
ENDBRANCH   2   4
TORSDOF 5
ENDMDL
MODEL      123
REMARK 921   NORMALIZED FREE ENERGY PREDICTED BY IDOCK:   -3.01 KCAL/MOL
REMARK 922        TOTAL FREE ENERGY PREDICTED BY IDOCK:   -4.95 KCAL/MOL
REMARK 923 INTER-LIGAND FREE ENERGY PREDICTED BY IDOCK:   -4.90 KCAL/MOL
REMARK 924 INTRA-LIGAND FREE ENERGY PREDICTED BY IDOCK:   -0.05 KCAL/MOL
REMARK 927      BINDING AFFINITY PREDICTED BY RF-SCORE:    0.00 PKD
ROOT
HETATM    1  C   UNL     1     -11.237  16.258  70.045  1.00  0.00    -0.324 C  
HETATM    2  C   UNL     1     -10.808  16.644  68.637  1.00  0.00    -0.344 C  
HETATM    3  C   UNL     1     -10.187  18.036  68.629  1.00  0.00    -0.385 C  
ENDROOT
BRANCH   2   4
HETATM    4  O   UNL     1      -9.797  15.723  68.185  1.00  0.00    -0.208 OA 
BRANCH   4   5
HETATM    5  C   UNL     1     -10.072  15.002  67.052  1.00  0.00    -0.244 C  
HETATM    6  O   UNL     1     -10.474  15.495  66.006  1.00  0.00    -0.292 OA 
HETATM    7  C   UNL     1      -9.785  13.497  67.296  1.00  0.00    -0.236 C  
HETATM    8  C   UNL     1      -8.280  13.417  67.635  1.00  0.00    -0.177 C  
HETATM    9  C   UNL     1     -10.704  13.047  68.439  1.00  0.00    -0.273 C  
HETATM   10  O   UNL     1     -10.175  12.806  66.087  1.00  0.00    -0.263 OA 
BRANCH  10  11
HETATM   11  C   UNL     1      -9.579  11.636  65.718  1.00  0.00    -0.232 A  
HETATM   12  C   UNL     1      -8.586  10.976  66.434  1.00  0.00    -0.165 A  
HETATM   13  C   UNL     1      -7.903   9.902  65.867  1.00  0.00    -0.116 A  
HETATM   14  C   UNL     1      -8.257   9.437  64.600  1.00  0.00    -0.148 A  
HETATM   15  C   UNL     1      -9.378   9.973  63.961  1.00  0.00    -0.324 A  
HETATM   16  C   UNL     1     -10.027  11.082  64.517  1.00  0.00    -0.366 A  
BRANCH  14  17
HETATM   17  C   UNL     1      -7.400   8.394  63.985  1.00  0.00    -0.105 C  
HETATM   18  O   UNL     1      -6.589   8.729  63.123  1.00  0.00    -0.090 OA 
BRANCH  17  19
HETATM   19  C   UNL     1      -7.540   6.949  64.317  1.00  0.00    -0.108 A  
HETATM   20  C   UNL     1      -8.431   6.596  65.339  1.00  0.00    -0.112 A  
HETATM   21  C   UNL     1      -8.560   5.263  65.737  1.00  0.00    -0.139 A  
HETATM   22  C   UNL     1      -7.794   4.279  65.116  1.00  0.00    -0.086 A  
HETATM   23  C   UNL     1      -6.902   4.617  64.102  1.00  0.00    -0.045 A  
HETATM   24 CL   UNL     1      -7.932   2.641  65.622  1.00  0.00    -0.081 Cl 
HETATM   25  C   UNL     1      -6.762   5.953  63.711  1.00  0.00    -0.037 A  
ENDBRANCH  17  19
ENDBRANCH  14  17
ENDBRANCH  10  11
ENDBRANCH   4   5
ENDBRANCH   2   4
TORSDOF 5
ENDMDL
MODEL      124
REMARK 921   NORMALIZED FREE ENERGY PREDICTED BY IDOCK:   -2.69 KCAL/MOL
REMARK 922        TOTAL FREE ENERGY PREDICTED BY IDOCK:   -4.54 KCAL/MOL
REMARK 923 INTER-LIGAND FREE ENERGY PREDICTED BY IDOCK:   -3.79 KCAL/MOL
REMARK 924 INTRA-LIGAND FREE ENERGY PREDICTED BY IDOCK:   -0.75 KCAL/MOL
REMARK 927      BINDING AFFINITY PREDICTED BY RF-SCORE:    0.00 PKD
ROOT
HETATM    1  C   UNL     1     -11.451  15.665  64.065  1.00  0.00     0.119 C  
HETATM    2  C   UNL     1     -11.772  14.261  64.555  1.00  0.00    -0.418 C  
HETATM    3  C   UNL     1     -12.145  13.358  63.385  1.00  0.00    -0.437 C  
ENDROOT
BRANCH   2   4
HETATM    4  O   UNL     1     -10.597  13.699  65.170  1.00  0.00    -0.322 OA 
BRANCH   4   5
HETATM    5  C   UNL     1     -10.771  12.581  65.943  1.00  0.00    -0.264 C  
HETATM    6  O   UNL     1     -11.822  12.289  66.501  1.00  0.00    -0.539 OA 
HETATM    7  C   UNL     1      -9.459  11.755  65.987  1.00  0.00    -0.230 C  
HETATM    8  C   UNL     1      -9.175  11.358  64.522  1.00  0.00    -0.010 C  
HETATM    9  C   UNL     1      -8.384  12.657  66.605  1.00  0.00     0.074 C  
HETATM   10  O   UNL     1      -9.705  10.646  66.883  1.00  0.00    -0.171 OA 
BRANCH  10  11
HETATM   11  C   UNL     1      -9.042   9.463  66.741  1.00  0.00    -0.140 A  
HETATM   12  C   UNL     1      -9.372   8.457  65.840  1.00  0.00    -0.205 A  
HETATM   13  C   UNL     1      -8.758   7.208  65.919  1.00  0.00    -0.146 A  
HETATM   14  C   UNL     1      -7.757   6.979  66.864  1.00  0.00    -0.103 A  
HETATM   15  C   UNL     1      -7.290   8.043  67.641  1.00  0.00    -0.093 A  
HETATM   16  C   UNL     1      -7.946   9.279  67.586  1.00  0.00    -0.103 A  
BRANCH  14  17
HETATM   17  C   UNL     1      -7.248   5.594  67.006  1.00  0.00    -0.075 C  
HETATM   18  O   UNL     1      -6.342   5.219  66.264  1.00  0.00    -0.037 OA 
BRANCH  17  19
HETATM   19  C   UNL     1      -7.846   4.618  67.959  1.00  0.00    -0.081 A  
HETATM   20  C   UNL     1      -7.077   4.228  69.064  1.00  0.00    -0.051 A  
HETATM   21  C   UNL     1      -7.560   3.271  69.960  1.00  0.00    -0.044 A  
HETATM   22  C   UNL     1      -8.812   2.697  69.751  1.00  0.00    -0.083 A  
HETATM   23  C   UNL     1      -9.585   3.073  68.655  1.00  0.00    -0.094 A  
HETATM   24 CL   UNL     1      -9.398   1.500  70.838  1.00  0.00    -0.161 Cl 
HETATM   25  C   UNL     1      -9.098   4.023  67.750  1.00  0.00    -0.175 A  
ENDBRANCH  17  19
ENDBRANCH  14  17
ENDBRANCH  10  11
ENDBRANCH   4   5
ENDBRANCH   2   4
TORSDOF 5
ENDMDL
MODEL      125
REMARK 921   NORMALIZED FREE ENERGY PREDICTED BY IDOCK:   -2.58 KCAL/MOL
REMARK 922        TOTAL FREE ENERGY PREDICTED BY IDOCK:   -4.39 KCAL/MOL
REMARK 923 INTER-LIGAND FREE ENERGY PREDICTED BY IDOCK:   -4.34 KCAL/MOL
REMARK 924 INTRA-LIGAND FREE ENERGY PREDICTED BY IDOCK:   -0.05 KCAL/MOL
REMARK 927      BINDING AFFINITY PREDICTED BY RF-SCORE:    0.00 PKD
ROOT
HETATM    1  C   UNL     1     -10.739   1.613  72.346  1.00  0.00    -0.146 C  
HETATM    2  C   UNL     1      -9.902   2.869  72.158  1.00  0.00    -0.169 C  
HETATM    3  C   UNL     1      -8.546   2.716  72.837  1.00  0.00    -0.072 C  
ENDROOT
BRANCH   2   4
HETATM    4  O   UNL     1      -9.656   3.063  70.752  1.00  0.00    -0.155 OA 
BRANCH   4   5
HETATM    5  C   UNL     1      -8.705   3.989  70.407  1.00  0.00    -0.078 C  
HETATM    6  O   UNL     1      -7.501   3.772  70.416  1.00  0.00    -0.041 OA 
HETATM    7  C   UNL     1      -9.385   5.322  69.998  1.00  0.00    -0.152 C  
HETATM    8  C   UNL     1     -10.268   4.976  68.780  1.00  0.00    -0.164 C  
HETATM    9  C   UNL     1     -10.176   5.812  71.218  1.00  0.00    -0.270 C  
HETATM   10  O   UNL     1      -8.317   6.260  69.731  1.00  0.00    -0.122 OA 
BRANCH  10  11
HETATM   11  C   UNL     1      -8.483   7.286  68.848  1.00  0.00    -0.126 A  
HETATM   12  C   UNL     1      -9.348   8.362  69.015  1.00  0.00    -0.147 A  
HETATM   13  C   UNL     1      -9.590   9.243  67.964  1.00  0.00    -0.161 A  
HETATM   14  C   UNL     1      -8.913   9.091  66.752  1.00  0.00    -0.160 A  
HETATM   15  C   UNL     1      -7.904   8.129  66.646  1.00  0.00    -0.094 A  
HETATM   16  C   UNL     1      -7.703   7.220  67.691  1.00  0.00    -0.112 A  
BRANCH  14  17
HETATM   17  C   UNL     1      -9.321   9.959  65.622  1.00  0.00    -0.214 C  
HETATM   18  O   UNL     1      -9.172   9.544  64.474  1.00  0.00    -0.238 OA 
BRANCH  17  19
HETATM   19  C   UNL     1      -9.832  11.344  65.825  1.00  0.00    -0.270 A  
HETATM   20  C   UNL     1     -11.032  11.698  65.195  1.00  0.00    -0.326 A  
HETATM   21  C   UNL     1     -11.530  12.999  65.298  1.00  0.00    -0.340 A  
HETATM   22  C   UNL     1     -10.826  13.953  66.029  1.00  0.00    -0.290 A  
HETATM   23  C   UNL     1      -9.629  13.616  66.657  1.00  0.00    -0.289 A  
HETATM   24 CL   UNL     1     -11.422  15.562  66.137  1.00  0.00    -0.014 Cl 
HETATM   25  C   UNL     1      -9.123  12.316  66.544  1.00  0.00    -0.188 A  
ENDBRANCH  17  19
ENDBRANCH  14  17
ENDBRANCH  10  11
ENDBRANCH   4   5
ENDBRANCH   2   4
TORSDOF 5
ENDMDL
MODEL      126
REMARK 921   NORMALIZED FREE ENERGY PREDICTED BY IDOCK:   -2.29 KCAL/MOL
REMARK 922        TOTAL FREE ENERGY PREDICTED BY IDOCK:   -4.01 KCAL/MOL
REMARK 923 INTER-LIGAND FREE ENERGY PREDICTED BY IDOCK:   -2.98 KCAL/MOL
REMARK 924 INTRA-LIGAND FREE ENERGY PREDICTED BY IDOCK:   -1.03 KCAL/MOL
REMARK 927      BINDING AFFINITY PREDICTED BY RF-SCORE:    0.00 PKD
ROOT
HETATM    1  C   UNL     1     -12.294   9.831  72.197  1.00  0.00    -0.225 C  
HETATM    2  C   UNL     1     -13.178   8.691  71.713  1.00  0.00    -0.363 C  
HETATM    3  C   UNL     1     -14.348   9.228  70.899  1.00  0.00     0.342 C  
ENDROOT
BRANCH   2   4
HETATM    4  O   UNL     1     -12.408   7.838  70.844  1.00  0.00    -0.230 OA 
BRANCH   4   5
HETATM    5  C   UNL     1     -11.541   6.959  71.440  1.00  0.00    -0.299 C  
HETATM    6  O   UNL     1     -11.715   6.468  72.548  1.00  0.00    -0.250 OA 
HETATM    7  C   UNL     1     -10.337   6.681  70.503  1.00  0.00    -0.199 C  
HETATM    8  C   UNL     1     -10.945   6.058  69.228  1.00  0.00    -0.436 C  
HETATM    9  C   UNL     1      -9.638   8.026  70.263  1.00  0.00    -0.171 C  
HETATM   10  O   UNL     1      -9.439   5.817  71.236  1.00  0.00    -0.152 OA 
BRANCH  10  11
HETATM   11  C   UNL     1      -8.614   4.944  70.590  1.00  0.00    -0.109 A  
HETATM   12  C   UNL     1      -7.425   5.279  69.953  1.00  0.00    -0.065 A  
HETATM   13  C   UNL     1      -6.767   4.350  69.150  1.00  0.00    -0.045 A  
HETATM   14  C   UNL     1      -7.263   3.050  69.033  1.00  0.00    -0.048 A  
HETATM   15  C   UNL     1      -8.347   2.656  69.822  1.00  0.00    -0.077 A  
HETATM   16  C   UNL     1      -9.028   3.610  70.587  1.00  0.00    -0.163 A  
BRANCH  14  17
HETATM   17  C   UNL     1      -6.612   2.151  68.050  1.00  0.00    -0.029 C  
HETATM   18  O   UNL     1      -5.557   1.601  68.361  1.00  0.00    -0.017 OA 
BRANCH  17  19
HETATM   19  C   UNL     1      -7.149   1.951  66.675  1.00  0.00    -0.047 A  
HETATM   20  C   UNL     1      -6.234   1.915  65.614  1.00  0.00    -0.023 A  
HETATM   21  C   UNL     1      -6.683   1.791  64.297  1.00  0.00    -0.026 A  
HETATM   22  C   UNL     1      -8.048   1.707  64.036  1.00  0.00    -0.065 A  
HETATM   23  C   UNL     1      -8.969   1.746  65.081  1.00  0.00    -0.124 A  
HETATM   24 CL   UNL     1      -8.604   1.581  62.413  1.00  0.00    -0.061 Cl 
HETATM   25  C   UNL     1      -8.522   1.883  66.400  1.00  0.00    -0.102 A  
ENDBRANCH  17  19
ENDBRANCH  14  17
ENDBRANCH  10  11
ENDBRANCH   4   5
ENDBRANCH   2   4
TORSDOF 5
ENDMDL
MODEL      127
REMARK 921   NORMALIZED FREE ENERGY PREDICTED BY IDOCK:   -2.20 KCAL/MOL
REMARK 922        TOTAL FREE ENERGY PREDICTED BY IDOCK:   -3.90 KCAL/MOL
REMARK 923 INTER-LIGAND FREE ENERGY PREDICTED BY IDOCK:   -3.55 KCAL/MOL
REMARK 924 INTRA-LIGAND FREE ENERGY PREDICTED BY IDOCK:   -0.35 KCAL/MOL
REMARK 927      BINDING AFFINITY PREDICTED BY RF-SCORE:    0.00 PKD
ROOT
HETATM    1  C   UNL     1      -5.185   3.689  74.296  1.00  0.00    -0.003 C  
HETATM    2  C   UNL     1      -5.404   4.033  72.830  1.00  0.00     0.000 C  
HETATM    3  C   UNL     1      -5.331   2.778  71.969  1.00  0.00    -0.004 C  
ENDROOT
BRANCH   2   4
HETATM    4  O   UNL     1      -6.725   4.584  72.671  1.00  0.00    -0.047 OA 
BRANCH   4   5
HETATM    5  C   UNL     1      -6.827   5.949  72.595  1.00  0.00    -0.075 C  
HETATM    6  O   UNL     1      -5.982   6.725  73.023  1.00  0.00    -0.055 OA 
HETATM    7  C   UNL     1      -8.147   6.345  71.883  1.00  0.00    -0.109 C  
HETATM    8  C   UNL     1      -8.050   5.732  70.469  1.00  0.00    -0.110 C  
HETATM    9  C   UNL     1      -9.297   5.780  72.727  1.00  0.00    -0.149 C  
HETATM   10  O   UNL     1      -8.212   7.790  71.918  1.00  0.00    -0.099 OA 
BRANCH  10  11
HETATM   11  C   UNL     1      -8.878   8.490  70.956  1.00  0.00    -0.175 A  
HETATM   12  C   UNL     1     -10.064   8.096  70.347  1.00  0.00    -0.196 A  
HETATM   13  C   UNL     1     -10.548   8.782  69.235  1.00  0.00    -0.210 A  
HETATM   14  C   UNL     1      -9.880   9.914  68.764  1.00  0.00    -0.177 A  
HETATM   15  C   UNL     1      -8.799  10.423  69.489  1.00  0.00    -0.111 A  
HETATM   16  C   UNL     1      -8.293   9.700  70.575  1.00  0.00    -0.134 A  
BRANCH  14  17
HETATM   17  C   UNL     1     -10.351  10.512  67.492  1.00  0.00    -0.223 C  
HETATM   18  O   UNL     1     -11.477  11.004  67.452  1.00  0.00    -0.475 OA 
BRANCH  17  19
HETATM   19  C   UNL     1      -9.540  10.469  66.243  1.00  0.00    -0.232 A  
HETATM   20  C   UNL     1      -8.153  10.631  66.357  1.00  0.00    -0.148 A  
HETATM   21  C   UNL     1      -7.347  10.661  65.216  1.00  0.00     0.015 A  
HETATM   22  C   UNL     1      -7.927  10.533  63.956  1.00  0.00     0.003 A  
HETATM   23  C   UNL     1      -9.306  10.376  63.828  1.00  0.00    -0.329 A  
HETATM   24 CL   UNL     1      -6.941  10.596  62.548  1.00  0.00    -0.129 Cl 
HETATM   25  C   UNL     1     -10.115  10.358  64.969  1.00  0.00    -0.379 A  
ENDBRANCH  17  19
ENDBRANCH  14  17
ENDBRANCH  10  11
ENDBRANCH   4   5
ENDBRANCH   2   4
TORSDOF 5
ENDMDL
MODEL      128
REMARK 921   NORMALIZED FREE ENERGY PREDICTED BY IDOCK:   -2.19 KCAL/MOL
REMARK 922        TOTAL FREE ENERGY PREDICTED BY IDOCK:   -3.88 KCAL/MOL
REMARK 923 INTER-LIGAND FREE ENERGY PREDICTED BY IDOCK:   -4.27 KCAL/MOL
REMARK 924 INTRA-LIGAND FREE ENERGY PREDICTED BY IDOCK:    0.39 KCAL/MOL
REMARK 927      BINDING AFFINITY PREDICTED BY RF-SCORE:    0.00 PKD
ROOT
HETATM    1  C   UNL     1      -5.764   5.582  72.578  1.00  0.00    -0.023 C  
HETATM    2  C   UNL     1      -6.352   6.895  73.075  1.00  0.00    -0.061 C  
HETATM    3  C   UNL     1      -5.285   7.982  73.106  1.00  0.00    -0.041 C  
ENDROOT
BRANCH   2   4
HETATM    4  O   UNL     1      -7.376   7.326  72.159  1.00  0.00    -0.077 OA 
BRANCH   4   5
HETATM    5  C   UNL     1      -7.461   6.664  70.961  1.00  0.00    -0.084 C  
HETATM    6  O   UNL     1      -7.715   5.471  70.853  1.00  0.00    -0.087 OA 
HETATM    7  C   UNL     1      -7.202   7.647  69.790  1.00  0.00    -0.079 C  
HETATM    8  C   UNL     1      -8.315   8.713  69.896  1.00  0.00    -0.123 C  
HETATM    9  C   UNL     1      -5.787   8.207  69.981  1.00  0.00    -0.022 C  
HETATM   10  O   UNL     1      -7.229   6.857  68.579  1.00  0.00    -0.080 OA 
BRANCH  10  11
HETATM   11  C   UNL     1      -7.597   7.404  67.386  1.00  0.00    -0.112 A  
HETATM   12  C   UNL     1      -6.725   7.859  66.404  1.00  0.00    -0.054 A  
HETATM   13  C   UNL     1      -7.203   8.586  65.316  1.00  0.00    -0.083 A  
HETATM   14  C   UNL     1      -8.574   8.806  65.169  1.00  0.00    -0.209 A  
HETATM   15  C   UNL     1      -9.467   8.188  66.049  1.00  0.00    -0.158 A  
HETATM   16  C   UNL     1      -8.973   7.500  67.163  1.00  0.00    -0.136 A  
BRANCH  14  17
HETATM   17  C   UNL     1      -9.013   9.713  64.080  1.00  0.00    -0.229 C  
HETATM   18  O   UNL     1      -8.750   9.410  62.918  1.00  0.00    -0.212 OA 
BRANCH  17  19
HETATM   19  C   UNL     1      -9.690  11.011  64.349  1.00  0.00    -0.330 A  
HETATM   20  C   UNL     1     -10.478  11.562  63.329  1.00  0.00    -0.421 A  
HETATM   21  C   UNL     1     -11.089  12.806  63.500  1.00  0.00    -0.377 A  
HETATM   22  C   UNL     1     -10.911  13.507  64.691  1.00  0.00    -0.405 A  
HETATM   23  C   UNL     1     -10.126  12.974  65.711  1.00  0.00    -0.294 A  
HETATM   24 CL   UNL     1     -11.640  15.051  64.894  1.00  0.00    -0.388 Cl 
HETATM   25  C   UNL     1      -9.504  11.733  65.537  1.00  0.00    -0.185 A  
ENDBRANCH  17  19
ENDBRANCH  14  17
ENDBRANCH  10  11
ENDBRANCH   4   5
ENDBRANCH   2   4
TORSDOF 5
ENDMDL
MODEL      129
REMARK 921   NORMALIZED FREE ENERGY PREDICTED BY IDOCK:   -2.16 KCAL/MOL
REMARK 922        TOTAL FREE ENERGY PREDICTED BY IDOCK:   -3.85 KCAL/MOL
REMARK 923 INTER-LIGAND FREE ENERGY PREDICTED BY IDOCK:   -3.63 KCAL/MOL
REMARK 924 INTRA-LIGAND FREE ENERGY PREDICTED BY IDOCK:   -0.21 KCAL/MOL
REMARK 927      BINDING AFFINITY PREDICTED BY RF-SCORE:    0.00 PKD
ROOT
HETATM    1  C   UNL     1     -11.900  14.610  66.955  1.00  0.00    -0.358 C  
HETATM    2  C   UNL     1     -10.419  14.939  66.841  1.00  0.00    -0.280 C  
HETATM    3  C   UNL     1      -9.851  15.331  68.200  1.00  0.00    -0.217 C  
ENDROOT
BRANCH   2   4
HETATM    4  O   UNL     1      -9.709  13.764  66.405  1.00  0.00    -0.282 OA 
BRANCH   4   5
HETATM    5  C   UNL     1      -8.507  13.501  67.009  1.00  0.00    -0.123 C  
HETATM    6  O   UNL     1      -7.693  14.360  67.320  1.00  0.00    -0.192 OA 
HETATM    7  C   UNL     1      -8.353  11.975  67.244  1.00  0.00    -0.176 C  
HETATM    8  C   UNL     1      -9.522  11.583  68.174  1.00  0.00    -0.184 C  
HETATM    9  C   UNL     1      -8.406  11.304  65.865  1.00  0.00    -0.023 C  
HETATM   10  O   UNL     1      -7.035  11.779  67.805  1.00  0.00    -0.082 OA 
BRANCH  10  11
HETATM   11  C   UNL     1      -6.767  10.726  68.629  1.00  0.00    -0.058 A  
HETATM   12  C   UNL     1      -6.740   9.390  68.247  1.00  0.00    -0.059 A  
HETATM   13  C   UNL     1      -6.660   8.382  69.205  1.00  0.00    -0.042 A  
HETATM   14  C   UNL     1      -6.538   8.710  70.557  1.00  0.00    -0.039 A  
HETATM   15  C   UNL     1      -6.372  10.048  70.927  1.00  0.00    -0.030 A  
HETATM   16  C   UNL     1      -6.502  11.053  69.961  1.00  0.00    -0.144 A  
BRANCH  14  17
HETATM   17  C   UNL     1      -6.611   7.605  71.543  1.00  0.00    -0.045 C  
HETATM   18  O   UNL     1      -5.574   7.227  72.085  1.00  0.00    -0.037 OA 
BRANCH  17  19
HETATM   19  C   UNL     1      -7.880   6.885  71.842  1.00  0.00    -0.095 A  
HETATM   20  C   UNL     1      -8.965   7.639  72.311  1.00  0.00    -0.177 A  
HETATM   21  C   UNL     1     -10.162   7.012  72.665  1.00  0.00    -0.218 A  
HETATM   22  C   UNL     1     -10.277   5.628  72.556  1.00  0.00    -0.190 A  
HETATM   23  C   UNL     1      -9.205   4.867  72.095  1.00  0.00    -0.159 A  
HETATM   24 CL   UNL     1     -11.741   4.851  73.017  1.00  0.00    -0.310 Cl 
HETATM   25  C   UNL     1      -8.002   5.492  71.751  1.00  0.00    -0.114 A  
ENDBRANCH  17  19
ENDBRANCH  14  17
ENDBRANCH  10  11
ENDBRANCH   4   5
ENDBRANCH   2   4
TORSDOF 5
ENDMDL
MODEL      130
REMARK 921   NORMALIZED FREE ENERGY PREDICTED BY IDOCK:   -2.09 KCAL/MOL
REMARK 922        TOTAL FREE ENERGY PREDICTED BY IDOCK:   -3.76 KCAL/MOL
REMARK 923 INTER-LIGAND FREE ENERGY PREDICTED BY IDOCK:   -3.75 KCAL/MOL
REMARK 924 INTRA-LIGAND FREE ENERGY PREDICTED BY IDOCK:   -0.01 KCAL/MOL
REMARK 927      BINDING AFFINITY PREDICTED BY RF-SCORE:    0.00 PKD
ROOT
HETATM    1  C   UNL     1      -8.854   6.764  66.004  1.00  0.00    -0.150 C  
HETATM    2  C   UNL     1      -7.569   6.549  65.219  1.00  0.00    -0.088 C  
HETATM    3  C   UNL     1      -7.870   6.371  63.736  1.00  0.00    -0.111 C  
ENDROOT
BRANCH   2   4
HETATM    4  O   UNL     1      -6.739   7.719  65.349  1.00  0.00    -0.044 OA 
BRANCH   4   5
HETATM    5  C   UNL     1      -6.800   8.398  66.539  1.00  0.00    -0.067 C  
HETATM    6  O   UNL     1      -6.729   7.864  67.638  1.00  0.00    -0.064 OA 
HETATM    7  C   UNL     1      -6.956   9.918  66.275  1.00  0.00    -0.100 C  
HETATM    8  C   UNL     1      -5.695  10.329  65.484  1.00  0.00    -0.096 C  
HETATM    9  C   UNL     1      -8.265  10.105  65.497  1.00  0.00    -0.156 C  
HETATM   10  O   UNL     1      -7.093  10.545  67.571  1.00  0.00    -0.086 OA 
BRANCH  10  11
HETATM   11  C   UNL     1      -6.695  11.833  67.779  1.00  0.00    -0.082 A  
HETATM   12  C   UNL     1      -5.646  12.230  68.601  1.00  0.00    -0.053 A  
HETATM   13  C   UNL     1      -5.456  13.577  68.903  1.00  0.00    -0.074 A  
HETATM   14  C   UNL     1      -6.280  14.546  68.327  1.00  0.00    -0.120 A  
HETATM   15  C   UNL     1      -7.209  14.168  67.354  1.00  0.00    -0.124 A  
HETATM   16  C   UNL     1      -7.423  12.809  67.095  1.00  0.00    -0.037 A  
BRANCH  14  17
HETATM   17  C   UNL     1      -6.132  15.944  68.800  1.00  0.00    -0.105 C  
HETATM   18  O   UNL     1      -5.141  16.240  69.465  1.00  0.00    -0.111 OA 
BRANCH  17  19
HETATM   19  C   UNL     1      -7.176  16.980  68.564  1.00  0.00    -0.209 A  
HETATM   20  C   UNL     1      -8.506  16.646  68.852  1.00  0.00    -0.233 A  
HETATM   21  C   UNL     1      -9.535  17.554  68.594  1.00  0.00    -0.278 A  
HETATM   22  C   UNL     1      -9.238  18.799  68.044  1.00  0.00    -0.302 A  
HETATM   23  C   UNL     1      -7.921  19.142  67.750  1.00  0.00    -0.305 A  
HETATM   24 CL   UNL     1     -10.506  19.909  67.702  1.00  0.00    -0.543 Cl 
HETATM   25  C   UNL     1      -6.890  18.229  67.996  1.00  0.00    -0.212 A  
ENDBRANCH  17  19
ENDBRANCH  14  17
ENDBRANCH  10  11
ENDBRANCH   4   5
ENDBRANCH   2   4
TORSDOF 5
ENDMDL
MODEL      131
REMARK 921   NORMALIZED FREE ENERGY PREDICTED BY IDOCK:   -1.95 KCAL/MOL
REMARK 922        TOTAL FREE ENERGY PREDICTED BY IDOCK:   -3.57 KCAL/MOL
REMARK 923 INTER-LIGAND FREE ENERGY PREDICTED BY IDOCK:   -3.94 KCAL/MOL
REMARK 924 INTRA-LIGAND FREE ENERGY PREDICTED BY IDOCK:    0.37 KCAL/MOL
REMARK 927      BINDING AFFINITY PREDICTED BY RF-SCORE:    0.00 PKD
ROOT
HETATM    1  C   UNL     1     -11.805  15.711  70.785  1.00  0.00    -0.421 C  
HETATM    2  C   UNL     1     -12.458  14.535  71.497  1.00  0.00    -0.355 C  
HETATM    3  C   UNL     1     -13.971  14.581  71.330  1.00  0.00    -0.432 C  
ENDROOT
BRANCH   2   4
HETATM    4  O   UNL     1     -11.999  13.310  70.894  1.00  0.00    -0.246 OA 
BRANCH   4   5
HETATM    5  C   UNL     1     -11.998  13.251  69.524  1.00  0.00    -0.307 C  
HETATM    6  O   UNL     1     -12.291  14.191  68.796  1.00  0.00    -0.272 OA 
HETATM    7  C   UNL     1     -11.562  11.839  69.052  1.00  0.00    -0.311 C  
HETATM    8  C   UNL     1     -10.132  11.646  69.601  1.00  0.00     0.693 C  
HETATM    9  C   UNL     1     -12.584  10.844  69.619  1.00  0.00    -0.075 C  
HETATM   10  O   UNL     1     -11.667  11.839  67.610  1.00  0.00    -0.487 OA 
BRANCH  10  11
HETATM   11  C   UNL     1     -10.876  11.035  66.844  1.00  0.00    -0.269 A  
HETATM   12  C   UNL     1     -10.957   9.648  66.780  1.00  0.00     0.078 A  
HETATM   13  C   UNL     1      -9.970   8.913  66.127  1.00  0.00    -0.290 A  
HETATM   14  C   UNL     1      -8.926   9.568  65.472  1.00  0.00    -0.236 A  
HETATM   15  C   UNL     1      -8.946  10.962  65.371  1.00  0.00    -0.209 A  
HETATM   16  C   UNL     1      -9.915  11.691  66.071  1.00  0.00    -0.260 A  
BRANCH  14  17
HETATM   17  C   UNL     1      -7.826   8.737  64.927  1.00  0.00    -0.120 C  
HETATM   18  O   UNL     1      -7.534   8.849  63.738  1.00  0.00    -0.106 OA 
BRANCH  17  19
HETATM   19  C   UNL     1      -7.115   7.717  65.748  1.00  0.00    -0.061 A  
HETATM   20  C   UNL     1      -7.793   6.527  66.045  1.00  0.00    -0.103 A  
HETATM   21  C   UNL     1      -7.201   5.560  66.860  1.00  0.00    -0.078 A  
HETATM   22  C   UNL     1      -5.930   5.781  67.386  1.00  0.00    -0.018 A  
HETATM   23  C   UNL     1      -5.247   6.962  67.103  1.00  0.00    -0.013 A  
HETATM   24 CL   UNL     1      -5.211   4.603  68.412  1.00  0.00    -0.007 Cl 
HETATM   25  C   UNL     1      -5.843   7.937  66.296  1.00  0.00    -0.040 A  
ENDBRANCH  17  19
ENDBRANCH  14  17
ENDBRANCH  10  11
ENDBRANCH   4   5
ENDBRANCH   2   4
TORSDOF 5
ENDMDL
MODEL      132
REMARK 921   NORMALIZED FREE ENERGY PREDICTED BY IDOCK:   -1.79 KCAL/MOL
REMARK 922        TOTAL FREE ENERGY PREDICTED BY IDOCK:   -3.37 KCAL/MOL
REMARK 923 INTER-LIGAND FREE ENERGY PREDICTED BY IDOCK:   -4.43 KCAL/MOL
REMARK 924 INTRA-LIGAND FREE ENERGY PREDICTED BY IDOCK:    1.06 KCAL/MOL
REMARK 927      BINDING AFFINITY PREDICTED BY RF-SCORE:    0.00 PKD
ROOT
HETATM    1  C   UNL     1     -11.573  13.438  65.911  1.00  0.00    -0.370 C  
HETATM    2  C   UNL     1     -10.075  13.501  65.649  1.00  0.00    -0.278 C  
HETATM    3  C   UNL     1      -9.353  14.156  66.820  1.00  0.00    -0.295 C  
ENDROOT
BRANCH   2   4
HETATM    4  O   UNL     1      -9.564  12.159  65.529  1.00  0.00    -0.218 OA 
BRANCH   4   5
HETATM    5  C   UNL     1      -8.746  11.711  66.533  1.00  0.00    -0.182 C  
HETATM    6  O   UNL     1      -7.724  12.282  66.893  1.00  0.00    -0.118 OA 
HETATM    7  C   UNL     1      -9.315  10.401  67.138  1.00  0.00    -0.157 C  
HETATM    8  C   UNL     1     -10.703  10.777  67.701  1.00  0.00    -0.305 C  
HETATM    9  C   UNL     1      -9.365   9.370  66.002  1.00  0.00    -0.279 C  
HETATM   10  O   UNL     1      -8.356   9.956  68.125  1.00  0.00    -0.109 OA 
BRANCH  10  11
HETATM   11  C   UNL     1      -8.744   9.217  69.203  1.00  0.00    -0.139 A  
HETATM   12  C   UNL     1      -9.837   9.490  70.018  1.00  0.00    -0.269 A  
HETATM   13  C   UNL     1     -10.022   8.792  71.210  1.00  0.00    -0.333 A  
HETATM   14  C   UNL     1      -9.145   7.765  71.563  1.00  0.00    -0.158 A  
HETATM   15  C   UNL     1      -8.161   7.361  70.657  1.00  0.00    -0.110 A  
HETATM   16  C   UNL     1      -7.955   8.099  69.485  1.00  0.00    -0.113 A  
BRANCH  14  17
HETATM   17  C   UNL     1      -9.298   7.161  72.908  1.00  0.00    -0.148 C  
HETATM   18  O   UNL     1      -9.823   7.828  73.798  1.00  0.00    -0.258 OA 
BRANCH  17  19
HETATM   19  C   UNL     1      -8.771   5.808  73.240  1.00  0.00    -0.118 A  
HETATM   20  C   UNL     1      -7.394   5.680  73.469  1.00  0.00    -0.087 A  
HETATM   21  C   UNL     1      -6.833   4.427  73.725  1.00  0.00    -0.064 A  
HETATM   22  C   UNL     1      -7.645   3.296  73.747  1.00  0.00    -0.061 A  
HETATM   23  C   UNL     1      -9.015   3.409  73.517  1.00  0.00    -0.092 A  
HETATM   24 CL   UNL     1      -6.952   1.749  74.035  1.00  0.00    -0.022 Cl 
HETATM   25  C   UNL     1      -9.577   4.661  73.249  1.00  0.00    -0.143 A  
ENDBRANCH  17  19
ENDBRANCH  14  17
ENDBRANCH  10  11
ENDBRANCH   4   5
ENDBRANCH   2   4
TORSDOF 5
ENDMDL
MODEL      133
REMARK 921   NORMALIZED FREE ENERGY PREDICTED BY IDOCK:   -1.76 KCAL/MOL
REMARK 922        TOTAL FREE ENERGY PREDICTED BY IDOCK:   -3.33 KCAL/MOL
REMARK 923 INTER-LIGAND FREE ENERGY PREDICTED BY IDOCK:   -3.59 KCAL/MOL
REMARK 924 INTRA-LIGAND FREE ENERGY PREDICTED BY IDOCK:    0.26 KCAL/MOL
REMARK 927      BINDING AFFINITY PREDICTED BY RF-SCORE:    0.00 PKD
ROOT
HETATM    1  C   UNL     1     -11.937  14.553  71.861  1.00  0.00    -0.248 C  
HETATM    2  C   UNL     1     -13.043  13.576  72.231  1.00  0.00    -0.389 C  
HETATM    3  C   UNL     1     -14.391  14.078  71.729  1.00  0.00    -0.375 C  
ENDROOT
BRANCH   2   4
HETATM    4  O   UNL     1     -12.789  12.314  71.584  1.00  0.00    -0.349 OA 
BRANCH   4   5
HETATM    5  C   UNL     1     -12.229  12.356  70.334  1.00  0.00    -0.287 C  
HETATM    6  O   UNL     1     -12.051  13.385  69.695  1.00  0.00    -0.312 OA 
HETATM    7  C   UNL     1     -11.852  10.924  69.872  1.00  0.00    -0.349 C  
HETATM    8  C   UNL     1     -10.824  10.417  70.906  1.00  0.00     0.196 C  
HETATM    9  C   UNL     1     -13.152  10.109  69.838  1.00  0.00     0.546 C  
HETATM   10  O   UNL     1     -11.348  11.049  68.522  1.00  0.00    -0.241 OA 
BRANCH  10  11
HETATM   11  C   UNL     1     -10.440  10.164  68.022  1.00  0.00    -0.209 A  
HETATM   12  C   UNL     1     -10.720   8.866  67.611  1.00  0.00    -0.221 A  
HETATM   13  C   UNL     1      -9.686   7.981  67.311  1.00  0.00    -0.232 A  
HETATM   14  C   UNL     1      -8.359   8.413  67.356  1.00  0.00    -0.124 A  
HETATM   15  C   UNL     1      -8.085   9.765  67.580  1.00  0.00    -0.113 A  
HETATM   16  C   UNL     1      -9.127  10.633  67.927  1.00  0.00    -0.145 A  
BRANCH  14  17
HETATM   17  C   UNL     1      -7.297   7.394  67.177  1.00  0.00    -0.097 C  
HETATM   18  O   UNL     1      -6.198   7.591  67.691  1.00  0.00    -0.045 OA 
BRANCH  17  19
HETATM   19  C   UNL     1      -7.490   6.181  66.335  1.00  0.00    -0.086 A  
HETATM   20  C   UNL     1      -7.225   6.287  64.963  1.00  0.00    -0.070 A  
HETATM   21  C   UNL     1      -7.445   5.201  64.113  1.00  0.00    -0.065 A  
HETATM   22  C   UNL     1      -7.937   4.005  64.631  1.00  0.00    -0.086 A  
HETATM   23  C   UNL     1      -8.209   3.887  65.992  1.00  0.00    -0.101 A  
HETATM   24 CL   UNL     1      -8.234   2.675  63.583  1.00  0.00    -0.081 Cl 
HETATM   25  C   UNL     1      -8.000   4.978  66.843  1.00  0.00    -0.104 A  
ENDBRANCH  17  19
ENDBRANCH  14  17
ENDBRANCH  10  11
ENDBRANCH   4   5
ENDBRANCH   2   4
TORSDOF 5
ENDMDL
MODEL      134
REMARK 921   NORMALIZED FREE ENERGY PREDICTED BY IDOCK:   -1.69 KCAL/MOL
REMARK 922        TOTAL FREE ENERGY PREDICTED BY IDOCK:   -3.24 KCAL/MOL
REMARK 923 INTER-LIGAND FREE ENERGY PREDICTED BY IDOCK:   -3.48 KCAL/MOL
REMARK 924 INTRA-LIGAND FREE ENERGY PREDICTED BY IDOCK:    0.25 KCAL/MOL
REMARK 927      BINDING AFFINITY PREDICTED BY RF-SCORE:    0.00 PKD
ROOT
HETATM    1  C   UNL     1      -9.658  20.019  69.432  1.00  0.00     0.073 C  
HETATM    2  C   UNL     1      -9.487  18.947  68.367  1.00  0.00    -0.356 C  
HETATM    3  C   UNL     1      -8.968  19.558  67.071  1.00  0.00    -0.365 C  
ENDROOT
BRANCH   2   4
HETATM    4  O   UNL     1      -8.504  17.994  68.814  1.00  0.00    -0.285 OA 
BRANCH   4   5
HETATM    5  C   UNL     1      -8.157  16.998  67.939  1.00  0.00    -0.195 C  
HETATM    6  O   UNL     1      -7.151  17.017  67.241  1.00  0.00    -0.143 OA 
HETATM    7  C   UNL     1      -9.211  15.861  67.981  1.00  0.00    -0.192 C  
HETATM    8  C   UNL     1      -9.189  15.335  69.433  1.00  0.00    -0.233 C  
HETATM    9  C   UNL     1     -10.553  16.481  67.567  1.00  0.00    -0.313 C  
HETATM   10  O   UNL     1      -8.815  14.899  66.978  1.00  0.00    -0.205 OA 
BRANCH  10  11
HETATM   11  C   UNL     1      -9.133  13.579  67.101  1.00  0.00    -0.232 A  
HETATM   12  C   UNL     1      -8.247  12.565  67.450  1.00  0.00    -0.183 A  
HETATM   13  C   UNL     1      -8.626  11.228  67.345  1.00  0.00    -0.136 A  
HETATM   14  C   UNL     1      -9.925  10.897  66.953  1.00  0.00    -0.232 A  
HETATM   15  C   UNL     1     -10.871  11.912  66.788  1.00  0.00    -0.307 A  
HETATM   16  C   UNL     1     -10.467  13.251  66.848  1.00  0.00    -0.261 A  
BRANCH  14  17
HETATM   17  C   UNL     1     -10.227   9.466  66.712  1.00  0.00    -0.250 C  
HETATM   18  O   UNL     1     -11.284   9.171  66.156  1.00  0.00     1.167 OA 
BRANCH  17  19
HETATM   19  C   UNL     1      -9.336   8.372  67.187  1.00  0.00    -0.192 A  
HETATM   20  C   UNL     1      -9.305   8.103  68.562  1.00  0.00    -0.138 A  
HETATM   21  C   UNL     1      -8.444   7.130  69.075  1.00  0.00    -0.129 A  
HETATM   22  C   UNL     1      -7.606   6.425  68.213  1.00  0.00    -0.103 A  
HETATM   23  C   UNL     1      -7.623   6.686  66.845  1.00  0.00    -0.095 A  
HETATM   24 CL   UNL     1      -6.525   5.245  68.844  1.00  0.00    -0.041 Cl 
HETATM   25  C   UNL     1      -8.476   7.668  66.332  1.00  0.00    -0.137 A  
ENDBRANCH  17  19
ENDBRANCH  14  17
ENDBRANCH  10  11
ENDBRANCH   4   5
ENDBRANCH   2   4
TORSDOF 5
ENDMDL
MODEL      135
REMARK 921   NORMALIZED FREE ENERGY PREDICTED BY IDOCK:   -1.45 KCAL/MOL
REMARK 922        TOTAL FREE ENERGY PREDICTED BY IDOCK:   -2.92 KCAL/MOL
REMARK 923 INTER-LIGAND FREE ENERGY PREDICTED BY IDOCK:   -2.70 KCAL/MOL
REMARK 924 INTRA-LIGAND FREE ENERGY PREDICTED BY IDOCK:   -0.22 KCAL/MOL
REMARK 927      BINDING AFFINITY PREDICTED BY RF-SCORE:    0.00 PKD
ROOT
HETATM    1  C   UNL     1     -12.754   8.578  72.893  1.00  0.00     0.105 C  
HETATM    2  C   UNL     1     -13.694   8.109  71.793  1.00  0.00    -0.374 C  
HETATM    3  C   UNL     1     -14.277   9.299  71.041  1.00  0.00     0.170 C  
ENDROOT
BRANCH   2   4
HETATM    4  O   UNL     1     -12.948   7.327  70.841  1.00  0.00    -0.241 OA 
BRANCH   4   5
HETATM    5  C   UNL     1     -11.936   6.543  71.334  1.00  0.00    -0.316 C  
HETATM    6  O   UNL     1     -12.035   5.843  72.333  1.00  0.00    -0.298 OA 
HETATM    7  C   UNL     1     -10.678   6.672  70.436  1.00  0.00    -0.250 C  
HETATM    8  C   UNL     1     -11.116   6.173  69.042  1.00  0.00    -0.437 C  
HETATM    9  C   UNL     1     -10.259   8.148  70.462  1.00  0.00    -0.207 C  
HETATM   10  O   UNL     1      -9.642   5.885  71.068  1.00  0.00    -0.163 OA 
BRANCH  10  11
HETATM   11  C   UNL     1      -8.642   5.315  70.337  1.00  0.00    -0.115 A  
HETATM   12  C   UNL     1      -7.409   5.897  70.065  1.00  0.00    -0.074 A  
HETATM   13  C   UNL     1      -6.543   5.318  69.140  1.00  0.00    -0.051 A  
HETATM   14  C   UNL     1      -6.880   4.110  68.527  1.00  0.00    -0.047 A  
HETATM   15  C   UNL     1      -8.027   3.427  68.940  1.00  0.00    -0.060 A  
HETATM   16  C   UNL     1      -8.912   4.041  69.834  1.00  0.00    -0.161 A  
BRANCH  14  17
HETATM   17  C   UNL     1      -5.996   3.619  67.442  1.00  0.00    -0.024 C  
HETATM   18  O   UNL     1      -5.319   2.612  67.642  1.00  0.00    -0.015 OA 
BRANCH  17  19
HETATM   19  C   UNL     1      -5.841   4.345  66.151  1.00  0.00    -0.023 A  
HETATM   20  C   UNL     1      -5.256   5.618  66.181  1.00  0.00    -0.009 A  
HETATM   21  C   UNL     1      -5.139   6.372  65.011  1.00  0.00    -0.017 A  
HETATM   22  C   UNL     1      -5.611   5.856  63.806  1.00  0.00    -0.017 A  
HETATM   23  C   UNL     1      -6.198   4.594  63.762  1.00  0.00    -0.022 A  
HETATM   24 CL   UNL     1      -5.492   6.793  62.369  1.00  0.00    -0.031 Cl 
HETATM   25  C   UNL     1      -6.327   3.843  64.936  1.00  0.00    -0.027 A  
ENDBRANCH  17  19
ENDBRANCH  14  17
ENDBRANCH  10  11
ENDBRANCH   4   5
ENDBRANCH   2   4
TORSDOF 5
ENDMDL
MODEL      136
REMARK 921   NORMALIZED FREE ENERGY PREDICTED BY IDOCK:   -1.31 KCAL/MOL
REMARK 922        TOTAL FREE ENERGY PREDICTED BY IDOCK:   -2.74 KCAL/MOL
REMARK 923 INTER-LIGAND FREE ENERGY PREDICTED BY IDOCK:   -3.40 KCAL/MOL
REMARK 924 INTRA-LIGAND FREE ENERGY PREDICTED BY IDOCK:    0.66 KCAL/MOL
REMARK 927      BINDING AFFINITY PREDICTED BY RF-SCORE:    0.00 PKD
ROOT
HETATM    1  C   UNL     1     -13.242  13.864  65.507  1.00  0.00    -0.039 C  
HETATM    2  C   UNL     1     -12.914  12.773  64.498  1.00  0.00    -0.123 C  
HETATM    3  C   UNL     1     -12.155  13.353  63.310  1.00  0.00    -0.329 C  
ENDROOT
BRANCH   2   4
HETATM    4  O   UNL     1     -12.052  11.802  65.122  1.00  0.00    -0.247 OA 
BRANCH   4   5
HETATM    5  C   UNL     1     -10.765  12.190  65.388  1.00  0.00    -0.284 C  
HETATM    6  O   UNL     1     -10.294  13.274  65.068  1.00  0.00    -0.325 OA 
HETATM    7  C   UNL     1     -10.019  11.067  66.156  1.00  0.00    -0.231 C  
HETATM    8  C   UNL     1     -10.807  10.876  67.470  1.00  0.00    -0.324 C  
HETATM    9  C   UNL     1     -10.017   9.831  65.248  1.00  0.00    -0.251 C  
HETATM   10  O   UNL     1      -8.656  11.522  66.324  1.00  0.00    -0.180 OA 
BRANCH  10  11
HETATM   11  C   UNL     1      -7.897  11.107  67.377  1.00  0.00    -0.121 A  
HETATM   12  C   UNL     1      -7.395   9.823  67.554  1.00  0.00    -0.090 A  
HETATM   13  C   UNL     1      -6.808   9.453  68.762  1.00  0.00    -0.053 A  
HETATM   14  C   UNL     1      -6.660  10.393  69.784  1.00  0.00    -0.103 A  
HETATM   15  C   UNL     1      -6.988  11.729  69.541  1.00  0.00     0.027 A  
HETATM   16  C   UNL     1      -7.619  12.079  68.342  1.00  0.00    -0.128 A  
BRANCH  14  17
HETATM   17  C   UNL     1      -6.170   9.909  71.098  1.00  0.00     0.017 C  
HETATM   18  O   UNL     1      -5.163  10.424  71.579  1.00  0.00    -0.087 OA 
BRANCH  17  19
HETATM   19  C   UNL     1      -6.809   8.772  71.817  1.00  0.00    -0.073 A  
HETATM   20  C   UNL     1      -7.143   7.632  71.073  1.00  0.00    -0.054 A  
HETATM   21  C   UNL     1      -7.799   6.558  71.679  1.00  0.00    -0.100 A  
HETATM   22  C   UNL     1      -8.127   6.622  73.032  1.00  0.00    -0.106 A  
HETATM   23  C   UNL     1      -7.805   7.751  73.782  1.00  0.00    -0.207 A  
HETATM   24 CL   UNL     1      -8.958   5.312  73.774  1.00  0.00    -0.124 Cl 
HETATM   25  C   UNL     1      -7.159   8.832  73.173  1.00  0.00     0.131 A  
ENDBRANCH  17  19
ENDBRANCH  14  17
ENDBRANCH  10  11
ENDBRANCH   4   5
ENDBRANCH   2   4
TORSDOF 5
ENDMDL
MODEL      137
REMARK 921   NORMALIZED FREE ENERGY PREDICTED BY IDOCK:   -1.11 KCAL/MOL
REMARK 922        TOTAL FREE ENERGY PREDICTED BY IDOCK:   -2.49 KCAL/MOL
REMARK 923 INTER-LIGAND FREE ENERGY PREDICTED BY IDOCK:   -2.84 KCAL/MOL
REMARK 924 INTRA-LIGAND FREE ENERGY PREDICTED BY IDOCK:    0.35 KCAL/MOL
REMARK 927      BINDING AFFINITY PREDICTED BY RF-SCORE:    0.00 PKD
ROOT
HETATM    1  C   UNL     1     -12.261  14.642  66.646  1.00  0.00    -0.141 C  
HETATM    2  C   UNL     1     -10.767  14.891  66.502  1.00  0.00    -0.309 C  
HETATM    3  C   UNL     1     -10.150  15.244  67.849  1.00  0.00    -0.233 C  
ENDROOT
BRANCH   2   4
HETATM    4  O   UNL     1     -10.133  13.681  66.045  1.00  0.00    -0.298 OA 
BRANCH   4   5
HETATM    5  C   UNL     1      -8.921  13.363  66.604  1.00  0.00    -0.122 C  
HETATM    6  O   UNL     1      -8.047  14.182  66.858  1.00  0.00    -0.092 OA 
HETATM    7  C   UNL     1      -8.843  11.837  66.869  1.00  0.00    -0.191 C  
HETATM    8  C   UNL     1      -9.989  11.533  67.858  1.00  0.00    -0.193 C  
HETATM    9  C   UNL     1      -8.993  11.139  65.511  1.00  0.00    -0.178 C  
HETATM   10  O   UNL     1      -7.514  11.579  67.378  1.00  0.00    -0.111 OA 
BRANCH  10  11
HETATM   11  C   UNL     1      -7.269  10.531  68.215  1.00  0.00    -0.083 A  
HETATM   12  C   UNL     1      -7.356   9.186  67.871  1.00  0.00    -0.084 A  
HETATM   13  C   UNL     1      -7.287   8.200  68.853  1.00  0.00    -0.090 A  
HETATM   14  C   UNL     1      -7.062   8.553  70.185  1.00  0.00    -0.043 A  
HETATM   15  C   UNL     1      -6.783   9.884  70.505  1.00  0.00    -0.124 A  
HETATM   16  C   UNL     1      -6.902  10.871  69.519  1.00  0.00    -0.125 A  
BRANCH  14  17
HETATM   17  C   UNL     1      -7.150   7.480  71.205  1.00  0.00    -0.058 C  
HETATM   18  O   UNL     1      -7.364   7.793  72.374  1.00  0.00    -0.073 OA 
BRANCH  17  19
HETATM   19  C   UNL     1      -6.912   6.047  70.877  1.00  0.00    -0.067 A  
HETATM   20  C   UNL     1      -7.728   5.454  69.904  1.00  0.00    -0.080 A  
HETATM   21  C   UNL     1      -7.593   4.098  69.597  1.00  0.00    -0.053 A  
HETATM   22  C   UNL     1      -6.643   3.328  70.266  1.00  0.00    -0.033 A  
HETATM   23  C   UNL     1      -5.829   3.904  71.238  1.00  0.00    -0.013 A  
HETATM   24 CL   UNL     1      -6.493   1.653  69.909  1.00  0.00    -0.025 Cl 
HETATM   25  C   UNL     1      -5.971   5.259  71.555  1.00  0.00    -0.025 A  
ENDBRANCH  17  19
ENDBRANCH  14  17
ENDBRANCH  10  11
ENDBRANCH   4   5
ENDBRANCH   2   4
TORSDOF 5
ENDMDL
MODEL      138
REMARK 921   NORMALIZED FREE ENERGY PREDICTED BY IDOCK:   -0.77 KCAL/MOL
REMARK 922        TOTAL FREE ENERGY PREDICTED BY IDOCK:   -2.05 KCAL/MOL
REMARK 923 INTER-LIGAND FREE ENERGY PREDICTED BY IDOCK:   -4.80 KCAL/MOL
REMARK 924 INTRA-LIGAND FREE ENERGY PREDICTED BY IDOCK:    2.75 KCAL/MOL
REMARK 927      BINDING AFFINITY PREDICTED BY RF-SCORE:    0.00 PKD
ROOT
HETATM    1  C   UNL     1      -9.680   9.315  71.388  1.00  0.00    -0.269 C  
HETATM    2  C   UNL     1     -10.562   8.919  70.213  1.00  0.00    -0.218 C  
HETATM    3  C   UNL     1     -10.424   7.431  69.916  1.00  0.00    -0.238 C  
ENDROOT
BRANCH   2   4
HETATM    4  O   UNL     1     -11.940   9.159  70.560  1.00  0.00    -0.186 OA 
BRANCH   4   5
HETATM    5  C   UNL     1     -12.532  10.275  70.027  1.00  0.00    -0.046 C  
HETATM    6  O   UNL     1     -13.599  10.736  70.411  1.00  0.00     0.275 OA 
HETATM    7  C   UNL     1     -11.647  10.856  68.893  1.00  0.00    -0.309 C  
HETATM    8  C   UNL     1     -10.308  11.226  69.566  1.00  0.00     0.048 C  
HETATM    9  C   UNL     1     -11.522   9.765  67.821  1.00  0.00     0.508 C  
HETATM   10  O   UNL     1     -12.378  11.972  68.335  1.00  0.00    -0.270 OA 
BRANCH  10  11
HETATM   11  C   UNL     1     -11.730  13.022  67.755  1.00  0.00    -0.359 A  
HETATM   12  C   UNL     1     -10.829  12.930  66.700  1.00  0.00    -0.288 A  
HETATM   13  C   UNL     1     -10.070  14.036  66.321  1.00  0.00    -0.307 A  
HETATM   14  C   UNL     1     -10.259  15.266  66.955  1.00  0.00    -0.260 A  
HETATM   15  C   UNL     1     -11.297  15.408  67.881  1.00  0.00    -0.328 A  
HETATM   16  C   UNL     1     -12.019  14.280  68.288  1.00  0.00    -0.346 A  
BRANCH  14  17
HETATM   17  C   UNL     1      -9.323  16.365  66.619  1.00  0.00    -0.259 C  
HETATM   18  O   UNL     1      -9.351  16.838  65.484  1.00  0.00    -0.470 OA 
BRANCH  17  19
HETATM   19  C   UNL     1      -8.299  16.862  67.579  1.00  0.00    -0.201 A  
HETATM   20  C   UNL     1      -8.484  18.137  68.131  1.00  0.00    -0.282 A  
HETATM   21  C   UNL     1      -7.527  18.682  68.990  1.00  0.00    -0.243 A  
HETATM   22  C   UNL     1      -6.380  17.955  69.299  1.00  0.00    -0.244 A  
HETATM   23  C   UNL     1      -6.182  16.688  68.755  1.00  0.00    -0.147 A  
HETATM   24 CL   UNL     1      -5.188  18.634  70.336  1.00  0.00    -0.220 Cl 
HETATM   25  C   UNL     1      -7.133  16.146  67.884  1.00  0.00    -0.147 A  
ENDBRANCH  17  19
ENDBRANCH  14  17
ENDBRANCH  10  11
ENDBRANCH   4   5
ENDBRANCH   2   4
TORSDOF 5
ENDMDL
MODEL      139
REMARK 921   NORMALIZED FREE ENERGY PREDICTED BY IDOCK:   -0.61 KCAL/MOL
REMARK 922        TOTAL FREE ENERGY PREDICTED BY IDOCK:   -1.84 KCAL/MOL
REMARK 923 INTER-LIGAND FREE ENERGY PREDICTED BY IDOCK:   -1.87 KCAL/MOL
REMARK 924 INTRA-LIGAND FREE ENERGY PREDICTED BY IDOCK:    0.03 KCAL/MOL
REMARK 927      BINDING AFFINITY PREDICTED BY RF-SCORE:    0.00 PKD
ROOT
HETATM    1  C   UNL     1     -11.537  14.610  72.070  1.00  0.00    -0.004 C  
HETATM    2  C   UNL     1     -12.881  14.016  72.465  1.00  0.00    -0.318 C  
HETATM    3  C   UNL     1     -14.010  14.989  72.149  1.00  0.00    -0.610 C  
ENDROOT
BRANCH   2   4
HETATM    4  O   UNL     1     -13.113  12.825  71.688  1.00  0.00    -0.401 OA 
BRANCH   4   5
HETATM    5  C   UNL     1     -12.408  12.697  70.518  1.00  0.00    -0.268 C  
HETATM    6  O   UNL     1     -12.179  13.622  69.750  1.00  0.00    -0.321 OA 
HETATM    7  C   UNL     1     -11.947  11.227  70.335  1.00  0.00    -0.380 C  
HETATM    8  C   UNL     1     -11.038  10.928  71.547  1.00  0.00     2.132 C  
HETATM    9  C   UNL     1     -13.214  10.364  70.282  1.00  0.00     0.110 C  
HETATM   10  O   UNL     1     -11.288  11.163  69.049  1.00  0.00    -0.225 OA 
BRANCH  10  11
HETATM   11  C   UNL     1     -10.307  10.250  68.802  1.00  0.00    -0.195 A  
HETATM   12  C   UNL     1     -10.506   8.965  68.308  1.00  0.00    -0.243 A  
HETATM   13  C   UNL     1      -9.459   8.046  68.288  1.00  0.00    -0.147 A  
HETATM   14  C   UNL     1      -8.182   8.429  68.703  1.00  0.00    -0.123 A  
HETATM   15  C   UNL     1      -7.936   9.769  69.017  1.00  0.00    -0.096 A  
HETATM   16  C   UNL     1      -9.004  10.672  69.079  1.00  0.00    -0.165 A  
BRANCH  14  17
HETATM   17  C   UNL     1      -7.146   7.374  68.805  1.00  0.00    -0.081 C  
HETATM   18  O   UNL     1      -5.962   7.706  68.794  1.00  0.00    -0.029 OA 
BRANCH  17  19
HETATM   19  C   UNL     1      -7.486   5.924  68.842  1.00  0.00    -0.085 A  
HETATM   20  C   UNL     1      -8.112   5.428  69.993  1.00  0.00    -0.085 A  
HETATM   21  C   UNL     1      -8.400   4.066  70.111  1.00  0.00    -0.081 A  
HETATM   22  C   UNL     1      -8.059   3.195  69.079  1.00  0.00    -0.059 A  
HETATM   23  C   UNL     1      -7.432   3.674  67.931  1.00  0.00    -0.062 A  
HETATM   24 CL   UNL     1      -8.389   1.514  69.233  1.00  0.00    -0.064 Cl 
HETATM   25  C   UNL     1      -7.132   5.036  67.816  1.00  0.00    -0.066 A  
ENDBRANCH  17  19
ENDBRANCH  14  17
ENDBRANCH  10  11
ENDBRANCH   4   5
ENDBRANCH   2   4
TORSDOF 5
ENDMDL
MODEL      140
REMARK 921   NORMALIZED FREE ENERGY PREDICTED BY IDOCK:    0.47 KCAL/MOL
REMARK 922        TOTAL FREE ENERGY PREDICTED BY IDOCK:   -0.44 KCAL/MOL
REMARK 923 INTER-LIGAND FREE ENERGY PREDICTED BY IDOCK:   -1.59 KCAL/MOL
REMARK 924 INTRA-LIGAND FREE ENERGY PREDICTED BY IDOCK:    1.15 KCAL/MOL
REMARK 927      BINDING AFFINITY PREDICTED BY RF-SCORE:    0.00 PKD
ROOT
HETATM    1  C   UNL     1     -11.333  14.913  72.365  1.00  0.00     0.036 C  
HETATM    2  C   UNL     1     -12.166  15.086  71.104  1.00  0.00    -0.320 C  
HETATM    3  C   UNL     1     -11.334  15.715  69.994  1.00  0.00    -0.341 C  
ENDROOT
BRANCH   2   4
HETATM    4  O   UNL     1     -12.588  13.790  70.640  1.00  0.00    -0.332 OA 
BRANCH   4   5
HETATM    5  C   UNL     1     -12.151  13.398  69.401  1.00  0.00    -0.269 C  
HETATM    6  O   UNL     1     -12.000  14.159  68.454  1.00  0.00    -0.347 OA 
HETATM    7  C   UNL     1     -11.871  11.872  69.394  1.00  0.00    -0.327 C  
HETATM    8  C   UNL     1     -10.766  11.653  70.450  1.00  0.00     1.441 C  
HETATM    9  C   UNL     1     -13.196  11.174  69.727  1.00  0.00     0.894 C  
HETATM   10  O   UNL     1     -11.496  11.532  68.039  1.00  0.00    -0.276 OA 
BRANCH  10  11
HETATM   11  C   UNL     1     -10.671  10.478  67.778  1.00  0.00    -0.272 A  
HETATM   12  C   UNL     1     -10.209   9.563  68.717  1.00  0.00    -0.215 A  
HETATM   13  C   UNL     1      -9.211   8.651  68.383  1.00  0.00    -0.138 A  
HETATM   14  C   UNL     1      -8.713   8.604  67.080  1.00  0.00    -0.135 A  
HETATM   15  C   UNL     1      -9.309   9.389  66.089  1.00  0.00    -0.262 A  
HETATM   16  C   UNL     1     -10.277  10.334  66.445  1.00  0.00    -0.290 A  
BRANCH  14  17
HETATM   17  C   UNL     1      -7.550   7.722  66.819  1.00  0.00    -0.098 C  
HETATM   18  O   UNL     1      -7.012   7.765  65.714  1.00  0.00    -0.056 OA 
BRANCH  17  19
HETATM   19  C   UNL     1      -7.059   6.734  67.819  1.00  0.00    -0.085 A  
HETATM   20  C   UNL     1      -5.887   7.041  68.523  1.00  0.00    -0.022 A  
HETATM   21  C   UNL     1      -5.344   6.127  69.429  1.00  0.00    -0.012 A  
HETATM   22  C   UNL     1      -5.970   4.899  69.632  1.00  0.00    -0.017 A  
HETATM   23  C   UNL     1      -7.133   4.579  68.935  1.00  0.00    -0.052 A  
HETATM   24 CL   UNL     1      -5.290   3.762  70.727  1.00  0.00    -0.004 Cl 
HETATM   25  C   UNL     1      -7.671   5.488  68.018  1.00  0.00    -0.092 A  
ENDBRANCH  17  19
ENDBRANCH  14  17
ENDBRANCH  10  11
ENDBRANCH   4   5
ENDBRANCH   2   4
TORSDOF 5
ENDMDL
MODEL      141
REMARK 921   NORMALIZED FREE ENERGY PREDICTED BY IDOCK:    2.79 KCAL/MOL
REMARK 922        TOTAL FREE ENERGY PREDICTED BY IDOCK:    2.55 KCAL/MOL
REMARK 923 INTER-LIGAND FREE ENERGY PREDICTED BY IDOCK:    2.03 KCAL/MOL
REMARK 924 INTRA-LIGAND FREE ENERGY PREDICTED BY IDOCK:    0.52 KCAL/MOL
REMARK 927      BINDING AFFINITY PREDICTED BY RF-SCORE:    0.00 PKD
ROOT
HETATM    1  C   UNL     1      -7.718   5.020  72.892  1.00  0.00    -0.097 C  
HETATM    2  C   UNL     1      -6.979   4.889  71.568  1.00  0.00    -0.048 C  
HETATM    3  C   UNL     1      -7.159   3.491  70.990  1.00  0.00    -0.033 C  
ENDROOT
BRANCH   2   4
HETATM    4  O   UNL     1      -7.544   5.818  70.623  1.00  0.00    -0.086 OA 
BRANCH   4   5
HETATM    5  C   UNL     1      -6.672   6.654  69.974  1.00  0.00    -0.049 C  
HETATM    6  O   UNL     1      -5.547   6.330  69.616  1.00  0.00    -0.012 OA 
HETATM    7  C   UNL     1      -7.330   8.042  69.757  1.00  0.00    -0.074 C  
HETATM    8  C   UNL     1      -8.574   7.775  68.881  1.00  0.00    -0.132 C  
HETATM    9  C   UNL     1      -7.659   8.603  71.147  1.00  0.00    -0.120 C  
HETATM   10  O   UNL     1      -6.323   8.881  69.145  1.00  0.00    -0.042 OA 
BRANCH  10  11
HETATM   11  C   UNL     1      -6.666   9.916  68.328  1.00  0.00    -0.060 A  
HETATM   12  C   UNL     1      -6.345  11.252  68.540  1.00  0.00    -0.047 A  
HETATM   13  C   UNL     1      -6.919  12.250  67.756  1.00  0.00    -0.115 A  
HETATM   14  C   UNL     1      -7.772  11.911  66.704  1.00  0.00     0.018 A  
HETATM   15  C   UNL     1      -7.945  10.565  66.368  1.00  0.00    -0.137 A  
HETATM   16  C   UNL     1      -7.402   9.572  67.192  1.00  0.00    -0.088 A  
BRANCH  14  17
HETATM   17  C   UNL     1      -8.473  13.013  66.002  1.00  0.00     1.002 C  
HETATM   18  O   UNL     1      -9.118  12.752  64.989  1.00  0.00     0.585 OA 
BRANCH  17  19
HETATM   19  C   UNL     1      -8.359  14.433  66.436  1.00  0.00     0.508 A  
HETATM   20  C   UNL     1      -8.554  15.431  65.471  1.00  0.00     1.538 A  
HETATM   21  C   UNL     1      -8.400  16.778  65.804  1.00  0.00     0.273 A  
HETATM   22  C   UNL     1      -8.046  17.134  67.103  1.00  0.00    -0.191 A  
HETATM   23  C   UNL     1      -7.845  16.153  68.071  1.00  0.00    -0.150 A  
HETATM   24 CL   UNL     1      -7.831  18.791  67.509  1.00  0.00    -0.245 Cl 
HETATM   25  C   UNL     1      -7.986  14.802  67.737  1.00  0.00    -0.167 A  
ENDBRANCH  17  19
ENDBRANCH  14  17
ENDBRANCH  10  11
ENDBRANCH   4   5
ENDBRANCH   2   4
TORSDOF 5
ENDMDL
MODEL      142
REMARK 921   NORMALIZED FREE ENERGY PREDICTED BY IDOCK:    4.23 KCAL/MOL
REMARK 922        TOTAL FREE ENERGY PREDICTED BY IDOCK:    4.41 KCAL/MOL
REMARK 923 INTER-LIGAND FREE ENERGY PREDICTED BY IDOCK:    3.86 KCAL/MOL
REMARK 924 INTRA-LIGAND FREE ENERGY PREDICTED BY IDOCK:    0.55 KCAL/MOL
REMARK 927      BINDING AFFINITY PREDICTED BY RF-SCORE:    0.00 PKD
ROOT
HETATM    1  C   UNL     1      -9.652  20.018  69.418  1.00  0.00     0.073 C  
HETATM    2  C   UNL     1      -9.422  19.149  68.190  1.00  0.00    -0.342 C  
HETATM    3  C   UNL     1      -8.857  19.980  67.044  1.00  0.00    -0.433 C  
ENDROOT
BRANCH   2   4
HETATM    4  O   UNL     1      -8.445  18.140  68.507  1.00  0.00    -0.299 OA 
BRANCH   4   5
HETATM    5  C   UNL     1      -7.932  17.417  67.461  1.00  0.00    -0.195 C  
HETATM    6  O   UNL     1      -6.828  17.611  66.969  1.00  0.00    -0.156 OA 
HETATM    7  C   UNL     1      -8.946  16.329  67.019  1.00  0.00    -0.206 C  
HETATM    8  C   UNL     1      -9.141  15.424  68.255  1.00  0.00    -0.187 C  
HETATM    9  C   UNL     1     -10.221  17.059  66.578  1.00  0.00    -0.321 C  
HETATM   10  O   UNL     1      -8.365  15.673  65.869  1.00  0.00     0.114 OA 
BRANCH  10  11
HETATM   11  C   UNL     1      -8.659  14.375  65.573  1.00  0.00     2.251 A  
HETATM   12  C   UNL     1      -7.807  13.292  65.758  1.00  0.00     3.297 A  
HETATM   13  C   UNL     1      -8.127  12.042  65.232  1.00  0.00     1.579 A  
HETATM   14  C   UNL     1      -9.343  11.851  64.572  1.00  0.00     0.178 A  
HETATM   15  C   UNL     1     -10.283  12.885  64.552  1.00  0.00    -0.334 A  
HETATM   16  C   UNL     1      -9.931  14.149  65.041  1.00  0.00    -0.216 A  
BRANCH  14  17
HETATM   17  C   UNL     1      -9.564  10.547  63.902  1.00  0.00    -0.309 C  
HETATM   18  O   UNL     1     -10.525  10.428  63.144  1.00  0.00     0.192 OA 
BRANCH  17  19
HETATM   19  C   UNL     1      -8.712   9.357  64.173  1.00  0.00    -0.224 A  
HETATM   20  C   UNL     1      -8.864   8.710  65.408  1.00  0.00    -0.198 A  
HETATM   21  C   UNL     1      -8.050   7.625  65.744  1.00  0.00    -0.126 A  
HETATM   22  C   UNL     1      -7.078   7.186  64.848  1.00  0.00    -0.064 A  
HETATM   23  C   UNL     1      -6.914   7.822  63.620  1.00  0.00    -0.068 A  
HETATM   24 CL   UNL     1      -6.058   5.868  65.270  1.00  0.00    -0.025 Cl 
HETATM   25  C   UNL     1      -7.719   8.916  63.286  1.00  0.00    -0.123 A  
ENDBRANCH  17  19
ENDBRANCH  14  17
ENDBRANCH  10  11
ENDBRANCH   4   5
ENDBRANCH   2   4
TORSDOF 5
ENDMDL
MODEL      143
REMARK 921   NORMALIZED FREE ENERGY PREDICTED BY IDOCK:    4.71 KCAL/MOL
REMARK 922        TOTAL FREE ENERGY PREDICTED BY IDOCK:    5.04 KCAL/MOL
REMARK 923 INTER-LIGAND FREE ENERGY PREDICTED BY IDOCK:    1.58 KCAL/MOL
REMARK 924 INTRA-LIGAND FREE ENERGY PREDICTED BY IDOCK:    3.46 KCAL/MOL
REMARK 927      BINDING AFFINITY PREDICTED BY RF-SCORE:    0.00 PKD
ROOT
HETATM    1  C   UNL     1      -8.396   9.010  71.272  1.00  0.00    -0.180 C  
HETATM    2  C   UNL     1      -9.014   8.419  70.013  1.00  0.00    -0.138 C  
HETATM    3  C   UNL     1      -8.808   6.909  69.974  1.00  0.00    -0.142 C  
ENDROOT
BRANCH   2   4
HETATM    4  O   UNL     1     -10.434   8.656  70.033  1.00  0.00    -0.212 OA 
BRANCH   4   5
HETATM    5  C   UNL     1     -10.905   9.690  69.265  1.00  0.00    -0.205 C  
HETATM    6  O   UNL     1     -12.078  10.036  69.225  1.00  0.00     0.140 OA 
HETATM    7  C   UNL     1      -9.737  10.344  68.482  1.00  0.00    -0.168 C  
HETATM    8  C   UNL     1      -8.765  10.872  69.560  1.00  0.00     0.231 C  
HETATM    9  C   UNL     1      -9.135   9.256  67.584  1.00  0.00    -0.136 C  
HETATM   10  O   UNL     1     -10.328  11.363  67.643  1.00  0.00    -0.177 OA 
BRANCH  10  11
HETATM   11  C   UNL     1      -9.622  12.468  67.269  1.00  0.00    -0.205 A  
HETATM   12  C   UNL     1      -8.333  12.463  66.747  1.00  0.00    -0.060 A  
HETATM   13  C   UNL     1      -7.629  13.656  66.593  1.00  0.00     1.017 A  
HETATM   14  C   UNL     1      -8.240  14.874  66.898  1.00  0.00    -0.178 A  
HETATM   15  C   UNL     1      -9.595  14.896  67.238  1.00  0.00    -0.216 A  
HETATM   16  C   UNL     1     -10.278  13.690  67.436  1.00  0.00    -0.241 A  
BRANCH  14  17
HETATM   17  C   UNL     1      -7.398  16.094  66.860  1.00  0.00    -0.220 C  
HETATM   18  O   UNL     1      -6.860  16.408  65.800  1.00  0.00     0.739 OA 
BRANCH  17  19
HETATM   19  C   UNL     1      -7.119  16.907  68.076  1.00  0.00    -0.163 A  
HETATM   20  C   UNL     1      -5.784  17.044  68.481  1.00  0.00    -0.139 A  
HETATM   21  C   UNL     1      -5.466  17.744  69.647  1.00  0.00    -0.208 A  
HETATM   22  C   UNL     1      -6.482  18.307  70.415  1.00  0.00     0.594 A  
HETATM   23  C   UNL     1      -7.813  18.175  70.027  1.00  0.00     1.664 A  
HETATM   24 CL   UNL     1      -6.094  19.146  71.865  1.00  0.00     0.365 Cl 
HETATM   25  C   UNL     1      -8.135  17.464  68.866  1.00  0.00    -0.183 A  
ENDBRANCH  17  19
ENDBRANCH  14  17
ENDBRANCH  10  11
ENDBRANCH   4   5
ENDBRANCH   2   4
TORSDOF 5
ENDMDL
MODEL      144
REMARK 921   NORMALIZED FREE ENERGY PREDICTED BY IDOCK:    5.32 KCAL/MOL
REMARK 922        TOTAL FREE ENERGY PREDICTED BY IDOCK:    5.82 KCAL/MOL
REMARK 923 INTER-LIGAND FREE ENERGY PREDICTED BY IDOCK:    6.01 KCAL/MOL
REMARK 924 INTRA-LIGAND FREE ENERGY PREDICTED BY IDOCK:   -0.19 KCAL/MOL
REMARK 927      BINDING AFFINITY PREDICTED BY RF-SCORE:    0.00 PKD
ROOT
HETATM    1  C   UNL     1      -7.719   5.021  72.903  1.00  0.00    -0.097 C  
HETATM    2  C   UNL     1      -6.992   5.082  71.568  1.00  0.00    -0.053 C  
HETATM    3  C   UNL     1      -7.154   3.770  70.809  1.00  0.00    -0.033 C  
ENDROOT
BRANCH   2   4
HETATM    4  O   UNL     1      -7.583   6.118  70.760  1.00  0.00    -0.092 OA 
BRANCH   4   5
HETATM    5  C   UNL     1      -6.743   7.086  70.274  1.00  0.00    -0.052 C  
HETATM    6  O   UNL     1      -5.621   6.864  69.837  1.00  0.00    -0.018 OA 
HETATM    7  C   UNL     1      -7.430   8.475  70.351  1.00  0.00    -0.069 C  
HETATM    8  C   UNL     1      -8.689   8.359  69.465  1.00  0.00    -0.137 C  
HETATM    9  C   UNL     1      -7.735   8.740  71.831  1.00  0.00    -0.058 C  
HETATM   10  O   UNL     1      -6.452   9.440  69.899  1.00  0.00    -0.041 OA 
BRANCH  10  11
HETATM   11  C   UNL     1      -6.833  10.610  69.312  1.00  0.00    -0.086 A  
HETATM   12  C   UNL     1      -7.641  11.579  69.896  1.00  0.00     0.881 A  
HETATM   13  C   UNL     1      -8.137  12.636  69.135  1.00  0.00     0.498 A  
HETATM   14  C   UNL     1      -7.770  12.767  67.795  1.00  0.00    -0.152 A  
HETATM   15  C   UNL     1      -6.809  11.906  67.259  1.00  0.00    -0.142 A  
HETATM   16  C   UNL     1      -6.354  10.820  68.017  1.00  0.00    -0.058 A  
BRANCH  14  17
HETATM   17  C   UNL     1      -8.445  13.819  66.996  1.00  0.00    -0.133 C  
HETATM   18  O   UNL     1      -8.027  14.061  65.865  1.00  0.00     1.809 OA 
BRANCH  17  19
HETATM   19  C   UNL     1      -9.559  14.643  67.542  1.00  0.00    -0.206 A  
HETATM   20  C   UNL     1      -9.760  15.917  66.995  1.00  0.00    -0.235 A  
HETATM   21  C   UNL     1     -10.750  16.760  67.507  1.00  0.00    -0.275 A  
HETATM   22  C   UNL     1     -11.540  16.332  68.571  1.00  0.00    -0.188 A  
HETATM   23  C   UNL     1     -11.348  15.069  69.127  1.00  0.00    -0.311 A  
HETATM   24 CL   UNL     1     -12.741  17.377  69.221  1.00  0.00     5.500 Cl 
HETATM   25  C   UNL     1     -10.349  14.229  68.624  1.00  0.00    -0.246 A  
ENDBRANCH  17  19
ENDBRANCH  14  17
ENDBRANCH  10  11
ENDBRANCH   4   5
ENDBRANCH   2   4
TORSDOF 5
ENDMDL
MODEL      145
REMARK 921   NORMALIZED FREE ENERGY PREDICTED BY IDOCK:    5.64 KCAL/MOL
REMARK 922        TOTAL FREE ENERGY PREDICTED BY IDOCK:    6.24 KCAL/MOL
REMARK 923 INTER-LIGAND FREE ENERGY PREDICTED BY IDOCK:   -5.02 KCAL/MOL
REMARK 924 INTRA-LIGAND FREE ENERGY PREDICTED BY IDOCK:   11.25 KCAL/MOL
REMARK 927      BINDING AFFINITY PREDICTED BY RF-SCORE:    0.00 PKD
ROOT
HETATM    1  C   UNL     1      -9.767   5.968  71.503  1.00  0.00    -0.186 C  
HETATM    2  C   UNL     1     -10.501   5.881  72.833  1.00  0.00    -0.222 C  
HETATM    3  C   UNL     1      -9.578   6.269  73.981  1.00  0.00    -0.198 C  
ENDROOT
BRANCH   2   4
HETATM    4  O   UNL     1     -11.594   6.820  72.827  1.00  0.00    -0.191 OA 
BRANCH   4   5
HETATM    5  C   UNL     1     -11.827   7.498  71.658  1.00  0.00    -0.291 C  
HETATM    6  O   UNL     1     -12.941   7.687  71.186  1.00  0.00    -0.267 OA 
HETATM    7  C   UNL     1     -10.487   7.988  71.051  1.00  0.00    -0.203 C  
HETATM    8  C   UNL     1      -9.878   8.933  72.110  1.00  0.00    -0.252 C  
HETATM    9  C   UNL     1      -9.639   6.739  70.773  1.00  0.00    -0.173 C  
HETATM   10  O   UNL     1     -10.815   8.615  69.790  1.00  0.00    -0.232 OA 
BRANCH  10  11
HETATM   11  C   UNL     1     -10.040   9.611  69.274  1.00  0.00    -0.193 A  
HETATM   12  C   UNL     1      -8.674   9.525  69.028  1.00  0.00    -0.142 A  
HETATM   13  C   UNL     1      -7.943  10.663  68.694  1.00  0.00    -0.128 A  
HETATM   14  C   UNL     1      -8.590  11.890  68.538  1.00  0.00    -0.110 A  
HETATM   15  C   UNL     1      -9.986  11.942  68.595  1.00  0.00    -0.163 A  
HETATM   16  C   UNL     1     -10.704  10.803  68.977  1.00  0.00    -0.265 A  
BRANCH  14  17
HETATM   17  C   UNL     1      -7.746  13.092  68.333  1.00  0.00    -0.137 C  
HETATM   18  O   UNL     1      -6.529  12.950  68.238  1.00  0.00    -0.071 OA 
BRANCH  17  19
HETATM   19  C   UNL     1      -8.312  14.469  68.317  1.00  0.00    -0.152 A  
HETATM   20  C   UNL     1      -9.553  14.675  68.935  1.00  0.00    -0.184 A  
HETATM   21  C   UNL     1     -10.162  15.931  68.900  1.00  0.00    -0.226 A  
HETATM   22  C   UNL     1      -9.535  16.987  68.242  1.00  0.00    -0.265 A  
HETATM   23  C   UNL     1      -8.303  16.795  67.619  1.00  0.00    -0.191 A  
HETATM   24 CL   UNL     1     -10.295  18.527  68.174  1.00  0.00    -0.396 Cl 
HETATM   25  C   UNL     1      -7.697  15.534  67.643  1.00  0.00    -0.178 A  
ENDBRANCH  17  19
ENDBRANCH  14  17
ENDBRANCH  10  11
ENDBRANCH   4   5
ENDBRANCH   2   4
TORSDOF 5
ENDMDL
MODEL      146
REMARK 921   NORMALIZED FREE ENERGY PREDICTED BY IDOCK:    5.97 KCAL/MOL
REMARK 922        TOTAL FREE ENERGY PREDICTED BY IDOCK:    6.67 KCAL/MOL
REMARK 923 INTER-LIGAND FREE ENERGY PREDICTED BY IDOCK:    2.62 KCAL/MOL
REMARK 924 INTRA-LIGAND FREE ENERGY PREDICTED BY IDOCK:    4.05 KCAL/MOL
REMARK 927      BINDING AFFINITY PREDICTED BY RF-SCORE:    0.00 PKD
ROOT
HETATM    1  C   UNL     1     -10.207  14.529  64.054  1.00  0.00     1.880 C  
HETATM    2  C   UNL     1     -10.287  13.010  64.063  1.00  0.00    -0.249 C  
HETATM    3  C   UNL     1      -9.058  12.413  64.738  1.00  0.00     0.794 C  
ENDROOT
BRANCH   2   4
HETATM    4  O   UNL     1     -11.435  12.606  64.833  1.00  0.00    -0.303 OA 
BRANCH   4   5
HETATM    5  C   UNL     1     -11.569  11.267  65.098  1.00  0.00     0.296 C  
HETATM    6  O   UNL     1     -12.132  10.474  64.356  1.00  0.00     2.524 OA 
HETATM    7  C   UNL     1     -10.896  10.924  66.453  1.00  0.00    -0.145 C  
HETATM    8  C   UNL     1      -9.407  11.293  66.277  1.00  0.00    -0.226 C  
HETATM    9  C   UNL     1     -11.615  11.747  67.530  1.00  0.00    -0.361 C  
HETATM   10  O   UNL     1     -11.153   9.521  66.693  1.00  0.00     0.128 OA 
BRANCH  10  11
HETATM   11  C   UNL     1     -10.296   8.762  67.434  1.00  0.00    -0.280 A  
HETATM   12  C   UNL     1      -9.041   9.164  67.878  1.00  0.00    -0.134 A  
HETATM   13  C   UNL     1      -8.165   8.243  68.449  1.00  0.00    -0.132 A  
HETATM   14  C   UNL     1      -8.568   6.920  68.641  1.00  0.00    -0.123 A  
HETATM   15  C   UNL     1      -9.891   6.560  68.372  1.00  0.00    -0.137 A  
HETATM   16  C   UNL     1     -10.747   7.480  67.755  1.00  0.00    -0.233 A  
BRANCH  14  17
HETATM   17  C   UNL     1      -7.548   5.951  69.109  1.00  0.00    -0.090 C  
HETATM   18  O   UNL     1      -6.594   5.697  68.376  1.00  0.00    -0.048 OA 
BRANCH  17  19
HETATM   19  C   UNL     1      -7.678   5.219  70.399  1.00  0.00    -0.076 A  
HETATM   20  C   UNL     1      -8.568   5.727  71.354  1.00  0.00    -0.129 A  
HETATM   21  C   UNL     1      -8.688   5.119  72.606  1.00  0.00    -0.123 A  
HETATM   22  C   UNL     1      -7.914   4.001  72.909  1.00  0.00    -0.084 A  
HETATM   23  C   UNL     1      -7.022   3.488  71.970  1.00  0.00    -0.034 A  
HETATM   24 CL   UNL     1      -8.041   3.266  74.458  1.00  0.00    -0.068 Cl 
HETATM   25  C   UNL     1      -6.892   4.103  70.721  1.00  0.00    -0.033 A  
ENDBRANCH  17  19
ENDBRANCH  14  17
ENDBRANCH  10  11
ENDBRANCH   4   5
ENDBRANCH   2   4
TORSDOF 5
ENDMDL
MODEL      147
REMARK 921   NORMALIZED FREE ENERGY PREDICTED BY IDOCK:    6.88 KCAL/MOL
REMARK 922        TOTAL FREE ENERGY PREDICTED BY IDOCK:    7.83 KCAL/MOL
REMARK 923 INTER-LIGAND FREE ENERGY PREDICTED BY IDOCK:   -4.25 KCAL/MOL
REMARK 924 INTRA-LIGAND FREE ENERGY PREDICTED BY IDOCK:   12.08 KCAL/MOL
REMARK 927      BINDING AFFINITY PREDICTED BY RF-SCORE:    0.00 PKD
ROOT
HETATM    1  C   UNL     1     -11.004   9.211  71.674  1.00  0.00    -0.445 C  
HETATM    2  C   UNL     1     -12.315   8.836  72.350  1.00  0.00    -0.344 C  
HETATM    3  C   UNL     1     -13.498   9.407  71.578  1.00  0.00    -0.445 C  
ENDROOT
BRANCH   2   4
HETATM    4  O   UNL     1     -12.452   7.402  72.344  1.00  0.00    -0.145 OA 
BRANCH   4   5
HETATM    5  C   UNL     1     -11.332   6.670  72.044  1.00  0.00    -0.280 C  
HETATM    6  O   UNL     1     -11.085   5.569  72.518  1.00  0.00    -0.247 OA 
HETATM    7  C   UNL     1     -10.454   7.437  71.021  1.00  0.00    -0.215 C  
HETATM    8  C   UNL     1     -11.338   7.607  69.767  1.00  0.00     0.048 C  
HETATM    9  C   UNL     1     -10.053   8.763  71.682  1.00  0.00    -0.390 C  
HETATM   10  O   UNL     1      -9.264   6.639  70.825  1.00  0.00    -0.154 OA 
BRANCH  10  11
HETATM   11  C   UNL     1      -8.571   6.680  69.651  1.00  0.00    -0.133 A  
HETATM   12  C   UNL     1      -7.649   7.658  69.293  1.00  0.00    -0.096 A  
HETATM   13  C   UNL     1      -7.154   7.719  67.992  1.00  0.00    -0.085 A  
HETATM   14  C   UNL     1      -7.529   6.755  67.054  1.00  0.00    -0.087 A  
HETATM   15  C   UNL     1      -8.302   5.664  67.462  1.00  0.00    -0.100 A  
HETATM   16  C   UNL     1      -8.832   5.639  68.757  1.00  0.00    -0.108 A  
BRANCH  14  17
HETATM   17  C   UNL     1      -7.095   6.955  65.651  1.00  0.00    -0.068 C  
HETATM   18  O   UNL     1      -6.314   6.146  65.153  1.00  0.00    -0.036 OA 
BRANCH  17  19
HETATM   19  C   UNL     1      -7.509   8.140  64.849  1.00  0.00    -0.092 A  
HETATM   20  C   UNL     1      -8.654   8.838  65.256  1.00  0.00    -0.212 A  
HETATM   21  C   UNL     1      -9.126   9.921  64.510  1.00  0.00    -0.296 A  
HETATM   22  C   UNL     1      -8.457  10.307  63.351  1.00  0.00    -0.185 A  
HETATM   23  C   UNL     1      -7.320   9.619  62.933  1.00  0.00    -0.107 A  
HETATM   24 CL   UNL     1      -9.051  11.622  62.417  1.00  0.00     0.061 Cl 
HETATM   25  C   UNL     1      -6.853   8.527  63.672  1.00  0.00    -0.087 A  
ENDBRANCH  17  19
ENDBRANCH  14  17
ENDBRANCH  10  11
ENDBRANCH   4   5
ENDBRANCH   2   4
TORSDOF 5
ENDMDL
MODEL      148
REMARK 921   NORMALIZED FREE ENERGY PREDICTED BY IDOCK:    9.94 KCAL/MOL
REMARK 922        TOTAL FREE ENERGY PREDICTED BY IDOCK:   11.79 KCAL/MOL
REMARK 923 INTER-LIGAND FREE ENERGY PREDICTED BY IDOCK:   -0.75 KCAL/MOL
REMARK 924 INTRA-LIGAND FREE ENERGY PREDICTED BY IDOCK:   12.54 KCAL/MOL
REMARK 927      BINDING AFFINITY PREDICTED BY RF-SCORE:    0.00 PKD
ROOT
HETATM    1  C   UNL     1     -11.633  14.976  66.784  1.00  0.00    -0.209 C  
HETATM    2  C   UNL     1     -10.998  15.452  65.485  1.00  0.00    -0.343 C  
HETATM    3  C   UNL     1      -9.623  14.823  65.300  1.00  0.00     0.048 C  
ENDROOT
BRANCH   2   4
HETATM    4  O   UNL     1     -11.816  15.023  64.380  1.00  0.00    -0.413 OA 
BRANCH   4   5
HETATM    5  C   UNL     1     -11.652  13.732  63.946  1.00  0.00    -0.195 C  
HETATM    6  O   UNL     1     -11.826  13.370  62.790  1.00  0.00     0.171 OA 
HETATM    7  C   UNL     1     -11.208  12.828  65.126  1.00  0.00    -0.292 C  
HETATM    8  C   UNL     1      -9.861  13.411  65.605  1.00  0.00    -0.180 C  
HETATM    9  C   UNL     1     -12.321  12.890  66.180  1.00  0.00    -0.266 C  
HETATM   10  O   UNL     1     -11.138  11.481  64.603  1.00  0.00    -0.306 OA 
BRANCH  10  11
HETATM   11  C   UNL     1     -10.287  10.560  65.137  1.00  0.00    -0.240 A  
HETATM   12  C   UNL     1     -10.544   9.199  65.259  1.00  0.00     2.185 A  
HETATM   13  C   UNL     1      -9.695   8.383  66.004  1.00  0.00    -0.146 A  
HETATM   14  C   UNL     1      -8.539   8.915  66.579  1.00  0.00    -0.133 A  
HETATM   15  C   UNL     1      -8.178  10.236  66.298  1.00  0.00    -0.131 A  
HETATM   16  C   UNL     1      -9.063  11.058  65.589  1.00  0.00    -0.223 A  
BRANCH  14  17
HETATM   17  C   UNL     1      -7.755   8.040  67.484  1.00  0.00    -0.106 C  
HETATM   18  O   UNL     1      -7.264   7.009  67.029  1.00  0.00    -0.076 OA 
BRANCH  17  19
HETATM   19  C   UNL     1      -7.608   8.326  68.938  1.00  0.00    -0.093 A  
HETATM   20  C   UNL     1      -7.103   7.308  69.758  1.00  0.00    -0.072 A  
HETATM   21  C   UNL     1      -6.999   7.496  71.138  1.00  0.00    -0.054 A  
HETATM   22  C   UNL     1      -7.404   8.702  71.704  1.00  0.00    -0.093 A  
HETATM   23  C   UNL     1      -7.913   9.721  70.902  1.00  0.00     0.337 A  
HETATM   24 CL   UNL     1      -7.302   8.926  73.406  1.00  0.00     0.193 Cl 
HETATM   25  C   UNL     1      -8.029   9.530  69.521  1.00  0.00    -0.110 A  
ENDBRANCH  17  19
ENDBRANCH  14  17
ENDBRANCH  10  11
ENDBRANCH   4   5
ENDBRANCH   2   4
TORSDOF 5
ENDMDL
MODEL      149
REMARK 921   NORMALIZED FREE ENERGY PREDICTED BY IDOCK:   15.40 KCAL/MOL
REMARK 922        TOTAL FREE ENERGY PREDICTED BY IDOCK:   18.85 KCAL/MOL
REMARK 923 INTER-LIGAND FREE ENERGY PREDICTED BY IDOCK:   18.08 KCAL/MOL
REMARK 924 INTRA-LIGAND FREE ENERGY PREDICTED BY IDOCK:    0.78 KCAL/MOL
REMARK 927      BINDING AFFINITY PREDICTED BY RF-SCORE:    0.00 PKD
ROOT
HETATM    1  C   UNL     1      -9.144  15.597  72.431  1.00  0.00     8.183 C  
HETATM    2  C   UNL     1      -8.849  15.450  70.945  1.00  0.00     2.445 C  
HETATM    3  C   UNL     1      -8.440  16.790  70.345  1.00  0.00     3.038 C  
ENDROOT
BRANCH   2   4
HETATM    4  O   UNL     1      -7.739  14.549  70.775  1.00  0.00     1.125 OA 
BRANCH   4   5
HETATM    5  C   UNL     1      -7.335  14.292  69.490  1.00  0.00     0.040 C  
HETATM    6  O   UNL     1      -6.564  15.003  68.858  1.00  0.00    -0.091 OA 
HETATM    7  C   UNL     1      -7.986  12.980  68.980  1.00  0.00     0.297 C  
HETATM    8  C   UNL     1      -7.482  11.875  69.934  1.00  0.00     1.036 C  
HETATM    9  C   UNL     1      -9.505  13.189  69.021  1.00  0.00     0.393 C  
HETATM   10  O   UNL     1      -7.575  12.829  67.602  1.00  0.00    -0.126 OA 
BRANCH  10  11
HETATM   11  C   UNL     1      -7.469  11.597  67.027  1.00  0.00    -0.150 A  
HETATM   12  C   UNL     1      -6.692  11.290  65.915  1.00  0.00     0.215 A  
HETATM   13  C   UNL     1      -6.816  10.053  65.287  1.00  0.00    -0.128 A  
HETATM   14  C   UNL     1      -7.674   9.084  65.811  1.00  0.00    -0.091 A  
HETATM   15  C   UNL     1      -8.310   9.319  67.033  1.00  0.00    -0.120 A  
HETATM   16  C   UNL     1      -8.215  10.582  67.630  1.00  0.00    -0.111 A  
BRANCH  14  17
HETATM   17  C   UNL     1      -7.881   7.847  65.020  1.00  0.00    -0.120 C  
HETATM   18  O   UNL     1      -7.547   7.840  63.837  1.00  0.00    -0.103 OA 
BRANCH  17  19
HETATM   19  C   UNL     1      -8.549   6.642  65.585  1.00  0.00    -0.130 A  
HETATM   20  C   UNL     1      -7.777   5.770  66.365  1.00  0.00    -0.099 A  
HETATM   21  C   UNL     1      -8.332   4.593  66.871  1.00  0.00    -0.106 A  
HETATM   22  C   UNL     1      -9.661   4.280  66.596  1.00  0.00    -0.219 A  
HETATM   23  C   UNL     1     -10.439   5.136  65.818  1.00  0.00    -0.088 A  
HETATM   24 CL   UNL     1     -10.340   2.818  67.196  1.00  0.00     1.854 Cl 
HETATM   25  C   UNL     1      -9.881   6.309  65.300  1.00  0.00     1.131 A  
ENDBRANCH  17  19
ENDBRANCH  14  17
ENDBRANCH  10  11
ENDBRANCH   4   5
ENDBRANCH   2   4
TORSDOF 5
ENDMDL
MODEL      150
REMARK 921   NORMALIZED FREE ENERGY PREDICTED BY IDOCK:   17.50 KCAL/MOL
REMARK 922        TOTAL FREE ENERGY PREDICTED BY IDOCK:   21.56 KCAL/MOL
REMARK 923 INTER-LIGAND FREE ENERGY PREDICTED BY IDOCK:   21.70 KCAL/MOL
REMARK 924 INTRA-LIGAND FREE ENERGY PREDICTED BY IDOCK:   -0.14 KCAL/MOL
REMARK 927      BINDING AFFINITY PREDICTED BY RF-SCORE:    0.00 PKD
ROOT
HETATM    1  C   UNL     1      -9.120   4.253  72.454  1.00  0.00    -0.141 C  
HETATM    2  C   UNL     1      -8.227   4.488  71.245  1.00  0.00    -0.095 C  
HETATM    3  C   UNL     1      -8.455   3.409  70.193  1.00  0.00    -0.094 C  
ENDROOT
BRANCH   2   4
HETATM    4  O   UNL     1      -8.574   5.750  70.645  1.00  0.00    -0.128 OA 
BRANCH   4   5
HETATM    5  C   UNL     1      -7.576   6.684  70.534  1.00  0.00    -0.099 C  
HETATM    6  O   UNL     1      -6.400   6.465  70.794  1.00  0.00    -0.038 OA 
HETATM    7  C   UNL     1      -8.158   8.027  70.023  1.00  0.00    -0.116 C  
HETATM    8  C   UNL     1      -8.759   7.713  68.635  1.00  0.00    -0.128 C  
HETATM    9  C   UNL     1      -9.194   8.487  71.057  1.00  0.00    -0.227 C  
HETATM   10  O   UNL     1      -7.062   8.971  70.012  1.00  0.00    -0.048 OA 
BRANCH  10  11
HETATM   11  C   UNL     1      -7.040  10.019  69.141  1.00  0.00    -0.069 A  
HETATM   12  C   UNL     1      -8.000  11.022  69.061  1.00  0.00    -0.114 A  
HETATM   13  C   UNL     1      -7.989  11.927  68.002  1.00  0.00    -0.147 A  
HETATM   14  C   UNL     1      -6.971  11.875  67.047  1.00  0.00    -0.116 A  
HETATM   15  C   UNL     1      -5.902  10.994  67.230  1.00  0.00    -0.053 A  
HETATM   16  C   UNL     1      -5.948  10.059  68.271  1.00  0.00    -0.042 A  
BRANCH  14  17
HETATM   17  C   UNL     1      -7.093  12.760  65.863  1.00  0.00     3.488 C  
HETATM   18  O   UNL     1      -6.153  12.821  65.072  1.00  0.00     6.243 OA 
BRANCH  17  19
HETATM   19  C   UNL     1      -8.278  13.634  65.640  1.00  0.00     2.918 A  
HETATM   20  C   UNL     1      -8.106  14.781  64.853  1.00  0.00     7.879 A  
HETATM   21  C   UNL     1      -9.165  15.671  64.658  1.00  0.00     3.279 A  
HETATM   22  C   UNL     1     -10.399  15.419  65.253  1.00  0.00    -0.390 A  
HETATM   23  C   UNL     1     -10.582  14.285  66.041  1.00  0.00    -0.302 A  
HETATM   24 CL   UNL     1     -11.697  16.526  65.036  1.00  0.00     0.433 Cl 
HETATM   25  C   UNL     1      -9.519  13.399  66.247  1.00  0.00    -0.196 A  
ENDBRANCH  17  19
ENDBRANCH  14  17
ENDBRANCH  10  11
ENDBRANCH   4   5
ENDBRANCH   2   4
TORSDOF 5
ENDMDL
MODEL      151
REMARK 921   NORMALIZED FREE ENERGY PREDICTED BY IDOCK:   19.89 KCAL/MOL
REMARK 922        TOTAL FREE ENERGY PREDICTED BY IDOCK:   24.65 KCAL/MOL
REMARK 923 INTER-LIGAND FREE ENERGY PREDICTED BY IDOCK:   23.85 KCAL/MOL
REMARK 924 INTRA-LIGAND FREE ENERGY PREDICTED BY IDOCK:    0.80 KCAL/MOL
REMARK 927      BINDING AFFINITY PREDICTED BY RF-SCORE:    0.00 PKD
ROOT
HETATM    1  C   UNL     1      -9.094  15.720  72.753  1.00  0.00    10.352 C  
HETATM    2  C   UNL     1      -9.083  15.659  71.232  1.00  0.00     3.641 C  
HETATM    3  C   UNL     1      -8.740  17.023  70.644  1.00  0.00     4.437 C  
ENDROOT
BRANCH   2   4
HETATM    4  O   UNL     1      -8.057  14.741  70.808  1.00  0.00     1.257 OA 
BRANCH   4   5
HETATM    5  C   UNL     1      -8.045  14.389  69.483  1.00  0.00     0.274 C  
HETATM    6  O   UNL     1      -7.495  15.041  68.605  1.00  0.00    -0.110 OA 
HETATM    7  C   UNL     1      -8.809  13.055  69.280  1.00  0.00     0.959 C  
HETATM    8  C   UNL     1      -8.044  12.011  70.123  1.00  0.00     3.038 C  
HETATM    9  C   UNL     1     -10.252  13.291  69.747  1.00  0.00     1.177 C  
HETATM   10  O   UNL     1      -8.818  12.801  67.856  1.00  0.00    -0.168 OA 
BRANCH  10  11
HETATM   11  C   UNL     1      -8.878  11.531  67.365  1.00  0.00    -0.157 A  
HETATM   12  C   UNL     1      -9.610  11.130  66.253  1.00  0.00    -0.234 A  
HETATM   13  C   UNL     1      -9.767   9.776  65.961  1.00  0.00    -0.319 A  
HETATM   14  C   UNL     1      -9.132   8.812  66.746  1.00  0.00    -0.180 A  
HETATM   15  C   UNL     1      -8.243   9.218  67.745  1.00  0.00    -0.115 A  
HETATM   16  C   UNL     1      -8.131  10.577  68.060  1.00  0.00    -0.111 A  
BRANCH  14  17
HETATM   17  C   UNL     1      -9.455   7.389  66.484  1.00  0.00    -0.172 C  
HETATM   18  O   UNL     1     -10.499   7.120  65.893  1.00  0.00     0.787 OA 
BRANCH  17  19
HETATM   19  C   UNL     1      -8.601   6.274  66.978  1.00  0.00    -0.104 A  
HETATM   20  C   UNL     1      -7.461   5.942  66.233  1.00  0.00    -0.086 A  
HETATM   21  C   UNL     1      -6.654   4.867  66.612  1.00  0.00    -0.046 A  
HETATM   22  C   UNL     1      -6.987   4.116  67.737  1.00  0.00    -0.056 A  
HETATM   23  C   UNL     1      -8.119   4.432  68.485  1.00  0.00    -0.081 A  
HETATM   24 CL   UNL     1      -6.010   2.775  68.191  1.00  0.00    -0.023 Cl 
HETATM   25  C   UNL     1      -8.935   5.501  68.099  1.00  0.00    -0.108 A  
ENDBRANCH  17  19
ENDBRANCH  14  17
ENDBRANCH  10  11
ENDBRANCH   4   5
ENDBRANCH   2   4
TORSDOF 5
ENDMDL
MODEL      152
REMARK 921   NORMALIZED FREE ENERGY PREDICTED BY IDOCK:   35.35 KCAL/MOL
REMARK 922        TOTAL FREE ENERGY PREDICTED BY IDOCK:   44.63 KCAL/MOL
REMARK 923 INTER-LIGAND FREE ENERGY PREDICTED BY IDOCK:   36.34 KCAL/MOL
REMARK 924 INTRA-LIGAND FREE ENERGY PREDICTED BY IDOCK:    8.29 KCAL/MOL
REMARK 927      BINDING AFFINITY PREDICTED BY RF-SCORE:    0.00 PKD
ROOT
HETATM    1  C   UNL     1     -10.394   6.379  72.237  1.00  0.00    -0.215 C  
HETATM    2  C   UNL     1     -11.831   6.178  72.696  1.00  0.00    -0.093 C  
HETATM    3  C   UNL     1     -12.006   6.659  74.132  1.00  0.00     4.445 C  
ENDROOT
BRANCH   2   4
HETATM    4  O   UNL     1     -12.702   6.974  71.870  1.00  0.00    -0.329 OA 
BRANCH   4   5
HETATM    5  C   UNL     1     -12.124   7.659  70.833  1.00  0.00    -0.202 C  
HETATM    6  O   UNL     1     -12.466   7.550  69.663  1.00  0.00     1.098 OA 
HETATM    7  C   UNL     1     -11.001   8.586  71.368  1.00  0.00    -0.264 C  
HETATM    8  C   UNL     1     -11.703   9.563  72.336  1.00  0.00     0.457 C  
HETATM    9  C   UNL     1      -9.961   7.682  72.045  1.00  0.00    -0.220 C  
HETATM   10  O   UNL     1     -10.395   9.204  70.210  1.00  0.00    -0.190 OA 
BRANCH  10  11
HETATM   11  C   UNL     1      -9.807  10.432  70.291  1.00  0.00     0.351 A  
HETATM   12  C   UNL     1      -8.933  10.843  71.292  1.00  0.00     6.295 A  
HETATM   13  C   UNL     1      -8.554  12.180  71.392  1.00  0.00    13.644 A  
HETATM   14  C   UNL     1      -8.996  13.107  70.446  1.00  0.00     5.288 A  
HETATM   15  C   UNL     1      -9.715  12.661  69.334  1.00  0.00     0.983 A  
HETATM   16  C   UNL     1     -10.131  11.326  69.268  1.00  0.00    -0.018 A  
BRANCH  14  17
HETATM   17  C   UNL     1      -8.688  14.537  70.687  1.00  0.00     2.532 C  
HETATM   18  O   UNL     1      -9.065  15.053  71.737  1.00  0.00     3.201 OA 
BRANCH  17  19
HETATM   19  C   UNL     1      -8.006  15.387  69.672  1.00  0.00    -0.138 A  
HETATM   20  C   UNL     1      -8.142  15.032  68.323  1.00  0.00    -0.133 A  
HETATM   21  C   UNL     1      -7.477  15.756  67.330  1.00  0.00    -0.252 A  
HETATM   22  C   UNL     1      -6.670  16.835  67.683  1.00  0.00    -0.142 A  
HETATM   23  C   UNL     1      -6.523  17.195  69.021  1.00  0.00    -0.208 A  
HETATM   24 CL   UNL     1      -5.829  17.710  66.465  1.00  0.00    -0.212 Cl 
HETATM   25  C   UNL     1      -7.178  16.465  70.017  1.00  0.00     0.661 A  
ENDBRANCH  17  19
ENDBRANCH  14  17
ENDBRANCH  10  11
ENDBRANCH   4   5
ENDBRANCH   2   4
TORSDOF 5
ENDMDL
MODEL      153
REMARK 921   NORMALIZED FREE ENERGY PREDICTED BY IDOCK:   45.80 KCAL/MOL
REMARK 922        TOTAL FREE ENERGY PREDICTED BY IDOCK:   58.13 KCAL/MOL
REMARK 923 INTER-LIGAND FREE ENERGY PREDICTED BY IDOCK:   53.99 KCAL/MOL
REMARK 924 INTRA-LIGAND FREE ENERGY PREDICTED BY IDOCK:    4.14 KCAL/MOL
REMARK 927      BINDING AFFINITY PREDICTED BY RF-SCORE:    0.00 PKD
ROOT
HETATM    1  C   UNL     1     -10.470   8.308  70.425  1.00  0.00    -0.223 C  
HETATM    2  C   UNL     1      -9.061   8.861  70.275  1.00  0.00    -0.181 C  
HETATM    3  C   UNL     1      -8.140   8.278  71.340  1.00  0.00    -0.148 C  
ENDROOT
BRANCH   2   4
HETATM    4  O   UNL     1      -8.537   8.464  68.993  1.00  0.00    -0.129 OA 
BRANCH   4   5
HETATM    5  C   UNL     1      -8.443   9.435  68.029  1.00  0.00    -0.120 C  
HETATM    6  O   UNL     1      -8.220   9.209  66.847  1.00  0.00    -0.114 OA 
HETATM    7  C   UNL     1      -8.673  10.833  68.660  1.00  0.00    -0.152 C  
HETATM    8  C   UNL     1     -10.101  10.790  69.244  1.00  0.00    -0.200 C  
HETATM    9  C   UNL     1      -7.577  11.033  69.715  1.00  0.00     0.194 C  
HETATM   10  O   UNL     1      -8.477  11.797  67.599  1.00  0.00    -0.137 OA 
BRANCH  10  11
HETATM   11  C   UNL     1      -9.114  13.002  67.613  1.00  0.00    -0.198 A  
HETATM   12  C   UNL     1      -9.106  13.930  66.578  1.00  0.00    -0.165 A  
HETATM   13  C   UNL     1      -9.615  15.212  66.775  1.00  0.00    -0.260 A  
HETATM   14  C   UNL     1     -10.200  15.554  67.996  1.00  0.00    -0.229 A  
HETATM   15  C   UNL     1     -10.382  14.567  68.969  1.00  0.00    -0.227 A  
HETATM   16  C   UNL     1      -9.824  13.297  68.779  1.00  0.00    -0.012 A  
BRANCH  14  17
HETATM   17  C   UNL     1     -10.585  16.970  68.202  1.00  0.00    -0.369 C  
HETATM   18  O   UNL     1     -10.112  17.826  67.457  1.00  0.00    -0.312 OA 
BRANCH  17  19
HETATM   19  C   UNL     1     -11.463  17.402  69.325  1.00  0.00     1.331 A  
HETATM   20  C   UNL     1     -10.965  18.366  70.213  1.00  0.00     2.622 A  
HETATM   21  C   UNL     1     -11.718  18.766  71.319  1.00  0.00     8.051 A  
HETATM   22  C   UNL     1     -12.971  18.200  71.545  1.00  0.00    15.718 A  
HETATM   23  C   UNL     1     -13.476  17.238  70.673  1.00  0.00    11.122 A  
HETATM   24 CL   UNL     1     -13.889  18.671  72.920  1.00  0.00    14.805 Cl 
HETATM   25  C   UNL     1     -12.718  16.827  69.571  1.00  0.00     3.321 A  
ENDBRANCH  17  19
ENDBRANCH  14  17
ENDBRANCH  10  11
ENDBRANCH   4   5
ENDBRANCH   2   4
TORSDOF 5
ENDMDL
