MODEL        1
REMARK 921   NORMALIZED FREE ENERGY PREDICTED BY IDOCK:   -8.49 KCAL/MOL
REMARK 922        TOTAL FREE ENERGY PREDICTED BY IDOCK:   -9.31 KCAL/MOL
REMARK 923 INTER-LIGAND FREE ENERGY PREDICTED BY IDOCK:   -8.99 KCAL/MOL
REMARK 924 INTRA-LIGAND FREE ENERGY PREDICTED BY IDOCK:   -0.32 KCAL/MOL
REMARK 927      BINDING AFFINITY PREDICTED BY RF-SCORE:    0.00 PKD
ROOT
HETATM    1  O   UNL     1     -13.918  13.272  72.612  1.00  0.00    -0.741 OA 
HETATM    2  C   UNL     1     -13.148  13.146  71.494  1.00  0.00    -0.315 A  
HETATM    3  H   UNL     1     -14.084  12.535  73.188  1.00  0.00     0.000 HD 
HETATM    4  C   UNL     1     -12.906  14.222  70.652  1.00  0.00    -0.378 A  
HETATM    5  C   UNL     1     -12.159  14.031  69.485  1.00  0.00    -0.397 A  
HETATM    6  C   UNL     1     -11.629  12.771  69.149  1.00  0.00    -0.373 A  
HETATM    7  C   UNL     1     -11.871  11.710  70.040  1.00  0.00    -0.435 A  
HETATM    8  C   UNL     1     -12.622  11.895  71.205  1.00  0.00    -0.383 A  
ENDROOT
BRANCH   6   9
HETATM    9  C   UNL     1     -10.938  12.514  67.800  1.00  0.00    -0.270 C  
HETATM   10  C   UNL     1      -9.516  11.879  67.833  1.00  0.00    -0.194 C  
HETATM   11  N   UNL     1      -8.484  12.566  68.619  1.00  0.00    -0.357 NA 
HETATM   12  C   UNL     1      -8.099  13.862  68.057  1.00  0.00    -0.154 C  
HETATM   13  H   UNL     1      -7.667  11.969  68.746  1.00  0.00     0.000 HD 
HETATM   14  C   UNL     1      -9.198  14.930  68.125  1.00  0.00    -0.186 C  
HETATM   15  C   UNL     1     -10.166  14.843  66.960  1.00  0.00    -0.256 A  
HETATM   16  C   UNL     1     -10.287  15.880  66.010  1.00  0.00    -0.348 A  
HETATM   17  C   UNL     1     -11.144  15.739  64.911  1.00  0.00    -0.399 A  
HETATM   18 CL   UNL     1      -9.399  17.365  66.133  1.00  0.00    -0.220 Cl 
HETATM   19  C   UNL     1     -11.888  14.581  64.750  1.00  0.00    -0.441 A  
HETATM   20  O   UNL     1     -11.289  16.710  63.952  1.00  0.00    -1.558 OA 
HETATM   21  H   UNL     1     -11.871  16.615  63.207  1.00  0.00     0.000 HD 
HETATM   22  O   UNL     1     -12.699  14.431  63.662  1.00  0.00    -0.890 OA 
HETATM   23  C   UNL     1     -11.817  13.563  65.683  1.00  0.00    -0.397 A  
HETATM   24  H   UNL     1     -13.210  13.637  63.552  1.00  0.00     0.000 HD 
HETATM   25  C   UNL     1     -10.965  13.678  66.802  1.00  0.00    -0.297 A  
ENDBRANCH   6   9
TORSDOF 1
ENDMDL
MODEL        2
REMARK 921   NORMALIZED FREE ENERGY PREDICTED BY IDOCK:   -8.44 KCAL/MOL
REMARK 922        TOTAL FREE ENERGY PREDICTED BY IDOCK:   -9.25 KCAL/MOL
REMARK 923 INTER-LIGAND FREE ENERGY PREDICTED BY IDOCK:   -9.21 KCAL/MOL
REMARK 924 INTRA-LIGAND FREE ENERGY PREDICTED BY IDOCK:   -0.04 KCAL/MOL
REMARK 927      BINDING AFFINITY PREDICTED BY RF-SCORE:    0.00 PKD
ROOT
HETATM    1  O   UNL     1     -13.600  13.471  72.749  1.00  0.00    -0.672 OA 
HETATM    2  C   UNL     1     -13.028  13.196  71.543  1.00  0.00    -0.321 A  
HETATM    3  H   UNL     1     -13.844  14.356  72.994  1.00  0.00     0.000 HD 
HETATM    4  C   UNL     1     -12.671  11.904  71.185  1.00  0.00    -0.384 A  
HETATM    5  C   UNL     1     -12.031  11.678  69.961  1.00  0.00    -0.429 A  
HETATM    6  C   UNL     1     -11.756  12.732  69.070  1.00  0.00    -0.371 A  
HETATM    7  C   UNL     1     -12.157  14.025  69.454  1.00  0.00    -0.386 A  
HETATM    8  C   UNL     1     -12.791  14.255  70.680  1.00  0.00    -0.378 A  
ENDROOT
BRANCH   6   9
HETATM    9  C   UNL     1     -10.922  12.521  67.796  1.00  0.00    -0.270 C  
HETATM   10  C   UNL     1      -9.445  12.057  67.975  1.00  0.00    -0.199 C  
HETATM   11  N   UNL     1      -8.573  12.881  68.820  1.00  0.00    -0.370 NA 
HETATM   12  C   UNL     1      -8.289  14.197  68.246  1.00  0.00    -0.157 C  
HETATM   13  H   UNL     1      -7.709  12.387  69.040  1.00  0.00     0.000 HD 
HETATM   14  C   UNL     1      -9.504  15.131  68.179  1.00  0.00    -0.201 C  
HETATM   15  C   UNL     1     -10.347  14.901  66.939  1.00  0.00    -0.264 A  
HETATM   16  C   UNL     1     -10.500  15.890  65.943  1.00  0.00    -0.359 A  
HETATM   17  C   UNL     1     -11.232  15.619  64.781  1.00  0.00    -0.382 A  
HETATM   18 CL   UNL     1      -9.800  17.470  66.087  1.00  0.00    -0.283 Cl 
HETATM   19  C   UNL     1     -11.823  14.379  64.600  1.00  0.00    -0.451 A  
HETATM   20  O   UNL     1     -11.400  16.541  63.777  1.00  0.00    -1.553 OA 
HETATM   21  H   UNL     1     -11.898  16.358  62.989  1.00  0.00     0.000 HD 
HETATM   22  O   UNL     1     -12.510  14.106  63.453  1.00  0.00    -1.122 OA 
HETATM   23  C   UNL     1     -11.720  13.402  65.573  1.00  0.00    -0.366 A  
HETATM   24  H   UNL     1     -12.916  13.255  63.329  1.00  0.00     0.000 HD 
HETATM   25  C   UNL     1     -10.992  13.646  66.757  1.00  0.00    -0.297 A  
ENDBRANCH   6   9
TORSDOF 1
ENDMDL
MODEL        3
REMARK 921   NORMALIZED FREE ENERGY PREDICTED BY IDOCK:   -7.61 KCAL/MOL
REMARK 922        TOTAL FREE ENERGY PREDICTED BY IDOCK:   -8.38 KCAL/MOL
REMARK 923 INTER-LIGAND FREE ENERGY PREDICTED BY IDOCK:   -7.88 KCAL/MOL
REMARK 924 INTRA-LIGAND FREE ENERGY PREDICTED BY IDOCK:   -0.49 KCAL/MOL
REMARK 927      BINDING AFFINITY PREDICTED BY RF-SCORE:    0.00 PKD
ROOT
HETATM    1  O   UNL     1     -12.520  13.748  62.912  1.00  0.00    -1.009 OA 
HETATM    2  C   UNL     1     -12.058  13.664  64.192  1.00  0.00    -0.435 A  
HETATM    3  H   UNL     1     -11.952  13.595  62.167  1.00  0.00     0.000 HD 
HETATM    4  C   UNL     1     -12.888  13.888  65.281  1.00  0.00    -0.437 A  
HETATM    5  C   UNL     1     -12.356  13.850  66.575  1.00  0.00    -0.447 A  
HETATM    6  C   UNL     1     -10.995  13.570  66.801  1.00  0.00    -0.297 A  
HETATM    7  C   UNL     1     -10.190  13.320  65.675  1.00  0.00    -0.295 A  
HETATM    8  C   UNL     1     -10.717  13.364  64.380  1.00  0.00    -0.423 A  
ENDROOT
BRANCH   6   9
HETATM    9  C   UNL     1     -10.367  13.673  68.201  1.00  0.00    -0.245 C  
HETATM   10  C   UNL     1      -8.999  12.961  68.426  1.00  0.00    -0.124 C  
HETATM   11  N   UNL     1      -8.924  11.527  68.124  1.00  0.00    -0.166 NA 
HETATM   12  C   UNL     1      -9.719  10.703  69.035  1.00  0.00    -0.202 C  
HETATM   13  H   UNL     1      -7.954  11.211  68.102  1.00  0.00     0.000 HD 
HETATM   14  C   UNL     1     -11.235  10.893  68.898  1.00  0.00    -0.327 C  
HETATM   15  C   UNL     1     -11.748  12.072  69.702  1.00  0.00    -0.405 A  
HETATM   16  C   UNL     1     -12.643  11.908  70.782  1.00  0.00    -0.234 A  
HETATM   17  C   UNL     1     -13.045  13.012  71.544  1.00  0.00    -0.310 A  
HETATM   18 CL   UNL     1     -13.285  10.361  71.232  1.00  0.00    -0.455 Cl 
HETATM   19  C   UNL     1     -12.575  14.280  71.240  1.00  0.00    -0.364 A  
HETATM   20  O   UNL     1     -13.902  12.906  72.610  1.00  0.00    -0.720 OA 
HETATM   21  H   UNL     1     -14.176  13.655  73.127  1.00  0.00     0.000 HD 
HETATM   22  O   UNL     1     -12.943  15.351  72.001  1.00  0.00    -0.345 OA 
HETATM   23  C   UNL     1     -11.725  14.476  70.166  1.00  0.00    -0.357 A  
HETATM   24  H   UNL     1     -12.620  16.220  71.793  1.00  0.00     0.000 HD 
HETATM   25  C   UNL     1     -11.305  13.384  69.378  1.00  0.00    -0.286 A  
ENDBRANCH   6   9
TORSDOF 1
ENDMDL
MODEL        4
REMARK 921   NORMALIZED FREE ENERGY PREDICTED BY IDOCK:   -7.58 KCAL/MOL
REMARK 922        TOTAL FREE ENERGY PREDICTED BY IDOCK:   -8.34 KCAL/MOL
REMARK 923 INTER-LIGAND FREE ENERGY PREDICTED BY IDOCK:   -7.82 KCAL/MOL
REMARK 924 INTRA-LIGAND FREE ENERGY PREDICTED BY IDOCK:   -0.52 KCAL/MOL
REMARK 927      BINDING AFFINITY PREDICTED BY RF-SCORE:    0.00 PKD
ROOT
HETATM    1  O   UNL     1      -9.936  18.954  67.370  1.00  0.00    -0.313 OA 
HETATM    2  C   UNL     1     -10.310  17.647  67.277  1.00  0.00    -0.354 A  
HETATM    3  H   UNL     1     -10.020  19.440  68.182  1.00  0.00     0.000 HD 
HETATM    4  C   UNL     1     -10.189  16.938  66.091  1.00  0.00    -0.352 A  
HETATM    5  C   UNL     1     -10.641  15.615  66.027  1.00  0.00    -0.336 A  
HETATM    6  C   UNL     1     -11.205  14.977  67.148  1.00  0.00    -0.336 A  
HETATM    7  C   UNL     1     -11.287  15.718  68.341  1.00  0.00    -0.372 A  
HETATM    8  C   UNL     1     -10.841  17.042  68.407  1.00  0.00    -0.333 A  
ENDROOT
BRANCH   6   9
HETATM    9  C   UNL     1     -11.843  13.581  67.052  1.00  0.00    -0.447 C  
HETATM   10  C   UNL     1     -11.907  12.732  68.357  1.00  0.00    -0.310 C  
HETATM   11  N   UNL     1     -10.647  12.482  69.066  1.00  0.00    -0.419 NA 
HETATM   12  C   UNL     1      -9.728  11.619  68.324  1.00  0.00    -0.197 C  
HETATM   13  H   UNL     1     -10.823  12.108  69.998  1.00  0.00     0.000 HD 
HETATM   14  C   UNL     1      -9.158  12.253  67.048  1.00  0.00    -0.201 C  
HETATM   15  C   UNL     1     -10.085  12.095  65.858  1.00  0.00    -0.270 A  
HETATM   16  C   UNL     1      -9.721  11.339  64.722  1.00  0.00    -0.256 A  
HETATM   17  C   UNL     1     -10.627  11.161  63.668  1.00  0.00    -0.347 A  
HETATM   18 CL   UNL     1      -8.164  10.592  64.561  1.00  0.00    -0.124 Cl 
HETATM   19  C   UNL     1     -11.888  11.732  63.727  1.00  0.00    -0.380 A  
HETATM   20  O   UNL     1     -10.328  10.425  62.548  1.00  0.00    -0.663 OA 
HETATM   21  H   UNL     1     -10.942  10.304  61.833  1.00  0.00     0.000 HD 
HETATM   22  O   UNL     1     -12.780  11.532  62.714  1.00  0.00    -0.907 OA 
HETATM   23  C   UNL     1     -12.260  12.507  64.810  1.00  0.00    -0.532 A  
HETATM   24  H   UNL     1     -13.646  11.925  62.754  1.00  0.00     0.000 HD 
HETATM   25  C   UNL     1     -11.367  12.708  65.885  1.00  0.00    -0.373 A  
ENDBRANCH   6   9
TORSDOF 1
ENDMDL
MODEL        5
REMARK 921   NORMALIZED FREE ENERGY PREDICTED BY IDOCK:   -7.43 KCAL/MOL
REMARK 922        TOTAL FREE ENERGY PREDICTED BY IDOCK:   -8.19 KCAL/MOL
REMARK 923 INTER-LIGAND FREE ENERGY PREDICTED BY IDOCK:   -7.68 KCAL/MOL
REMARK 924 INTRA-LIGAND FREE ENERGY PREDICTED BY IDOCK:   -0.51 KCAL/MOL
REMARK 927      BINDING AFFINITY PREDICTED BY RF-SCORE:    0.00 PKD
ROOT
HETATM    1  O   UNL     1     -13.182  12.309  64.019  1.00  0.00    -0.757 OA 
HETATM    2  C   UNL     1     -12.265  12.991  64.761  1.00  0.00    -0.435 A  
HETATM    3  H   UNL     1     -13.473  11.439  64.266  1.00  0.00     0.000 HD 
HETATM    4  C   UNL     1     -11.839  14.262  64.402  1.00  0.00    -0.444 A  
HETATM    5  C   UNL     1     -10.851  14.900  65.160  1.00  0.00    -0.428 A  
HETATM    6  C   UNL     1     -10.286  14.288  66.295  1.00  0.00    -0.297 A  
HETATM    7  C   UNL     1     -10.762  13.011  66.645  1.00  0.00    -0.285 A  
HETATM    8  C   UNL     1     -11.745  12.368  65.886  1.00  0.00    -0.476 A  
ENDROOT
BRANCH   6   9
HETATM    9  C   UNL     1      -9.097  14.910  67.046  1.00  0.00    -0.255 C  
HETATM   10  C   UNL     1      -8.881  14.478  68.527  1.00  0.00    -0.182 C  
HETATM   11  N   UNL     1     -10.003  14.658  69.457  1.00  0.00    -0.423 NA 
HETATM   12  C   UNL     1     -10.319  16.064  69.713  1.00  0.00    -0.265 C  
HETATM   13  H   UNL     1      -9.835  14.159  70.330  1.00  0.00     0.000 HD 
HETATM   14  C   UNL     1     -10.893  16.813  68.503  1.00  0.00    -0.345 C  
HETATM   15  C   UNL     1      -9.812  17.344  67.583  1.00  0.00    -0.282 A  
HETATM   16  C   UNL     1      -9.620  18.728  67.375  1.00  0.00    -0.306 A  
HETATM   17  C   UNL     1      -8.570  19.185  66.569  1.00  0.00    -0.322 A  
HETATM   18 CL   UNL     1     -10.646  19.928  68.093  1.00  0.00    -0.463 Cl 
HETATM   19  C   UNL     1      -7.713  18.283  65.959  1.00  0.00    -0.165 A  
HETATM   20  O   UNL     1      -8.332  20.519  66.344  1.00  0.00    -0.533 OA 
HETATM   21  H   UNL     1      -7.620  20.829  65.797  1.00  0.00     0.000 HD 
HETATM   22  O   UNL     1      -6.671  18.731  65.199  1.00  0.00    -0.496 OA 
HETATM   23  C   UNL     1      -7.897  16.921  66.116  1.00  0.00    -0.277 A  
HETATM   24  H   UNL     1      -6.083  18.112  64.781  1.00  0.00     0.000 HD 
HETATM   25  C   UNL     1      -8.948  16.430  66.919  1.00  0.00    -0.240 A  
ENDBRANCH   6   9
TORSDOF 1
ENDMDL
MODEL        6
REMARK 921   NORMALIZED FREE ENERGY PREDICTED BY IDOCK:   -7.42 KCAL/MOL
REMARK 922        TOTAL FREE ENERGY PREDICTED BY IDOCK:   -8.17 KCAL/MOL
REMARK 923 INTER-LIGAND FREE ENERGY PREDICTED BY IDOCK:   -7.74 KCAL/MOL
REMARK 924 INTRA-LIGAND FREE ENERGY PREDICTED BY IDOCK:   -0.43 KCAL/MOL
REMARK 927      BINDING AFFINITY PREDICTED BY RF-SCORE:    0.00 PKD
ROOT
HETATM    1  O   UNL     1     -12.711  11.430  62.854  1.00  0.00    -0.951 OA 
HETATM    2  C   UNL     1     -12.055  11.970  63.920  1.00  0.00    -0.457 A  
HETATM    3  H   UNL     1     -13.633  11.600  62.699  1.00  0.00     0.000 HD 
HETATM    4  C   UNL     1     -10.708  11.721  64.146  1.00  0.00    -0.410 A  
HETATM    5  C   UNL     1     -10.091  12.248  65.286  1.00  0.00    -0.295 A  
HETATM    6  C   UNL     1     -10.802  13.042  66.206  1.00  0.00    -0.295 A  
HETATM    7  C   UNL     1     -12.158  13.296  65.929  1.00  0.00    -0.493 A  
HETATM    8  C   UNL     1     -12.779  12.766  64.794  1.00  0.00    -0.469 A  
ENDROOT
BRANCH   6   9
HETATM    9  C   UNL     1     -10.178  13.499  67.535  1.00  0.00    -0.234 C  
HETATM   10  C   UNL     1      -8.790  12.903  67.917  1.00  0.00    -0.190 C  
HETATM   11  N   UNL     1      -8.671  11.441  67.969  1.00  0.00    -0.142 NA 
HETATM   12  C   UNL     1      -9.441  10.838  69.058  1.00  0.00    -0.166 C  
HETATM   13  H   UNL     1      -7.692  11.159  68.017  1.00  0.00     0.000 HD 
HETATM   14  C   UNL     1     -10.962  10.945  68.888  1.00  0.00    -0.278 C  
HETATM   15  C   UNL     1     -11.511  12.267  69.388  1.00  0.00    -0.341 A  
HETATM   16  C   UNL     1     -12.402  12.343  70.481  1.00  0.00    -0.262 A  
HETATM   17  C   UNL     1     -12.838  13.585  70.956  1.00  0.00    -0.267 A  
HETATM   18 CL   UNL     1     -12.997  10.932  71.295  1.00  0.00    -0.499 Cl 
HETATM   19  C   UNL     1     -12.406  14.755  70.352  1.00  0.00    -0.344 A  
HETATM   20  O   UNL     1     -13.692  13.715  72.023  1.00  0.00    -0.433 OA 
HETATM   21  H   UNL     1     -13.989  14.558  72.346  1.00  0.00     0.000 HD 
HETATM   22  O   UNL     1     -12.807  15.967  70.836  1.00  0.00    -0.578 OA 
HETATM   23  C   UNL     1     -11.562  14.712  69.257  1.00  0.00    -0.335 A  
HETATM   24  H   UNL     1     -12.511  16.770  70.421  1.00  0.00     0.000 HD 
HETATM   25  C   UNL     1     -11.109  13.475  68.754  1.00  0.00    -0.298 A  
ENDBRANCH   6   9
TORSDOF 1
ENDMDL
MODEL        7
REMARK 921   NORMALIZED FREE ENERGY PREDICTED BY IDOCK:   -7.40 KCAL/MOL
REMARK 922        TOTAL FREE ENERGY PREDICTED BY IDOCK:   -8.15 KCAL/MOL
REMARK 923 INTER-LIGAND FREE ENERGY PREDICTED BY IDOCK:   -7.63 KCAL/MOL
REMARK 924 INTRA-LIGAND FREE ENERGY PREDICTED BY IDOCK:   -0.52 KCAL/MOL
REMARK 927      BINDING AFFINITY PREDICTED BY RF-SCORE:    0.00 PKD
ROOT
HETATM    1  O   UNL     1     -12.395  10.470  71.527  1.00  0.00    -0.371 OA 
HETATM    2  C   UNL     1     -11.749  10.917  70.413  1.00  0.00    -0.350 A  
HETATM    3  H   UNL     1     -12.048   9.758  72.051  1.00  0.00     0.000 HD 
HETATM    4  C   UNL     1     -12.256  11.958  69.647  1.00  0.00    -0.216 A  
HETATM    5  C   UNL     1     -11.590  12.343  68.478  1.00  0.00    -0.358 A  
HETATM    6  C   UNL     1     -10.402  11.708  68.066  1.00  0.00    -0.208 A  
HETATM    7  C   UNL     1      -9.904  10.676  68.882  1.00  0.00    -0.210 A  
HETATM    8  C   UNL     1     -10.571  10.284  70.048  1.00  0.00    -0.321 A  
ENDROOT
BRANCH   6   9
HETATM    9  C   UNL     1      -9.746  12.017  66.711  1.00  0.00    -0.218 C  
HETATM   10  C   UNL     1      -8.191  11.938  66.634  1.00  0.00    -0.088 C  
HETATM   11  N   UNL     1      -7.424  12.758  67.580  1.00  0.00    -0.145 NA 
HETATM   12  C   UNL     1      -7.553  14.195  67.334  1.00  0.00    -0.158 C  
HETATM   13  H   UNL     1      -6.443  12.478  67.589  1.00  0.00     0.000 HD 
HETATM   14  C   UNL     1      -8.952  14.759  67.615  1.00  0.00    -0.183 C  
HETATM   15  C   UNL     1      -9.893  14.591  66.438  1.00  0.00    -0.306 A  
HETATM   16  C   UNL     1     -10.427  15.699  65.743  1.00  0.00    -0.366 A  
HETATM   17  C   UNL     1     -11.241  15.506  64.620  1.00  0.00    -0.371 A  
HETATM   18 CL   UNL     1     -10.112  17.336  66.220  1.00  0.00    -0.315 Cl 
HETATM   19  C   UNL     1     -11.538  14.225  64.184  1.00  0.00    -0.194 A  
HETATM   20  O   UNL     1     -11.775  16.547  63.902  1.00  0.00    -1.527 OA 
HETATM   21  H   UNL     1     -12.328  16.417  63.140  1.00  0.00     0.000 HD 
HETATM   22  O   UNL     1     -12.307  14.038  63.071  1.00  0.00    -1.101 OA 
HETATM   23  C   UNL     1     -11.059  13.120  64.865  1.00  0.00    -0.335 A  
HETATM   24  H   UNL     1     -12.511  13.160  62.772  1.00  0.00     0.000 HD 
HETATM   25  C   UNL     1     -10.239  13.283  66.002  1.00  0.00    -0.291 A  
ENDBRANCH   6   9
TORSDOF 1
ENDMDL
MODEL        8
REMARK 921   NORMALIZED FREE ENERGY PREDICTED BY IDOCK:   -7.37 KCAL/MOL
REMARK 922        TOTAL FREE ENERGY PREDICTED BY IDOCK:   -8.12 KCAL/MOL
REMARK 923 INTER-LIGAND FREE ENERGY PREDICTED BY IDOCK:   -7.85 KCAL/MOL
REMARK 924 INTRA-LIGAND FREE ENERGY PREDICTED BY IDOCK:   -0.27 KCAL/MOL
REMARK 927      BINDING AFFINITY PREDICTED BY RF-SCORE:    0.00 PKD
ROOT
HETATM    1  O   UNL     1     -12.534  13.973  63.153  1.00  0.00    -1.137 OA 
HETATM    2  C   UNL     1     -12.014  14.144  64.401  1.00  0.00    -0.457 A  
HETATM    3  H   UNL     1     -13.400  13.605  63.021  1.00  0.00     0.000 HD 
HETATM    4  C   UNL     1     -10.748  14.681  64.594  1.00  0.00    -0.309 A  
HETATM    5  C   UNL     1     -10.231  14.781  65.890  1.00  0.00    -0.331 A  
HETATM    6  C   UNL     1     -10.974  14.365  67.012  1.00  0.00    -0.304 A  
HETATM    7  C   UNL     1     -12.263  13.851  66.780  1.00  0.00    -0.438 A  
HETATM    8  C   UNL     1     -12.780  13.743  65.485  1.00  0.00    -0.530 A  
ENDROOT
BRANCH   6   9
HETATM    9  C   UNL     1     -10.362  14.329  68.422  1.00  0.00    -0.247 C  
HETATM   10  C   UNL     1      -8.958  13.670  68.577  1.00  0.00    -0.102 C  
HETATM   11  N   UNL     1      -8.801  12.290  68.101  1.00  0.00    -0.184 NA 
HETATM   12  C   UNL     1      -9.554  11.318  68.894  1.00  0.00    -0.105 C  
HETATM   13  H   UNL     1      -7.815  12.033  68.054  1.00  0.00     0.000 HD 
HETATM   14  C   UNL     1     -11.078  11.441  68.760  1.00  0.00    -0.290 C  
HETATM   15  C   UNL     1     -11.661  12.481  69.696  1.00  0.00    -0.372 A  
HETATM   16  C   UNL     1     -12.553  12.137  70.736  1.00  0.00    -0.216 A  
HETATM   17  C   UNL     1     -13.021  13.115  71.622  1.00  0.00    -0.335 A  
HETATM   18 CL   UNL     1     -13.111  10.514  70.983  1.00  0.00    -0.454 Cl 
HETATM   19  C   UNL     1     -12.620  14.434  71.482  1.00  0.00    -0.350 A  
HETATM   20  O   UNL     1     -13.878  12.831  72.656  1.00  0.00    -0.699 OA 
HETATM   21  H   UNL     1     -14.196  13.495  73.257  1.00  0.00     0.000 HD 
HETATM   22  O   UNL     1     -13.053  15.381  72.365  1.00  0.00    -0.343 OA 
HETATM   23  C   UNL     1     -11.776  14.808  70.452  1.00  0.00    -0.350 A  
HETATM   24  H   UNL     1     -12.778  16.286  72.269  1.00  0.00     0.000 HD 
HETATM   25  C   UNL     1     -11.290  13.845  69.542  1.00  0.00    -0.293 A  
ENDBRANCH   6   9
TORSDOF 1
ENDMDL
MODEL        9
REMARK 921   NORMALIZED FREE ENERGY PREDICTED BY IDOCK:   -7.31 KCAL/MOL
REMARK 922        TOTAL FREE ENERGY PREDICTED BY IDOCK:   -8.06 KCAL/MOL
REMARK 923 INTER-LIGAND FREE ENERGY PREDICTED BY IDOCK:   -7.72 KCAL/MOL
REMARK 924 INTRA-LIGAND FREE ENERGY PREDICTED BY IDOCK:   -0.34 KCAL/MOL
REMARK 927      BINDING AFFINITY PREDICTED BY RF-SCORE:    0.00 PKD
ROOT
HETATM    1  O   UNL     1      -8.830   9.148  63.012  1.00  0.00    -0.355 OA 
HETATM    2  C   UNL     1      -9.523  10.092  63.708  1.00  0.00    -0.275 A  
HETATM    3  H   UNL     1      -8.763   9.178  62.064  1.00  0.00     0.000 HD 
HETATM    4  C   UNL     1      -9.622  10.049  65.092  1.00  0.00    -0.356 A  
HETATM    5  C   UNL     1     -10.395  11.005  65.760  1.00  0.00    -0.316 A  
HETATM    6  C   UNL     1     -11.065  12.027  65.060  1.00  0.00    -0.368 A  
HETATM    7  C   UNL     1     -10.920  12.055  63.661  1.00  0.00    -0.517 A  
HETATM    8  C   UNL     1     -10.154  11.097  62.990  1.00  0.00    -0.311 A  
ENDROOT
BRANCH   6   9
HETATM    9  C   UNL     1     -12.037  12.989  65.763  1.00  0.00    -0.510 C  
HETATM   10  C   UNL     1     -12.785  14.027  64.874  1.00  0.00    -0.273 C  
HETATM   11  N   UNL     1     -11.970  14.916  64.038  1.00  0.00    -0.867 NA 
HETATM   12  C   UNL     1     -11.176  15.870  64.813  1.00  0.00    -0.355 C  
HETATM   13  H   UNL     1     -12.549  15.400  63.352  1.00  0.00     0.000 HD 
HETATM   14  C   UNL     1     -10.053  15.229  65.640  1.00  0.00    -0.401 C  
HETATM   15  C   UNL     1     -10.539  14.719  66.983  1.00  0.00    -0.290 A  
HETATM   16  C   UNL     1     -10.078  15.264  68.202  1.00  0.00    -0.229 A  
HETATM   17  C   UNL     1     -10.597  14.813  69.422  1.00  0.00    -0.218 A  
HETATM   18 CL   UNL     1      -8.868  16.505  68.268  1.00  0.00    -0.203 Cl 
HETATM   19  C   UNL     1     -11.563  13.820  69.446  1.00  0.00    -0.310 A  
HETATM   20  O   UNL     1     -10.192  15.317  70.633  1.00  0.00    -0.455 OA 
HETATM   21  H   UNL     1     -10.544  15.011  71.461  1.00  0.00     0.000 HD 
HETATM   22  O   UNL     1     -12.091  13.403  70.634  1.00  0.00    -0.412 OA 
HETATM   23  C   UNL     1     -12.009  13.243  68.271  1.00  0.00    -0.338 A  
HETATM   24  H   UNL     1     -12.754  12.722  70.650  1.00  0.00     0.000 HD 
HETATM   25  C   UNL     1     -11.502  13.674  67.026  1.00  0.00    -0.368 A  
ENDBRANCH   6   9
TORSDOF 1
ENDMDL
MODEL       10
REMARK 921   NORMALIZED FREE ENERGY PREDICTED BY IDOCK:   -7.24 KCAL/MOL
REMARK 922        TOTAL FREE ENERGY PREDICTED BY IDOCK:   -7.99 KCAL/MOL
REMARK 923 INTER-LIGAND FREE ENERGY PREDICTED BY IDOCK:   -7.47 KCAL/MOL
REMARK 924 INTRA-LIGAND FREE ENERGY PREDICTED BY IDOCK:   -0.52 KCAL/MOL
REMARK 927      BINDING AFFINITY PREDICTED BY RF-SCORE:    0.00 PKD
ROOT
HETATM    1  O   UNL     1      -6.214  18.249  67.690  1.00  0.00    -0.181 OA 
HETATM    2  C   UNL     1      -7.341  17.489  67.586  1.00  0.00    -0.181 A  
HETATM    3  H   UNL     1      -6.079  18.841  68.421  1.00  0.00     0.000 HD 
HETATM    4  C   UNL     1      -7.540  16.625  66.519  1.00  0.00    -0.327 A  
HETATM    5  C   UNL     1      -8.738  15.910  66.423  1.00  0.00    -0.362 A  
HETATM    6  C   UNL     1      -9.748  16.033  67.397  1.00  0.00    -0.232 A  
HETATM    7  C   UNL     1      -9.500  16.898  68.479  1.00  0.00    -0.266 A  
HETATM    8  C   UNL     1      -8.305  17.619  68.574  1.00  0.00    -0.291 A  
ENDROOT
BRANCH   6   9
HETATM    9  C   UNL     1     -11.126  15.373  67.226  1.00  0.00    -0.302 C  
HETATM   10  C   UNL     1     -11.881  14.947  68.521  1.00  0.00    -0.294 C  
HETATM   11  N   UNL     1     -11.184  14.047  69.448  1.00  0.00    -0.312 NA 
HETATM   12  C   UNL     1     -10.975  12.706  68.902  1.00  0.00    -0.229 C  
HETATM   13  H   UNL     1     -11.669  14.003  70.344  1.00  0.00     0.000 HD 
HETATM   14  C   UNL     1      -9.986  12.649  67.730  1.00  0.00    -0.218 C  
HETATM   15  C   UNL     1     -10.643  12.962  66.400  1.00  0.00    -0.285 A  
HETATM   16  C   UNL     1     -10.732  12.005  65.366  1.00  0.00    -0.287 A  
HETATM   17  C   UNL     1     -11.403  12.308  64.174  1.00  0.00    -0.376 A  
HETATM   18 CL   UNL     1     -10.038  10.421  65.501  1.00  0.00    -0.353 Cl 
HETATM   19  C   UNL     1     -11.980  13.555  63.995  1.00  0.00    -0.449 A  
HETATM   20  O   UNL     1     -11.530  11.409  63.144  1.00  0.00    -0.849 OA 
HETATM   21  H   UNL     1     -11.985  11.615  62.336  1.00  0.00     0.000 HD 
HETATM   22  O   UNL     1     -12.660  13.839  62.846  1.00  0.00    -0.944 OA 
HETATM   23  C   UNL     1     -11.878  14.525  64.975  1.00  0.00    -0.399 A  
HETATM   24  H   UNL     1     -13.055  14.695  62.722  1.00  0.00     0.000 HD 
HETATM   25  C   UNL     1     -11.205  14.251  66.184  1.00  0.00    -0.331 A  
ENDBRANCH   6   9
TORSDOF 1
ENDMDL
MODEL       11
REMARK 921   NORMALIZED FREE ENERGY PREDICTED BY IDOCK:   -7.16 KCAL/MOL
REMARK 922        TOTAL FREE ENERGY PREDICTED BY IDOCK:   -7.90 KCAL/MOL
REMARK 923 INTER-LIGAND FREE ENERGY PREDICTED BY IDOCK:   -7.77 KCAL/MOL
REMARK 924 INTRA-LIGAND FREE ENERGY PREDICTED BY IDOCK:   -0.13 KCAL/MOL
REMARK 927      BINDING AFFINITY PREDICTED BY RF-SCORE:    0.00 PKD
ROOT
HETATM    1  O   UNL     1     -13.547  12.698  72.404  1.00  0.00    -0.578 OA 
HETATM    2  C   UNL     1     -12.849  12.811  71.239  1.00  0.00    -0.262 A  
HETATM    3  H   UNL     1     -13.947  13.453  72.820  1.00  0.00     0.000 HD 
HETATM    4  C   UNL     1     -12.263  11.709  70.633  1.00  0.00    -0.461 A  
HETATM    5  C   UNL     1     -11.505  11.882  69.470  1.00  0.00    -0.357 A  
HETATM    6  C   UNL     1     -11.334  13.152  68.886  1.00  0.00    -0.335 A  
HETATM    7  C   UNL     1     -11.965  14.242  69.513  1.00  0.00    -0.384 A  
HETATM    8  C   UNL     1     -12.718  14.073  70.680  1.00  0.00    -0.373 A  
ENDROOT
BRANCH   6   9
HETATM    9  C   UNL     1     -10.383  13.379  67.700  1.00  0.00    -0.238 C  
HETATM   10  C   UNL     1      -8.895  12.955  67.884  1.00  0.00    -0.190 C  
HETATM   11  N   UNL     1      -8.163  13.526  69.022  1.00  0.00    -0.332 NA 
HETATM   12  C   UNL     1      -7.936  14.966  68.897  1.00  0.00    -0.163 C  
HETATM   13  H   UNL     1      -7.284  13.032  69.173  1.00  0.00     0.000 HD 
HETATM   14  C   UNL     1      -9.210  15.816  68.985  1.00  0.00    -0.243 C  
HETATM   15  C   UNL     1      -9.926  15.931  67.653  1.00  0.00    -0.237 A  
HETATM   16  C   UNL     1     -10.072  17.167  66.987  1.00  0.00    -0.297 A  
HETATM   17  C   UNL     1     -10.681  17.226  65.727  1.00  0.00    -0.131 A  
HETATM   18 CL   UNL     1      -9.512  18.662  67.665  1.00  0.00    -0.306 Cl 
HETATM   19  C   UNL     1     -11.156  16.072  65.126  1.00  0.00    -0.283 A  
HETATM   20  O   UNL     1     -10.836  18.400  65.031  1.00  0.00    -0.641 OA 
HETATM   21  H   UNL     1     -11.250  18.440  64.177  1.00  0.00     0.000 HD 
HETATM   22  O   UNL     1     -11.722  16.126  63.885  1.00  0.00    -1.348 OA 
HETATM   23  C   UNL     1     -11.059  14.851  65.770  1.00  0.00    -0.342 A  
HETATM   24  H   UNL     1     -12.047  15.334  63.472  1.00  0.00     0.000 HD 
HETATM   25  C   UNL     1     -10.453  14.761  67.041  1.00  0.00    -0.270 A  
ENDBRANCH   6   9
TORSDOF 1
ENDMDL
MODEL       12
REMARK 921   NORMALIZED FREE ENERGY PREDICTED BY IDOCK:   -7.07 KCAL/MOL
REMARK 922        TOTAL FREE ENERGY PREDICTED BY IDOCK:   -7.81 KCAL/MOL
REMARK 923 INTER-LIGAND FREE ENERGY PREDICTED BY IDOCK:   -7.29 KCAL/MOL
REMARK 924 INTRA-LIGAND FREE ENERGY PREDICTED BY IDOCK:   -0.52 KCAL/MOL
REMARK 927      BINDING AFFINITY PREDICTED BY RF-SCORE:    0.00 PKD
ROOT
HETATM    1  O   UNL     1     -12.515  14.077  63.005  1.00  0.00    -1.101 OA 
HETATM    2  C   UNL     1     -12.045  13.958  64.279  1.00  0.00    -0.440 A  
HETATM    3  H   UNL     1     -12.026  14.540  62.336  1.00  0.00     0.000 HD 
HETATM    4  C   UNL     1     -12.760  13.282  65.258  1.00  0.00    -0.474 A  
HETATM    5  C   UNL     1     -12.267  13.237  66.567  1.00  0.00    -0.389 A  
HETATM    6  C   UNL     1     -11.048  13.849  66.914  1.00  0.00    -0.309 A  
HETATM    7  C   UNL     1     -10.337  14.501  65.890  1.00  0.00    -0.332 A  
HETATM    8  C   UNL     1     -10.830  14.554  64.582  1.00  0.00    -0.351 A  
ENDROOT
BRANCH   6   9
HETATM    9  C   UNL     1     -10.571  13.937  68.373  1.00  0.00    -0.262 C  
HETATM   10  C   UNL     1      -9.033  13.941  68.624  1.00  0.00    -0.079 C  
HETATM   11  N   UNL     1      -8.253  12.824  68.077  1.00  0.00    -0.157 NA 
HETATM   12  C   UNL     1      -8.547  11.545  68.724  1.00  0.00    -0.052 C  
HETATM   13  H   UNL     1      -7.255  13.027  68.112  1.00  0.00     0.000 HD 
HETATM   14  C   UNL     1      -9.957  11.007  68.447  1.00  0.00    -0.194 C  
HETATM   15  C   UNL     1     -10.996  11.588  69.386  1.00  0.00    -0.233 A  
HETATM   16  C   UNL     1     -11.705  10.785  70.306  1.00  0.00    -0.352 A  
HETATM   17  C   UNL     1     -12.611  11.366  71.203  1.00  0.00    -0.386 A  
HETATM   18 CL   UNL     1     -11.503   9.065  70.389  1.00  0.00    -0.243 Cl 
HETATM   19  C   UNL     1     -12.826  12.734  71.191  1.00  0.00    -0.226 A  
HETATM   20  O   UNL     1     -13.316  10.633  72.125  1.00  0.00    -0.574 OA 
HETATM   21  H   UNL     1     -13.931  11.027  72.734  1.00  0.00     0.000 HD 
HETATM   22  O   UNL     1     -13.685  13.303  72.086  1.00  0.00    -0.507 OA 
HETATM   23  C   UNL     1     -12.172  13.542  70.278  1.00  0.00    -0.417 A  
HETATM   24  H   UNL     1     -13.833  14.242  72.078  1.00  0.00     0.000 HD 
HETATM   25  C   UNL     1     -11.257  12.986  69.360  1.00  0.00    -0.209 A  
ENDBRANCH   6   9
TORSDOF 1
ENDMDL
MODEL       13
REMARK 921   NORMALIZED FREE ENERGY PREDICTED BY IDOCK:   -6.97 KCAL/MOL
REMARK 922        TOTAL FREE ENERGY PREDICTED BY IDOCK:   -7.70 KCAL/MOL
REMARK 923 INTER-LIGAND FREE ENERGY PREDICTED BY IDOCK:   -7.80 KCAL/MOL
REMARK 924 INTRA-LIGAND FREE ENERGY PREDICTED BY IDOCK:    0.10 KCAL/MOL
REMARK 927      BINDING AFFINITY PREDICTED BY RF-SCORE:    0.00 PKD
ROOT
HETATM    1  O   UNL     1     -13.967  15.781  72.864  1.00  0.00    -0.569 OA 
HETATM    2  C   UNL     1     -13.009  15.424  71.962  1.00  0.00    -0.401 A  
HETATM    3  H   UNL     1     -14.733  15.240  73.017  1.00  0.00     0.000 HD 
HETATM    4  C   UNL     1     -11.890  16.214  71.739  1.00  0.00    -0.581 A  
HETATM    5  C   UNL     1     -10.964  15.838  70.760  1.00  0.00    -0.311 A  
HETATM    6  C   UNL     1     -11.131  14.663  70.003  1.00  0.00    -0.204 A  
HETATM    7  C   UNL     1     -12.263  13.873  70.276  1.00  0.00    -0.428 A  
HETATM    8  C   UNL     1     -13.194  14.249  71.250  1.00  0.00    -0.412 A  
ENDROOT
BRANCH   6   9
HETATM    9  C   UNL     1     -10.206  14.318  68.824  1.00  0.00    -0.226 C  
HETATM   10  C   UNL     1      -8.669  14.392  69.075  1.00  0.00     0.014 C  
HETATM   11  N   UNL     1      -8.125  15.659  69.577  1.00  0.00    -0.222 NA 
HETATM   12  C   UNL     1      -8.210  16.749  68.605  1.00  0.00    -0.252 C  
HETATM   13  H   UNL     1      -7.166  15.538  69.903  1.00  0.00     0.000 HD 
HETATM   14  C   UNL     1      -9.641  17.212  68.300  1.00  0.00    -0.280 C  
HETATM   15  C   UNL     1     -10.311  16.365  67.236  1.00  0.00    -0.287 A  
HETATM   16  C   UNL     1     -10.695  16.899  65.986  1.00  0.00    -0.125 A  
HETATM   17  C   UNL     1     -11.253  16.073  65.002  1.00  0.00    -0.261 A  
HETATM   18 CL   UNL     1     -10.501  18.577  65.592  1.00  0.00    -0.281 Cl 
HETATM   19  C   UNL     1     -11.442  14.723  65.249  1.00  0.00    -0.352 A  
HETATM   20  O   UNL     1     -11.631  16.539  63.768  1.00  0.00    -1.617 OA 
HETATM   21  H   UNL     1     -12.010  15.979  63.100  1.00  0.00     0.000 HD 
HETATM   22  O   UNL     1     -11.956  13.913  64.279  1.00  0.00    -0.425 OA 
HETATM   23  C   UNL     1     -11.108  14.177  66.475  1.00  0.00    -0.318 A  
HETATM   24  H   UNL     1     -12.086  12.986  64.447  1.00  0.00     0.000 HD 
HETATM   25  C   UNL     1     -10.548  14.986  67.487  1.00  0.00    -0.265 A  
ENDBRANCH   6   9
TORSDOF 1
ENDMDL
MODEL       14
REMARK 921   NORMALIZED FREE ENERGY PREDICTED BY IDOCK:   -6.96 KCAL/MOL
REMARK 922        TOTAL FREE ENERGY PREDICTED BY IDOCK:   -7.68 KCAL/MOL
REMARK 923 INTER-LIGAND FREE ENERGY PREDICTED BY IDOCK:   -7.27 KCAL/MOL
REMARK 924 INTRA-LIGAND FREE ENERGY PREDICTED BY IDOCK:   -0.41 KCAL/MOL
REMARK 927      BINDING AFFINITY PREDICTED BY RF-SCORE:    0.00 PKD
ROOT
HETATM    1  O   UNL     1     -13.092  11.568  62.769  1.00  0.00    -0.707 OA 
HETATM    2  C   UNL     1     -12.259  12.000  63.757  1.00  0.00    -0.498 A  
HETATM    3  H   UNL     1     -13.995  11.858  62.717  1.00  0.00     0.000 HD 
HETATM    4  C   UNL     1     -10.939  11.576  63.833  1.00  0.00    -0.474 A  
HETATM    5  C   UNL     1     -10.139  11.998  64.899  1.00  0.00    -0.289 A  
HETATM    6  C   UNL     1     -10.635  12.861  65.895  1.00  0.00    -0.287 A  
HETATM    7  C   UNL     1     -11.969  13.292  65.770  1.00  0.00    -0.463 A  
HETATM    8  C   UNL     1     -12.774  12.867  64.709  1.00  0.00    -0.442 A  
ENDROOT
BRANCH   6   9
HETATM    9  C   UNL     1      -9.816  13.210  67.148  1.00  0.00    -0.235 C  
HETATM   10  C   UNL     1      -8.916  12.090  67.750  1.00  0.00    -0.176 C  
HETATM   11  N   UNL     1      -9.560  10.820  68.106  1.00  0.00    -0.156 NA 
HETATM   12  C   UNL     1     -10.489  10.940  69.231  1.00  0.00    -0.202 C  
HETATM   13  H   UNL     1      -8.863  10.098  68.287  1.00  0.00     0.000 HD 
HETATM   14  C   UNL     1     -11.746  11.765  68.925  1.00  0.00    -0.384 C  
HETATM   15  C   UNL     1     -11.522  13.254  69.102  1.00  0.00    -0.357 A  
HETATM   16  C   UNL     1     -12.206  14.002  70.084  1.00  0.00    -0.359 A  
HETATM   17  C   UNL     1     -11.926  15.363  70.263  1.00  0.00    -0.355 A  
HETATM   18 CL   UNL     1     -13.409  13.301  71.118  1.00  0.00    -0.141 Cl 
HETATM   19  C   UNL     1     -10.980  15.991  69.470  1.00  0.00    -0.326 A  
HETATM   20  O   UNL     1     -12.554  16.132  71.211  1.00  0.00    -0.555 OA 
HETATM   21  H   UNL     1     -12.364  17.055  71.332  1.00  0.00     0.000 HD 
HETATM   22  O   UNL     1     -10.685  17.310  69.665  1.00  0.00    -0.372 OA 
HETATM   23  C   UNL     1     -10.318  15.293  68.476  1.00  0.00    -0.231 A  
HETATM   24  H   UNL     1     -10.036  17.741  69.121  1.00  0.00     0.000 HD 
HETATM   25  C   UNL     1     -10.582  13.922  68.270  1.00  0.00    -0.263 A  
ENDBRANCH   6   9
TORSDOF 1
ENDMDL
MODEL       15
REMARK 921   NORMALIZED FREE ENERGY PREDICTED BY IDOCK:   -6.95 KCAL/MOL
REMARK 922        TOTAL FREE ENERGY PREDICTED BY IDOCK:   -7.68 KCAL/MOL
REMARK 923 INTER-LIGAND FREE ENERGY PREDICTED BY IDOCK:   -7.17 KCAL/MOL
REMARK 924 INTRA-LIGAND FREE ENERGY PREDICTED BY IDOCK:   -0.51 KCAL/MOL
REMARK 927      BINDING AFFINITY PREDICTED BY RF-SCORE:    0.00 PKD
ROOT
HETATM    1  O   UNL     1      -7.360   9.405  64.460  1.00  0.00    -0.099 OA 
HETATM    2  C   UNL     1      -8.392  10.223  64.811  1.00  0.00    -0.172 A  
HETATM    3  H   UNL     1      -7.378   8.898  63.656  1.00  0.00     0.000 HD 
HETATM    4  C   UNL     1      -8.366  10.963  65.986  1.00  0.00    -0.165 A  
HETATM    5  C   UNL     1      -9.473  11.743  66.335  1.00  0.00    -0.234 A  
HETATM    6  C   UNL     1     -10.613  11.811  65.512  1.00  0.00    -0.323 A  
HETATM    7  C   UNL     1     -10.593  11.070  64.316  1.00  0.00    -0.402 A  
HETATM    8  C   UNL     1      -9.490  10.284  63.967  1.00  0.00    -0.356 A  
ENDROOT
BRANCH   6   9
HETATM    9  C   UNL     1     -11.892  12.541  65.955  1.00  0.00    -0.489 C  
HETATM   10  C   UNL     1     -12.876  13.003  64.838  1.00  0.00    -0.297 C  
HETATM   11  N   UNL     1     -12.341  13.865  63.777  1.00  0.00    -0.903 NA 
HETATM   12  C   UNL     1     -11.958  15.195  64.253  1.00  0.00    -0.262 C  
HETATM   13  H   UNL     1     -12.998  13.934  63.000  1.00  0.00     0.000 HD 
HETATM   14  C   UNL     1     -10.747  15.203  65.196  1.00  0.00    -0.442 C  
HETATM   15  C   UNL     1     -11.130  14.925  66.636  1.00  0.00    -0.329 A  
HETATM   16  C   UNL     1     -10.957  15.887  67.655  1.00  0.00    -0.298 A  
HETATM   17  C   UNL     1     -11.382  15.620  68.963  1.00  0.00    -0.330 A  
HETATM   18 CL   UNL     1     -10.228  17.433  67.361  1.00  0.00    -0.316 Cl 
HETATM   19  C   UNL     1     -11.970  14.404  69.272  1.00  0.00    -0.324 A  
HETATM   20  O   UNL     1     -11.249  16.525  69.986  1.00  0.00    -0.412 OA 
HETATM   21  H   UNL     1     -11.537  16.344  70.874  1.00  0.00     0.000 HD 
HETATM   22  O   UNL     1     -12.412  14.156  70.539  1.00  0.00    -0.326 OA 
HETATM   23  C   UNL     1     -12.121  13.428  68.303  1.00  0.00    -0.271 A  
HETATM   24  H   UNL     1     -12.815  13.322  70.751  1.00  0.00     0.000 HD 
HETATM   25  C   UNL     1     -11.699  13.667  66.977  1.00  0.00    -0.419 A  
ENDBRANCH   6   9
TORSDOF 1
ENDMDL
MODEL       16
REMARK 921   NORMALIZED FREE ENERGY PREDICTED BY IDOCK:   -6.78 KCAL/MOL
REMARK 922        TOTAL FREE ENERGY PREDICTED BY IDOCK:   -7.50 KCAL/MOL
REMARK 923 INTER-LIGAND FREE ENERGY PREDICTED BY IDOCK:   -7.02 KCAL/MOL
REMARK 924 INTRA-LIGAND FREE ENERGY PREDICTED BY IDOCK:   -0.47 KCAL/MOL
REMARK 927      BINDING AFFINITY PREDICTED BY RF-SCORE:    0.00 PKD
ROOT
HETATM    1  O   UNL     1     -12.011   9.917  71.672  1.00  0.00    -0.393 OA 
HETATM    2  C   UNL     1     -11.720  10.104  70.353  1.00  0.00    -0.308 A  
HETATM    3  H   UNL     1     -12.515  10.554  72.165  1.00  0.00     0.000 HD 
HETATM    4  C   UNL     1     -10.984   9.174  69.632  1.00  0.00    -0.168 A  
HETATM    5  C   UNL     1     -10.658   9.437  68.297  1.00  0.00    -0.256 A  
HETATM    6  C   UNL     1     -11.075  10.620  67.658  1.00  0.00    -0.385 A  
HETATM    7  C   UNL     1     -11.843  11.526  68.412  1.00  0.00    -0.353 A  
HETATM    8  C   UNL     1     -12.165  11.270  69.748  1.00  0.00    -0.343 A  
ENDROOT
BRANCH   6   9
HETATM    9  C   UNL     1     -10.598  10.990  66.244  1.00  0.00    -0.295 C  
HETATM   10  C   UNL     1      -9.301  10.300  65.723  1.00  0.00    -0.186 C  
HETATM   11  N   UNL     1      -8.088  10.432  66.538  1.00  0.00    -0.118 NA 
HETATM   12  C   UNL     1      -7.569  11.800  66.582  1.00  0.00    -0.005 C  
HETATM   13  H   UNL     1      -7.368   9.781  66.225  1.00  0.00     0.000 HD 
HETATM   14  C   UNL     1      -8.467  12.791  67.334  1.00  0.00    -0.191 C  
HETATM   15  C   UNL     1      -9.566  13.360  66.457  1.00  0.00    -0.277 A  
HETATM   16  C   UNL     1      -9.631  14.733  66.134  1.00  0.00    -0.309 A  
HETATM   17  C   UNL     1     -10.622  15.213  65.269  1.00  0.00    -0.411 A  
HETATM   18 CL   UNL     1      -8.508  15.892  66.770  1.00  0.00    -0.270 Cl 
HETATM   19  C   UNL     1     -11.555  14.345  64.726  1.00  0.00    -0.408 A  
HETATM   20  O   UNL     1     -10.721  16.535  64.914  1.00  0.00    -0.702 OA 
HETATM   21  H   UNL     1     -11.394  16.861  64.327  1.00  0.00     0.000 HD 
HETATM   22  O   UNL     1     -12.502  14.808  63.859  1.00  0.00    -0.997 OA 
HETATM   23  C   UNL     1     -11.539  13.000  65.051  1.00  0.00    -0.359 A  
HETATM   24  H   UNL     1     -13.143  14.213  63.486  1.00  0.00     0.000 HD 
HETATM   25  C   UNL     1     -10.555  12.489  65.923  1.00  0.00    -0.292 A  
ENDBRANCH   6   9
TORSDOF 1
ENDMDL
MODEL       17
REMARK 921   NORMALIZED FREE ENERGY PREDICTED BY IDOCK:   -6.74 KCAL/MOL
REMARK 922        TOTAL FREE ENERGY PREDICTED BY IDOCK:   -7.45 KCAL/MOL
REMARK 923 INTER-LIGAND FREE ENERGY PREDICTED BY IDOCK:   -7.03 KCAL/MOL
REMARK 924 INTRA-LIGAND FREE ENERGY PREDICTED BY IDOCK:   -0.42 KCAL/MOL
REMARK 927      BINDING AFFINITY PREDICTED BY RF-SCORE:    0.00 PKD
ROOT
HETATM    1  O   UNL     1     -13.430  15.083  73.699  1.00  0.00    -0.547 OA 
HETATM    2  C   UNL     1     -12.825  15.192  72.482  1.00  0.00    -0.360 A  
HETATM    3  H   UNL     1     -14.043  14.382  73.888  1.00  0.00     0.000 HD 
HETATM    4  C   UNL     1     -11.930  16.216  72.205  1.00  0.00    -0.623 A  
HETATM    5  C   UNL     1     -11.380  16.324  70.923  1.00  0.00    -0.319 A  
HETATM    6  C   UNL     1     -11.699  15.403  69.906  1.00  0.00    -0.357 A  
HETATM    7  C   UNL     1     -12.588  14.363  70.232  1.00  0.00    -0.380 A  
HETATM    8  C   UNL     1     -13.145  14.256  71.511  1.00  0.00    -0.413 A  
ENDROOT
BRANCH   6   9
HETATM    9  C   UNL     1     -11.222  15.597  68.458  1.00  0.00    -0.342 C  
HETATM   10  C   UNL     1     -10.651  14.348  67.720  1.00  0.00    -0.246 C  
HETATM   11  N   UNL     1      -9.535  13.637  68.354  1.00  0.00    -0.248 NA 
HETATM   12  C   UNL     1      -8.298  14.418  68.389  1.00  0.00    -0.155 C  
HETATM   13  H   UNL     1      -9.381  12.733  67.908  1.00  0.00     0.000 HD 
HETATM   14  C   UNL     1      -8.351  15.643  69.311  1.00  0.00    -0.256 C  
HETATM   15  C   UNL     1      -8.961  16.855  68.633  1.00  0.00    -0.266 A  
HETATM   16  C   UNL     1      -8.216  18.030  68.391  1.00  0.00    -0.298 A  
HETATM   17  C   UNL     1      -8.792  19.106  67.704  1.00  0.00    -0.295 A  
HETATM   18 CL   UNL     1      -6.572  18.214  68.912  1.00  0.00    -0.233 Cl 
HETATM   19  C   UNL     1     -10.103  19.031  67.262  1.00  0.00    -0.364 A  
HETATM   20  O   UNL     1      -8.109  20.265  67.433  1.00  0.00    -0.319 OA 
HETATM   21  H   UNL     1      -8.500  20.995  66.967  1.00  0.00     0.000 HD 
HETATM   22  O   UNL     1     -10.654  20.068  66.566  1.00  0.00    -0.448 OA 
HETATM   23  C   UNL     1     -10.869  17.907  67.515  1.00  0.00    -0.239 A  
HETATM   24  H   UNL     1     -11.554  20.017  66.262  1.00  0.00     0.000 HD 
HETATM   25  C   UNL     1     -10.317  16.808  68.208  1.00  0.00    -0.319 A  
ENDBRANCH   6   9
TORSDOF 1
ENDMDL
MODEL       18
REMARK 921   NORMALIZED FREE ENERGY PREDICTED BY IDOCK:   -6.67 KCAL/MOL
REMARK 922        TOTAL FREE ENERGY PREDICTED BY IDOCK:   -7.38 KCAL/MOL
REMARK 923 INTER-LIGAND FREE ENERGY PREDICTED BY IDOCK:   -7.26 KCAL/MOL
REMARK 924 INTRA-LIGAND FREE ENERGY PREDICTED BY IDOCK:   -0.13 KCAL/MOL
REMARK 927      BINDING AFFINITY PREDICTED BY RF-SCORE:    0.00 PKD
ROOT
HETATM    1  O   UNL     1     -13.791  12.505  72.377  1.00  0.00    -0.523 OA 
HETATM    2  C   UNL     1     -12.935  12.555  71.318  1.00  0.00    -0.208 A  
HETATM    3  H   UNL     1     -14.114  13.295  72.794  1.00  0.00     0.000 HD 
HETATM    4  C   UNL     1     -12.462  11.401  70.709  1.00  0.00    -0.460 A  
HETATM    5  C   UNL     1     -11.537  11.501  69.665  1.00  0.00    -0.403 A  
HETATM    6  C   UNL     1     -11.084  12.751  69.201  1.00  0.00    -0.245 A  
HETATM    7  C   UNL     1     -11.606  13.899  69.824  1.00  0.00    -0.335 A  
HETATM    8  C   UNL     1     -12.525  13.803  70.873  1.00  0.00    -0.451 A  
ENDROOT
BRANCH   6   9
HETATM    9  C   UNL     1      -9.958  12.871  68.160  1.00  0.00    -0.234 C  
HETATM   10  C   UNL     1      -9.156  14.206  68.125  1.00  0.00    -0.193 C  
HETATM   11  N   UNL     1      -9.916  15.450  67.950  1.00  0.00    -0.221 NA 
HETATM   12  C   UNL     1     -10.535  15.567  66.629  1.00  0.00    -0.299 C  
HETATM   13  H   UNL     1      -9.333  16.262  68.150  1.00  0.00     0.000 HD 
HETATM   14  C   UNL     1     -11.666  14.561  66.372  1.00  0.00    -0.372 C  
HETATM   15  C   UNL     1     -11.151  13.221  65.884  1.00  0.00    -0.301 A  
HETATM   16  C   UNL     1     -11.458  12.724  64.598  1.00  0.00    -0.324 A  
HETATM   17  C   UNL     1     -10.913  11.513  64.157  1.00  0.00    -0.366 A  
HETATM   18 CL   UNL     1     -12.504  13.567  63.501  1.00  0.00    -0.374 Cl 
HETATM   19  C   UNL     1     -10.071  10.783  64.981  1.00  0.00    -0.313 A  
HETATM   20  O   UNL     1     -11.169  10.992  62.912  1.00  0.00    -0.751 OA 
HETATM   21  H   UNL     1     -10.799  10.170  62.613  1.00  0.00     0.000 HD 
HETATM   22  O   UNL     1      -9.516   9.618  64.539  1.00  0.00    -0.400 OA 
HETATM   23  C   UNL     1      -9.780  11.226  66.259  1.00  0.00    -0.246 A  
HETATM   24  H   UNL     1      -8.939   9.117  65.105  1.00  0.00     0.000 HD 
HETATM   25  C   UNL     1     -10.318  12.442  66.733  1.00  0.00    -0.239 A  
ENDBRANCH   6   9
TORSDOF 1
ENDMDL
MODEL       19
REMARK 921   NORMALIZED FREE ENERGY PREDICTED BY IDOCK:   -6.61 KCAL/MOL
REMARK 922        TOTAL FREE ENERGY PREDICTED BY IDOCK:   -7.32 KCAL/MOL
REMARK 923 INTER-LIGAND FREE ENERGY PREDICTED BY IDOCK:   -6.81 KCAL/MOL
REMARK 924 INTRA-LIGAND FREE ENERGY PREDICTED BY IDOCK:   -0.51 KCAL/MOL
REMARK 927      BINDING AFFINITY PREDICTED BY RF-SCORE:    0.00 PKD
ROOT
HETATM    1  O   UNL     1     -12.551  14.217  63.077  1.00  0.00    -1.002 OA 
HETATM    2  C   UNL     1     -12.038  14.068  64.331  1.00  0.00    -0.458 A  
HETATM    3  H   UNL     1     -12.300  14.944  62.520  1.00  0.00     0.000 HD 
HETATM    4  C   UNL     1     -12.405  13.006  65.146  1.00  0.00    -0.536 A  
HETATM    5  C   UNL     1     -11.900  12.927  66.448  1.00  0.00    -0.478 A  
HETATM    6  C   UNL     1     -11.009  13.895  66.950  1.00  0.00    -0.300 A  
HETATM    7  C   UNL     1     -10.637  14.942  66.087  1.00  0.00    -0.322 A  
HETATM    8  C   UNL     1     -11.146  15.027  64.787  1.00  0.00    -0.388 A  
ENDROOT
BRANCH   6   9
HETATM    9  C   UNL     1     -10.566  13.903  68.422  1.00  0.00    -0.262 C  
HETATM   10  C   UNL     1      -9.103  14.346  68.727  1.00  0.00    -0.133 C  
HETATM   11  N   UNL     1      -8.020  13.623  68.050  1.00  0.00    -0.139 NA 
HETATM   12  C   UNL     1      -7.892  12.233  68.489  1.00  0.00    -0.111 C  
HETATM   13  H   UNL     1      -7.135  14.118  68.150  1.00  0.00     0.000 HD 
HETATM   14  C   UNL     1      -9.067  11.333  68.084  1.00  0.00    -0.166 C  
HETATM   15  C   UNL     1     -10.224  11.413  69.060  1.00  0.00    -0.137 A  
HETATM   16  C   UNL     1     -10.637  10.300  69.825  1.00  0.00    -0.271 A  
HETATM   17  C   UNL     1     -11.668  10.427  70.764  1.00  0.00    -0.368 A  
HETATM   18 CL   UNL     1      -9.907   8.735  69.659  1.00  0.00    -0.179 Cl 
HETATM   19  C   UNL     1     -12.300  11.646  70.947  1.00  0.00    -0.336 A  
HETATM   20  O   UNL     1     -12.098   9.380  71.541  1.00  0.00    -0.329 OA 
HETATM   21  H   UNL     1     -12.798   9.467  72.178  1.00  0.00     0.000 HD 
HETATM   22  O   UNL     1     -13.283  11.778  71.885  1.00  0.00    -0.482 OA 
HETATM   23  C   UNL     1     -11.941  12.746  70.189  1.00  0.00    -0.371 A  
HETATM   24  H   UNL     1     -13.717  12.614  72.011  1.00  0.00     0.000 HD 
HETATM   25  C   UNL     1     -10.909  12.647  69.232  1.00  0.00    -0.045 A  
ENDBRANCH   6   9
TORSDOF 1
ENDMDL
MODEL       20
REMARK 921   NORMALIZED FREE ENERGY PREDICTED BY IDOCK:   -6.57 KCAL/MOL
REMARK 922        TOTAL FREE ENERGY PREDICTED BY IDOCK:   -7.28 KCAL/MOL
REMARK 923 INTER-LIGAND FREE ENERGY PREDICTED BY IDOCK:   -6.85 KCAL/MOL
REMARK 924 INTRA-LIGAND FREE ENERGY PREDICTED BY IDOCK:   -0.43 KCAL/MOL
REMARK 927      BINDING AFFINITY PREDICTED BY RF-SCORE:    0.00 PKD
ROOT
HETATM    1  O   UNL     1     -12.659  14.386  63.385  1.00  0.00    -1.054 OA 
HETATM    2  C   UNL     1     -11.928  13.985  64.463  1.00  0.00    -0.448 A  
HETATM    3  H   UNL     1     -13.490  13.979  63.168  1.00  0.00     0.000 HD 
HETATM    4  C   UNL     1     -10.714  14.579  64.779  1.00  0.00    -0.414 A  
HETATM    5  C   UNL     1      -9.969  14.094  65.860  1.00  0.00    -0.331 A  
HETATM    6  C   UNL     1     -10.431  13.024  66.650  1.00  0.00    -0.271 A  
HETATM    7  C   UNL     1     -11.679  12.466  66.316  1.00  0.00    -0.457 A  
HETATM    8  C   UNL     1     -12.423  12.943  65.233  1.00  0.00    -0.552 A  
ENDROOT
BRANCH   6   9
HETATM    9  C   UNL     1      -9.557  12.385  67.742  1.00  0.00    -0.202 C  
HETATM   10  C   UNL     1      -8.022  12.321  67.484  1.00  0.00    -0.166 C  
HETATM   11  N   UNL     1      -7.568  11.662  66.254  1.00  0.00    -0.378 NA 
HETATM   12  C   UNL     1      -7.820  10.220  66.245  1.00  0.00    -0.118 C  
HETATM   13  H   UNL     1      -6.582  11.858  66.080  1.00  0.00     0.000 HD 
HETATM   14  C   UNL     1      -9.306   9.841  66.181  1.00  0.00    -0.243 C  
HETATM   15  C   UNL     1      -9.962   9.830  67.548  1.00  0.00    -0.230 A  
HETATM   16  C   UNL     1     -10.477   8.647  68.122  1.00  0.00    -0.187 A  
HETATM   17  C   UNL     1     -11.018   8.662  69.414  1.00  0.00    -0.019 A  
HETATM   18 CL   UNL     1     -10.469   7.128  67.286  1.00  0.00    -0.337 Cl 
HETATM   19  C   UNL     1     -11.061   9.841  70.140  1.00  0.00    -0.285 A  
HETATM   20  O   UNL     1     -11.520   7.538  70.022  1.00  0.00    -0.458 OA 
HETATM   21  H   UNL     1     -11.887   7.548  70.898  1.00  0.00     0.000 HD 
HETATM   22  O   UNL     1     -11.560   9.849  71.410  1.00  0.00    -0.374 OA 
HETATM   23  C   UNL     1     -10.597  11.023  69.591  1.00  0.00    -0.132 A  
HETATM   24  H   UNL     1     -11.590  10.658  71.908  1.00  0.00     0.000 HD 
HETATM   25  C   UNL     1     -10.050  11.040  68.290  1.00  0.00    -0.191 A  
ENDBRANCH   6   9
TORSDOF 1
ENDMDL
MODEL       21
REMARK 921   NORMALIZED FREE ENERGY PREDICTED BY IDOCK:   -6.52 KCAL/MOL
REMARK 922        TOTAL FREE ENERGY PREDICTED BY IDOCK:   -7.22 KCAL/MOL
REMARK 923 INTER-LIGAND FREE ENERGY PREDICTED BY IDOCK:   -6.75 KCAL/MOL
REMARK 924 INTRA-LIGAND FREE ENERGY PREDICTED BY IDOCK:   -0.47 KCAL/MOL
REMARK 927      BINDING AFFINITY PREDICTED BY RF-SCORE:    0.00 PKD
ROOT
HETATM    1  O   UNL     1     -13.089  12.537  72.509  1.00  0.00    -0.338 OA 
HETATM    2  C   UNL     1     -12.717  12.512  71.198  1.00  0.00    -0.245 A  
HETATM    3  H   UNL     1     -13.219  13.355  72.974  1.00  0.00     0.000 HD 
HETATM    4  C   UNL     1     -12.527  11.317  70.518  1.00  0.00    -0.398 A  
HETATM    5  C   UNL     1     -12.086  11.341  69.190  1.00  0.00    -0.348 A  
HETATM    6  C   UNL     1     -11.847  12.554  68.517  1.00  0.00    -0.341 A  
HETATM    7  C   UNL     1     -12.077  13.745  69.229  1.00  0.00    -0.374 A  
HETATM    8  C   UNL     1     -12.511  13.725  70.559  1.00  0.00    -0.409 A  
ENDROOT
BRANCH   6   9
HETATM    9  C   UNL     1     -11.221  12.593  67.113  1.00  0.00    -0.348 C  
HETATM   10  C   UNL     1     -10.493  11.307  66.618  1.00  0.00    -0.247 C  
HETATM   11  N   UNL     1      -9.414  10.773  67.458  1.00  0.00    -0.154 NA 
HETATM   12  C   UNL     1      -8.240  11.645  67.514  1.00  0.00    -0.148 C  
HETATM   13  H   UNL     1      -9.154   9.833  67.160  1.00  0.00     0.000 HD 
HETATM   14  C   UNL     1      -8.475  12.972  68.247  1.00  0.00    -0.159 C  
HETATM   15  C   UNL     1      -9.077  14.034  67.349  1.00  0.00    -0.209 A  
HETATM   16  C   UNL     1      -8.385  15.222  67.026  1.00  0.00    -0.234 A  
HETATM   17  C   UNL     1      -8.945  16.152  66.141  1.00  0.00    -0.337 A  
HETATM   18 CL   UNL     1      -6.826  15.599  67.685  1.00  0.00    -0.181 Cl 
HETATM   19  C   UNL     1     -10.190  15.919  65.578  1.00  0.00    -0.365 A  
HETATM   20  O   UNL     1      -8.309  17.315  65.784  1.00  0.00    -0.535 OA 
HETATM   21  H   UNL     1      -8.689  17.946  65.184  1.00  0.00     0.000 HD 
HETATM   22  O   UNL     1     -10.722  16.810  64.692  1.00  0.00    -0.778 OA 
HETATM   23  C   UNL     1     -10.908  14.781  65.902  1.00  0.00    -0.331 A  
HETATM   24  H   UNL     1     -11.576  16.650  64.306  1.00  0.00     0.000 HD 
HETATM   25  C   UNL     1     -10.371  13.829  66.794  1.00  0.00    -0.272 A  
ENDBRANCH   6   9
TORSDOF 1
ENDMDL
MODEL       22
REMARK 921   NORMALIZED FREE ENERGY PREDICTED BY IDOCK:   -6.48 KCAL/MOL
REMARK 922        TOTAL FREE ENERGY PREDICTED BY IDOCK:   -7.18 KCAL/MOL
REMARK 923 INTER-LIGAND FREE ENERGY PREDICTED BY IDOCK:   -6.66 KCAL/MOL
REMARK 924 INTRA-LIGAND FREE ENERGY PREDICTED BY IDOCK:   -0.52 KCAL/MOL
REMARK 927      BINDING AFFINITY PREDICTED BY RF-SCORE:    0.00 PKD
ROOT
HETATM    1  O   UNL     1     -12.958  15.452  71.992  1.00  0.00    -0.345 OA 
HETATM    2  C   UNL     1     -12.230  15.272  70.855  1.00  0.00    -0.355 A  
HETATM    3  H   UNL     1     -12.902  16.255  72.497  1.00  0.00     0.000 HD 
HETATM    4  C   UNL     1     -12.311  14.099  70.117  1.00  0.00    -0.413 A  
HETATM    5  C   UNL     1     -11.499  13.934  68.990  1.00  0.00    -0.341 A  
HETATM    6  C   UNL     1     -10.608  14.942  68.572  1.00  0.00    -0.245 A  
HETATM    7  C   UNL     1     -10.573  16.128  69.328  1.00  0.00    -0.280 A  
HETATM    8  C   UNL     1     -11.379  16.293  70.459  1.00  0.00    -0.318 A  
ENDROOT
BRANCH   6   9
HETATM    9  C   UNL     1      -9.605  14.716  67.429  1.00  0.00    -0.215 C  
HETATM   10  C   UNL     1      -9.185  15.959  66.589  1.00  0.00    -0.252 C  
HETATM   11  N   UNL     1     -10.253  16.742  65.955  1.00  0.00    -0.463 NA 
HETATM   12  C   UNL     1     -10.944  16.017  64.888  1.00  0.00    -0.384 C  
HETATM   13  H   UNL     1      -9.896  17.634  65.615  1.00  0.00     0.000 HD 
HETATM   14  C   UNL     1     -11.781  14.826  65.373  1.00  0.00    -0.289 C  
HETATM   15  C   UNL     1     -10.955  13.564  65.537  1.00  0.00    -0.295 A  
HETATM   16  C   UNL     1     -11.182  12.414  64.750  1.00  0.00    -0.310 A  
HETATM   17  C   UNL     1     -10.358  11.289  64.884  1.00  0.00    -0.304 A  
HETATM   18 CL   UNL     1     -12.464  12.321  63.586  1.00  0.00    -0.641 Cl 
HETATM   19  C   UNL     1      -9.317  11.291  65.797  1.00  0.00    -0.223 A  
HETATM   20  O   UNL     1     -10.528  10.151  64.135  1.00  0.00    -0.357 OA 
HETATM   21  H   UNL     1      -9.969   9.388  64.225  1.00  0.00     0.000 HD 
HETATM   22  O   UNL     1      -8.495  10.206  65.905  1.00  0.00    -0.132 OA 
HETATM   23  C   UNL     1      -9.092  12.389  66.607  1.00  0.00    -0.204 A  
HETATM   24  H   UNL     1      -7.781  10.207  66.532  1.00  0.00     0.000 HD 
HETATM   25  C   UNL     1      -9.907  13.536  66.498  1.00  0.00    -0.292 A  
ENDBRANCH   6   9
TORSDOF 1
ENDMDL
MODEL       23
REMARK 921   NORMALIZED FREE ENERGY PREDICTED BY IDOCK:   -6.46 KCAL/MOL
REMARK 922        TOTAL FREE ENERGY PREDICTED BY IDOCK:   -7.16 KCAL/MOL
REMARK 923 INTER-LIGAND FREE ENERGY PREDICTED BY IDOCK:   -6.89 KCAL/MOL
REMARK 924 INTRA-LIGAND FREE ENERGY PREDICTED BY IDOCK:   -0.27 KCAL/MOL
REMARK 927      BINDING AFFINITY PREDICTED BY RF-SCORE:    0.00 PKD
ROOT
HETATM    1  O   UNL     1     -12.725   9.957  72.268  1.00  0.00    -0.325 OA 
HETATM    2  C   UNL     1     -11.927  10.026  71.165  1.00  0.00    -0.392 A  
HETATM    3  H   UNL     1     -13.569  10.392  72.299  1.00  0.00     0.000 HD 
HETATM    4  C   UNL     1     -10.693   9.392  71.119  1.00  0.00    -0.417 A  
HETATM    5  C   UNL     1      -9.882   9.541  69.989  1.00  0.00    -0.269 A  
HETATM    6  C   UNL     1     -10.295  10.309  68.883  1.00  0.00    -0.221 A  
HETATM    7  C   UNL     1     -11.563  10.915  68.955  1.00  0.00    -0.378 A  
HETATM    8  C   UNL     1     -12.374  10.773  70.086  1.00  0.00    -0.401 A  
ENDROOT
BRANCH   6   9
HETATM    9  C   UNL     1      -9.355  10.605  67.703  1.00  0.00    -0.156 C  
HETATM   10  C   UNL     1      -7.915  11.096  68.041  1.00  0.00    -0.117 C  
HETATM   11  N   UNL     1      -7.787  12.289  68.887  1.00  0.00    -0.330 NA 
HETATM   12  C   UNL     1      -8.255  13.512  68.234  1.00  0.00    -0.157 C  
HETATM   13  H   UNL     1      -6.828  12.398  69.216  1.00  0.00     0.000 HD 
HETATM   14  C   UNL     1      -9.770  13.557  67.992  1.00  0.00    -0.228 C  
HETATM   15  C   UNL     1     -10.174  12.856  66.710  1.00  0.00    -0.243 A  
HETATM   16  C   UNL     1     -10.758  13.552  65.629  1.00  0.00    -0.281 A  
HETATM   17  C   UNL     1     -11.059  12.885  64.435  1.00  0.00    -0.361 A  
HETATM   18 CL   UNL     1     -11.127  15.245  65.703  1.00  0.00    -0.329 Cl 
HETATM   19  C   UNL     1     -10.795  11.531  64.305  1.00  0.00    -0.359 A  
HETATM   20  O   UNL     1     -11.615  13.517  63.350  1.00  0.00    -0.646 OA 
HETATM   21  H   UNL     1     -11.819  13.064  62.540  1.00  0.00     0.000 HD 
HETATM   22  O   UNL     1     -11.060  10.888  63.131  1.00  0.00    -0.691 OA 
HETATM   23  C   UNL     1     -10.256  10.815  65.359  1.00  0.00    -0.341 A  
HETATM   24  H   UNL     1     -10.879   9.959  63.042  1.00  0.00     0.000 HD 
HETATM   25  C   UNL     1      -9.946  11.459  66.575  1.00  0.00    -0.243 A  
ENDBRANCH   6   9
TORSDOF 1
ENDMDL
MODEL       24
REMARK 921   NORMALIZED FREE ENERGY PREDICTED BY IDOCK:   -6.45 KCAL/MOL
REMARK 922        TOTAL FREE ENERGY PREDICTED BY IDOCK:   -7.14 KCAL/MOL
REMARK 923 INTER-LIGAND FREE ENERGY PREDICTED BY IDOCK:   -6.64 KCAL/MOL
REMARK 924 INTRA-LIGAND FREE ENERGY PREDICTED BY IDOCK:   -0.50 KCAL/MOL
REMARK 927      BINDING AFFINITY PREDICTED BY RF-SCORE:    0.00 PKD
ROOT
HETATM    1  O   UNL     1     -13.762  10.023  72.579  1.00  0.00    -0.632 OA 
HETATM    2  C   UNL     1     -13.054  10.756  71.674  1.00  0.00    -0.446 A  
HETATM    3  H   UNL     1     -14.310  10.437  73.236  1.00  0.00     0.000 HD 
HETATM    4  C   UNL     1     -12.252  10.152  70.716  1.00  0.00    -0.434 A  
HETATM    5  C   UNL     1     -11.497  10.946  69.847  1.00  0.00    -0.402 A  
HETATM    6  C   UNL     1     -11.543  12.352  69.908  1.00  0.00    -0.260 A  
HETATM    7  C   UNL     1     -12.388  12.929  70.874  1.00  0.00    -0.365 A  
HETATM    8  C   UNL     1     -13.139  12.138  71.749  1.00  0.00    -0.457 A  
ENDROOT
BRANCH   6   9
HETATM    9  C   UNL     1     -10.607  13.232  69.064  1.00  0.00    -0.096 C  
HETATM   10  C   UNL     1     -11.185  14.572  68.517  1.00  0.00    -0.266 C  
HETATM   11  N   UNL     1     -12.409  14.503  67.710  1.00  0.00    -0.595 NA 
HETATM   12  C   UNL     1     -12.212  13.841  66.419  1.00  0.00    -0.436 C  
HETATM   13  H   UNL     1     -12.813  15.431  67.583  1.00  0.00     0.000 HD 
HETATM   14  C   UNL     1     -11.911  12.340  66.520  1.00  0.00    -0.378 C  
HETATM   15  C   UNL     1     -10.440  12.057  66.758  1.00  0.00    -0.243 A  
HETATM   16  C   UNL     1      -9.648  11.369  65.814  1.00  0.00    -0.233 A  
HETATM   17  C   UNL     1      -8.278  11.182  66.038  1.00  0.00    -0.094 A  
HETATM   18 CL   UNL     1     -10.303  10.727  64.341  1.00  0.00    -0.431 Cl 
HETATM   19  C   UNL     1      -7.688  11.664  67.195  1.00  0.00    -0.159 A  
HETATM   20  O   UNL     1      -7.462  10.531  65.147  1.00  0.00    -0.254 OA 
HETATM   21  H   UNL     1      -6.532  10.404  65.299  1.00  0.00     0.000 HD 
HETATM   22  O   UNL     1      -6.347  11.509  67.399  1.00  0.00    -0.070 OA 
HETATM   23  C   UNL     1      -8.445  12.312  68.155  1.00  0.00    -0.176 A  
HETATM   24  H   UNL     1      -5.942  11.839  68.192  1.00  0.00     0.000 HD 
HETATM   25  C   UNL     1      -9.828  12.511  67.958  1.00  0.00    -0.214 A  
ENDBRANCH   6   9
TORSDOF 1
ENDMDL
MODEL       25
REMARK 921   NORMALIZED FREE ENERGY PREDICTED BY IDOCK:   -6.44 KCAL/MOL
REMARK 922        TOTAL FREE ENERGY PREDICTED BY IDOCK:   -7.14 KCAL/MOL
REMARK 923 INTER-LIGAND FREE ENERGY PREDICTED BY IDOCK:   -6.69 KCAL/MOL
REMARK 924 INTRA-LIGAND FREE ENERGY PREDICTED BY IDOCK:   -0.45 KCAL/MOL
REMARK 927      BINDING AFFINITY PREDICTED BY RF-SCORE:    0.00 PKD
ROOT
HETATM    1  O   UNL     1     -12.420  13.594  62.910  1.00  0.00    -0.960 OA 
HETATM    2  C   UNL     1     -11.892  13.484  64.161  1.00  0.00    -0.437 A  
HETATM    3  H   UNL     1     -12.026  14.153  62.250  1.00  0.00     0.000 HD 
HETATM    4  C   UNL     1     -12.468  12.669  65.125  1.00  0.00    -0.531 A  
HETATM    5  C   UNL     1     -11.926  12.634  66.414  1.00  0.00    -0.425 A  
HETATM    6  C   UNL     1     -10.792  13.396  66.756  1.00  0.00    -0.286 A  
HETATM    7  C   UNL     1     -10.218  14.189  65.745  1.00  0.00    -0.347 A  
HETATM    8  C   UNL     1     -10.762  14.232  64.457  1.00  0.00    -0.280 A  
ENDROOT
BRANCH   6   9
HETATM    9  C   UNL     1     -10.278  13.484  68.202  1.00  0.00    -0.249 C  
HETATM   10  C   UNL     1     -11.331  13.360  69.344  1.00  0.00    -0.226 C  
HETATM   11  N   UNL     1     -12.463  14.294  69.327  1.00  0.00    -0.528 NA 
HETATM   12  C   UNL     1     -12.070  15.681  69.582  1.00  0.00    -0.308 C  
HETATM   13  H   UNL     1     -13.188  13.997  69.980  1.00  0.00     0.000 HD 
HETATM   14  C   UNL     1     -11.226  16.312  68.466  1.00  0.00    -0.359 C  
HETATM   15  C   UNL     1      -9.750  15.991  68.601  1.00  0.00    -0.217 A  
HETATM   16  C   UNL     1      -8.786  16.993  68.843  1.00  0.00    -0.202 A  
HETATM   17  C   UNL     1      -7.440  16.653  69.027  1.00  0.00    -0.232 A  
HETATM   18 CL   UNL     1      -9.195  18.676  68.932  1.00  0.00    -0.295 Cl 
HETATM   19  C   UNL     1      -7.039  15.328  68.965  1.00  0.00    -0.141 A  
HETATM   20  O   UNL     1      -6.465  17.587  69.277  1.00  0.00    -0.229 OA 
HETATM   21  H   UNL     1      -5.551  17.356  69.402  1.00  0.00     0.000 HD 
HETATM   22  O   UNL     1      -5.732  14.994  69.175  1.00  0.00    -0.096 OA 
HETATM   23  C   UNL     1      -7.955  14.328  68.695  1.00  0.00    -0.139 A  
HETATM   24  H   UNL     1      -5.458  14.085  69.133  1.00  0.00     0.000 HD 
HETATM   25  C   UNL     1      -9.318  14.640  68.502  1.00  0.00    -0.201 A  
ENDBRANCH   6   9
TORSDOF 1
ENDMDL
MODEL       26
REMARK 921   NORMALIZED FREE ENERGY PREDICTED BY IDOCK:   -6.43 KCAL/MOL
REMARK 922        TOTAL FREE ENERGY PREDICTED BY IDOCK:   -7.13 KCAL/MOL
REMARK 923 INTER-LIGAND FREE ENERGY PREDICTED BY IDOCK:   -6.63 KCAL/MOL
REMARK 924 INTRA-LIGAND FREE ENERGY PREDICTED BY IDOCK:   -0.51 KCAL/MOL
REMARK 927      BINDING AFFINITY PREDICTED BY RF-SCORE:    0.00 PKD
ROOT
HETATM    1  O   UNL     1     -12.533  14.286  63.082  1.00  0.00    -1.102 OA 
HETATM    2  C   UNL     1     -12.068  13.483  64.079  1.00  0.00    -0.441 A  
HETATM    3  H   UNL     1     -13.071  15.048  63.266  1.00  0.00     0.000 HD 
HETATM    4  C   UNL     1     -11.284  12.370  63.810  1.00  0.00    -0.520 A  
HETATM    5  C   UNL     1     -10.879  11.540  64.862  1.00  0.00    -0.345 A  
HETATM    6  C   UNL     1     -11.236  11.816  66.195  1.00  0.00    -0.363 A  
HETATM    7  C   UNL     1     -12.009  12.968  66.433  1.00  0.00    -0.466 A  
HETATM    8  C   UNL     1     -12.420  13.796  65.383  1.00  0.00    -0.532 A  
ENDROOT
BRANCH   6   9
HETATM    9  C   UNL     1     -10.928  10.834  67.338  1.00  0.00    -0.361 C  
HETATM   10  C   UNL     1     -10.563  11.442  68.725  1.00  0.00    -0.204 C  
HETATM   11  N   UNL     1      -9.442  12.388  68.777  1.00  0.00    -0.409 NA 
HETATM   12  C   UNL     1      -8.148  11.765  68.498  1.00  0.00    -0.140 C  
HETATM   13  H   UNL     1      -9.423  12.879  69.671  1.00  0.00     0.000 HD 
HETATM   14  C   UNL     1      -7.981  11.280  67.051  1.00  0.00    -0.150 C  
HETATM   15  C   UNL     1      -8.564   9.898  66.831  1.00  0.00    -0.131 A  
HETATM   16  C   UNL     1      -7.757   8.793  66.480  1.00  0.00    -0.099 A  
HETATM   17  C   UNL     1      -8.320   7.517  66.348  1.00  0.00    -0.126 A  
HETATM   18 CL   UNL     1      -6.052   8.937  66.203  1.00  0.00    -0.055 Cl 
HETATM   19  C   UNL     1      -9.678   7.328  66.552  1.00  0.00    -0.140 A  
HETATM   20  O   UNL     1      -7.579   6.409  66.022  1.00  0.00    -0.083 OA 
HETATM   21  H   UNL     1      -7.961   5.543  65.932  1.00  0.00     0.000 HD 
HETATM   22  O   UNL     1     -10.220   6.079  66.453  1.00  0.00    -0.335 OA 
HETATM   23  C   UNL     1     -10.499   8.397  66.862  1.00  0.00    -0.359 A  
HETATM   24  H   UNL     1     -11.151   5.949  66.593  1.00  0.00     0.000 HD 
HETATM   25  C   UNL     1      -9.961   9.694  66.998  1.00  0.00    -0.263 A  
ENDBRANCH   6   9
TORSDOF 1
ENDMDL
MODEL       27
REMARK 921   NORMALIZED FREE ENERGY PREDICTED BY IDOCK:   -6.39 KCAL/MOL
REMARK 922        TOTAL FREE ENERGY PREDICTED BY IDOCK:   -7.09 KCAL/MOL
REMARK 923 INTER-LIGAND FREE ENERGY PREDICTED BY IDOCK:   -6.89 KCAL/MOL
REMARK 924 INTRA-LIGAND FREE ENERGY PREDICTED BY IDOCK:   -0.19 KCAL/MOL
REMARK 927      BINDING AFFINITY PREDICTED BY RF-SCORE:    0.00 PKD
ROOT
HETATM    1  O   UNL     1     -11.453   5.913  70.329  1.00  0.00    -0.272 OA 
HETATM    2  C   UNL     1     -10.968   6.887  69.508  1.00  0.00    -0.250 A  
HETATM    3  H   UNL     1     -11.447   6.010  71.274  1.00  0.00     0.000 HD 
HETATM    4  C   UNL     1     -10.977   6.745  68.127  1.00  0.00    -0.277 A  
HETATM    5  C   UNL     1     -10.413   7.745  67.327  1.00  0.00    -0.392 A  
HETATM    6  C   UNL     1      -9.850   8.906  67.890  1.00  0.00    -0.205 A  
HETATM    7  C   UNL     1      -9.884   9.028  69.291  1.00  0.00    -0.179 A  
HETATM    8  C   UNL     1     -10.441   8.028  70.094  1.00  0.00    -0.225 A  
ENDROOT
BRANCH   6   9
HETATM    9  C   UNL     1      -9.095   9.938  67.035  1.00  0.00    -0.156 C  
HETATM   10  C   UNL     1      -8.155  10.933  67.779  1.00  0.00    -0.115 C  
HETATM   11  N   UNL     1      -8.740  11.743  68.854  1.00  0.00    -0.371 NA 
HETATM   12  C   UNL     1      -9.712  12.726  68.373  1.00  0.00    -0.186 C  
HETATM   13  H   UNL     1      -8.011  12.195  69.406  1.00  0.00     0.000 HD 
HETATM   14  C   UNL     1     -11.002  12.113  67.810  1.00  0.00    -0.278 C  
HETATM   15  C   UNL     1     -10.866  11.707  66.356  1.00  0.00    -0.333 A  
HETATM   16  C   UNL     1     -11.624  12.319  65.334  1.00  0.00    -0.363 A  
HETATM   17  C   UNL     1     -11.426  11.964  63.994  1.00  0.00    -0.398 A  
HETATM   18 CL   UNL     1     -12.821  13.531  65.662  1.00  0.00    -0.470 Cl 
HETATM   19  C   UNL     1     -10.489  11.000  63.658  1.00  0.00    -0.322 A  
HETATM   20  O   UNL     1     -12.127  12.537  62.962  1.00  0.00    -0.673 OA 
HETATM   21  H   UNL     1     -11.993  12.296  62.053  1.00  0.00     0.000 HD 
HETATM   22  O   UNL     1     -10.274  10.676  62.349  1.00  0.00    -0.743 OA 
HETATM   23  C   UNL     1      -9.756  10.357  64.640  1.00  0.00    -0.392 A  
HETATM   24  H   UNL     1      -9.632  10.015  62.118  1.00  0.00     0.000 HD 
HETATM   25  C   UNL     1      -9.936  10.692  65.999  1.00  0.00    -0.295 A  
ENDBRANCH   6   9
TORSDOF 1
ENDMDL
MODEL       28
REMARK 921   NORMALIZED FREE ENERGY PREDICTED BY IDOCK:   -6.39 KCAL/MOL
REMARK 922        TOTAL FREE ENERGY PREDICTED BY IDOCK:   -7.09 KCAL/MOL
REMARK 923 INTER-LIGAND FREE ENERGY PREDICTED BY IDOCK:   -6.69 KCAL/MOL
REMARK 924 INTRA-LIGAND FREE ENERGY PREDICTED BY IDOCK:   -0.39 KCAL/MOL
REMARK 927      BINDING AFFINITY PREDICTED BY RF-SCORE:    0.00 PKD
ROOT
HETATM    1  O   UNL     1      -5.159  12.806  69.392  1.00  0.00    -0.073 OA 
HETATM    2  C   UNL     1      -6.272  13.548  69.135  1.00  0.00    -0.097 A  
HETATM    3  H   UNL     1      -4.796  12.212  68.745  1.00  0.00     0.000 HD 
HETATM    4  C   UNL     1      -6.803  14.415  70.080  1.00  0.00     0.012 A  
HETATM    5  C   UNL     1      -7.982  15.112  69.794  1.00  0.00    -0.019 A  
HETATM    6  C   UNL     1      -8.639  14.968  68.557  1.00  0.00    -0.166 A  
HETATM    7  C   UNL     1      -8.057  14.101  67.613  1.00  0.00    -0.188 A  
HETATM    8  C   UNL     1      -6.882  13.399  67.898  1.00  0.00    -0.144 A  
ENDROOT
BRANCH   6   9
HETATM    9  C   UNL     1     -10.011  15.607  68.287  1.00  0.00    -0.213 C  
HETATM   10  C   UNL     1     -11.036  15.624  69.460  1.00  0.00    -0.281 C  
HETATM   11  N   UNL     1     -11.375  14.338  70.082  1.00  0.00    -0.455 NA 
HETATM   12  C   UNL     1     -12.120  13.446  69.193  1.00  0.00    -0.261 C  
HETATM   13  H   UNL     1     -11.879  14.481  70.957  1.00  0.00     0.000 HD 
HETATM   14  C   UNL     1     -11.309  12.924  67.999  1.00  0.00    -0.333 C  
HETATM   15  C   UNL     1     -11.303  13.892  66.832  1.00  0.00    -0.343 A  
HETATM   16  C   UNL     1     -11.888  13.570  65.589  1.00  0.00    -0.369 A  
HETATM   17  C   UNL     1     -11.922  14.513  64.554  1.00  0.00    -0.468 A  
HETATM   18 CL   UNL     1     -12.597  12.019  65.268  1.00  0.00     0.231 Cl 
HETATM   19  C   UNL     1     -11.372  15.771  64.737  1.00  0.00    -0.314 A  
HETATM   20  O   UNL     1     -12.490  14.254  63.331  1.00  0.00    -1.125 OA 
HETATM   21  H   UNL     1     -12.512  14.894  62.629  1.00  0.00     0.000 HD 
HETATM   22  O   UNL     1     -11.432  16.700  63.739  1.00  0.00    -1.518 OA 
HETATM   23  C   UNL     1     -10.759  16.104  65.932  1.00  0.00    -0.261 A  
HETATM   24  H   UNL     1     -11.054  17.563  63.865  1.00  0.00     0.000 HD 
HETATM   25  C   UNL     1     -10.707  15.174  66.992  1.00  0.00    -0.307 A  
ENDBRANCH   6   9
TORSDOF 1
ENDMDL
MODEL       29
REMARK 921   NORMALIZED FREE ENERGY PREDICTED BY IDOCK:   -6.34 KCAL/MOL
REMARK 922        TOTAL FREE ENERGY PREDICTED BY IDOCK:   -7.03 KCAL/MOL
REMARK 923 INTER-LIGAND FREE ENERGY PREDICTED BY IDOCK:   -6.51 KCAL/MOL
REMARK 924 INTRA-LIGAND FREE ENERGY PREDICTED BY IDOCK:   -0.52 KCAL/MOL
REMARK 927      BINDING AFFINITY PREDICTED BY RF-SCORE:    0.00 PKD
ROOT
HETATM    1  O   UNL     1     -10.485  20.071  68.699  1.00  0.00    -0.509 OA 
HETATM    2  C   UNL     1     -10.349  18.836  68.139  1.00  0.00    -0.365 A  
HETATM    3  H   UNL     1     -10.674  20.838  68.171  1.00  0.00     0.000 HD 
HETATM    4  C   UNL     1     -10.072  17.715  68.909  1.00  0.00    -0.351 A  
HETATM    5  C   UNL     1      -9.882  16.477  68.284  1.00  0.00    -0.243 A  
HETATM    6  C   UNL     1      -9.981  16.337  66.887  1.00  0.00    -0.263 A  
HETATM    7  C   UNL     1     -10.290  17.489  66.141  1.00  0.00    -0.330 A  
HETATM    8  C   UNL     1     -10.475  18.729  66.762  1.00  0.00    -0.478 A  
ENDROOT
BRANCH   6   9
HETATM    9  C   UNL     1      -9.626  15.020  66.177  1.00  0.00    -0.345 C  
HETATM   10  C   UNL     1     -10.366  14.704  64.842  1.00  0.00    -0.350 C  
HETATM   11  N   UNL     1     -11.834  14.693  64.867  1.00  0.00    -0.396 NA 
HETATM   12  C   UNL     1     -12.389  13.593  65.656  1.00  0.00    -0.478 C  
HETATM   13  H   UNL     1     -12.212  14.688  63.921  1.00  0.00     0.000 HD 
HETATM   14  C   UNL     1     -12.128  13.704  67.164  1.00  0.00    -0.404 C  
HETATM   15  C   UNL     1     -10.773  13.152  67.562  1.00  0.00    -0.248 A  
HETATM   16  C   UNL     1     -10.642  12.025  68.403  1.00  0.00    -0.217 A  
HETATM   17  C   UNL     1      -9.376  11.503  68.697  1.00  0.00    -0.137 A  
HETATM   18 CL   UNL     1     -12.010  11.225  69.108  1.00  0.00    -0.404 Cl 
HETATM   19  C   UNL     1      -8.237  12.093  68.172  1.00  0.00    -0.164 A  
HETATM   20  O   UNL     1      -9.194  10.403  69.498  1.00  0.00    -0.316 OA 
HETATM   21  H   UNL     1      -8.335  10.049  69.698  1.00  0.00     0.000 HD 
HETATM   22  O   UNL     1      -7.006  11.565  68.434  1.00  0.00    -0.068 OA 
HETATM   23  C   UNL     1      -8.332  13.219  67.374  1.00  0.00    -0.193 A  
HETATM   24  H   UNL     1      -6.225  11.970  68.074  1.00  0.00     0.000 HD 
HETATM   25  C   UNL     1      -9.594  13.770  67.063  1.00  0.00    -0.251 A  
ENDBRANCH   6   9
TORSDOF 1
ENDMDL
MODEL       30
REMARK 921   NORMALIZED FREE ENERGY PREDICTED BY IDOCK:   -6.27 KCAL/MOL
REMARK 922        TOTAL FREE ENERGY PREDICTED BY IDOCK:   -6.96 KCAL/MOL
REMARK 923 INTER-LIGAND FREE ENERGY PREDICTED BY IDOCK:   -6.50 KCAL/MOL
REMARK 924 INTRA-LIGAND FREE ENERGY PREDICTED BY IDOCK:   -0.46 KCAL/MOL
REMARK 927      BINDING AFFINITY PREDICTED BY RF-SCORE:    0.00 PKD
ROOT
HETATM    1  O   UNL     1      -6.919  16.749  69.050  1.00  0.00    -0.196 OA 
HETATM    2  C   UNL     1      -8.042  16.060  68.703  1.00  0.00    -0.187 A  
HETATM    3  H   UNL     1      -6.224  16.916  68.423  1.00  0.00     0.000 HD 
HETATM    4  C   UNL     1      -9.057  15.815  69.619  1.00  0.00    -0.109 A  
HETATM    5  C   UNL     1     -10.164  15.051  69.234  1.00  0.00    -0.244 A  
HETATM    6  C   UNL     1     -10.284  14.536  67.929  1.00  0.00    -0.231 A  
HETATM    7  C   UNL     1      -9.250  14.828  67.021  1.00  0.00    -0.248 A  
HETATM    8  C   UNL     1      -8.138  15.585  67.404  1.00  0.00    -0.201 A  
ENDROOT
BRANCH   6   9
HETATM    9  C   UNL     1     -11.417  13.572  67.539  1.00  0.00    -0.361 C  
HETATM   10  C   UNL     1     -11.985  12.646  68.655  1.00  0.00    -0.223 C  
HETATM   11  N   UNL     1     -11.035  11.784  69.370  1.00  0.00    -0.425 NA 
HETATM   12  C   UNL     1     -10.462  10.734  68.528  1.00  0.00    -0.187 C  
HETATM   13  H   UNL     1     -11.465  11.385  70.205  1.00  0.00     0.000 HD 
HETATM   14  C   UNL     1      -9.527  11.251  67.425  1.00  0.00    -0.175 C  
HETATM   15  C   UNL     1     -10.279  11.678  66.180  1.00  0.00    -0.263 A  
HETATM   16  C   UNL     1     -10.114  11.018  64.943  1.00  0.00    -0.300 A  
HETATM   17  C   UNL     1     -10.873  11.398  63.829  1.00  0.00    -0.395 A  
HETATM   18 CL   UNL     1      -8.989   9.716  64.726  1.00  0.00    -0.248 Cl 
HETATM   19  C   UNL     1     -11.789  12.434  63.927  1.00  0.00    -0.466 A  
HETATM   20  O   UNL     1     -10.760  10.782  62.607  1.00  0.00    -0.703 OA 
HETATM   21  H   UNL     1     -11.275  11.040  61.851  1.00  0.00     0.000 HD 
HETATM   22  O   UNL     1     -12.550  12.783  62.850  1.00  0.00    -0.569 OA 
HETATM   23  C   UNL     1     -11.947  13.122  65.116  1.00  0.00    -0.431 A  
HETATM   24  H   UNL     1     -13.178  13.493  62.917  1.00  0.00     0.000 HD 
HETATM   25  C   UNL     1     -11.194  12.764  66.255  1.00  0.00    -0.339 A  
ENDBRANCH   6   9
TORSDOF 1
ENDMDL
MODEL       31
REMARK 921   NORMALIZED FREE ENERGY PREDICTED BY IDOCK:   -6.26 KCAL/MOL
REMARK 922        TOTAL FREE ENERGY PREDICTED BY IDOCK:   -6.94 KCAL/MOL
REMARK 923 INTER-LIGAND FREE ENERGY PREDICTED BY IDOCK:   -6.48 KCAL/MOL
REMARK 924 INTRA-LIGAND FREE ENERGY PREDICTED BY IDOCK:   -0.46 KCAL/MOL
REMARK 927      BINDING AFFINITY PREDICTED BY RF-SCORE:    0.00 PKD
ROOT
HETATM    1  O   UNL     1     -10.566  17.642  69.333  1.00  0.00    -0.404 OA 
HETATM    2  C   UNL     1     -10.925  16.388  68.937  1.00  0.00    -0.332 A  
HETATM    3  H   UNL     1     -10.161  18.256  68.732  1.00  0.00     0.000 HD 
HETATM    4  C   UNL     1     -11.515  15.489  69.815  1.00  0.00    -0.339 A  
HETATM    5  C   UNL     1     -11.811  14.192  69.380  1.00  0.00    -0.378 A  
HETATM    6  C   UNL     1     -11.539  13.779  68.062  1.00  0.00    -0.368 A  
HETATM    7  C   UNL     1     -10.965  14.725  67.193  1.00  0.00    -0.320 A  
HETATM    8  C   UNL     1     -10.662  16.020  67.626  1.00  0.00    -0.320 A  
ENDROOT
BRANCH   6   9
HETATM    9  C   UNL     1     -11.718  12.318  67.616  1.00  0.00    -0.403 C  
HETATM   10  C   UNL     1     -11.864  11.242  68.733  1.00  0.00    -0.329 C  
HETATM   11  N   UNL     1     -10.800  11.163  69.742  1.00  0.00    -0.459 NA 
HETATM   12  C   UNL     1      -9.523  10.699  69.199  1.00  0.00    -0.170 C  
HETATM   13  H   UNL     1     -11.091  10.585  70.530  1.00  0.00     0.000 HD 
HETATM   14  C   UNL     1      -8.856  11.683  68.229  1.00  0.00    -0.167 C  
HETATM   15  C   UNL     1      -9.376  11.546  66.812  1.00  0.00    -0.191 A  
HETATM   16  C   UNL     1      -8.547  11.130  65.747  1.00  0.00    -0.113 A  
HETATM   17  C   UNL     1      -9.077  10.952  64.463  1.00  0.00    -0.163 A  
HETATM   18 CL   UNL     1      -6.855  10.814  65.954  1.00  0.00    -0.116 Cl 
HETATM   19  C   UNL     1     -10.421  11.189  64.222  1.00  0.00    -0.362 A  
HETATM   20  O   UNL     1      -8.318  10.538  63.397  1.00  0.00    -0.182 OA 
HETATM   21  H   UNL     1      -8.677  10.417  62.525  1.00  0.00     0.000 HD 
HETATM   22  O   UNL     1     -10.943  10.985  62.978  1.00  0.00    -0.798 OA 
HETATM   23  C   UNL     1     -11.250  11.631  65.237  1.00  0.00    -0.263 A  
HETATM   24  H   UNL     1     -11.865  11.149  62.812  1.00  0.00     0.000 HD 
HETATM   25  C   UNL     1     -10.744  11.823  66.540  1.00  0.00    -0.304 A  
ENDBRANCH   6   9
TORSDOF 1
ENDMDL
MODEL       32
REMARK 921   NORMALIZED FREE ENERGY PREDICTED BY IDOCK:   -6.24 KCAL/MOL
REMARK 922        TOTAL FREE ENERGY PREDICTED BY IDOCK:   -6.93 KCAL/MOL
REMARK 923 INTER-LIGAND FREE ENERGY PREDICTED BY IDOCK:   -6.41 KCAL/MOL
REMARK 924 INTRA-LIGAND FREE ENERGY PREDICTED BY IDOCK:   -0.51 KCAL/MOL
REMARK 927      BINDING AFFINITY PREDICTED BY RF-SCORE:    0.00 PKD
ROOT
HETATM    1  O   UNL     1     -12.639  14.939  63.597  1.00  0.00    -1.006 OA 
HETATM    2  C   UNL     1     -11.952  14.258  64.557  1.00  0.00    -0.462 A  
HETATM    3  H   UNL     1     -12.276  15.712  63.179  1.00  0.00     0.000 HD 
HETATM    4  C   UNL     1     -12.482  13.130  65.168  1.00  0.00    -0.539 A  
HETATM    5  C   UNL     1     -11.767  12.498  66.191  1.00  0.00    -0.466 A  
HETATM    6  C   UNL     1     -10.507  12.970  66.606  1.00  0.00    -0.271 A  
HETATM    7  C   UNL     1      -9.989  14.099  65.946  1.00  0.00    -0.331 A  
HETATM    8  C   UNL     1     -10.705  14.737  64.927  1.00  0.00    -0.438 A  
ENDROOT
BRANCH   6   9
HETATM    9  C   UNL     1      -9.781  12.379  67.826  1.00  0.00    -0.201 C  
HETATM   10  C   UNL     1      -8.238  12.581  67.908  1.00  0.00    -0.165 C  
HETATM   11  N   UNL     1      -7.432  12.115  66.773  1.00  0.00    -0.376 NA 
HETATM   12  C   UNL     1      -7.425  10.658  66.630  1.00  0.00    -0.129 C  
HETATM   13  H   UNL     1      -6.481  12.478  66.830  1.00  0.00     0.000 HD 
HETATM   14  C   UNL     1      -8.777  10.058  66.222  1.00  0.00    -0.148 C  
HETATM   15  C   UNL     1      -9.690   9.821  67.409  1.00  0.00    -0.202 A  
HETATM   16  C   UNL     1     -10.101   8.525  67.790  1.00  0.00    -0.211 A  
HETATM   17  C   UNL     1     -10.892   8.338  68.930  1.00  0.00     0.034 A  
HETATM   18 CL   UNL     1      -9.658   7.107  66.894  1.00  0.00    -0.201 Cl 
HETATM   19  C   UNL     1     -11.287   9.425  69.693  1.00  0.00     0.008 A  
HETATM   20  O   UNL     1     -11.307   7.099  69.351  1.00  0.00    -0.473 OA 
HETATM   21  H   UNL     1     -11.844   6.971  70.125  1.00  0.00     0.000 HD 
HETATM   22  O   UNL     1     -12.032   9.239  70.821  1.00  0.00    -0.353 OA 
HETATM   23  C   UNL     1     -10.930  10.710  69.325  1.00  0.00    -0.294 A  
HETATM   24  H   UNL     1     -12.303   9.985  71.344  1.00  0.00     0.000 HD 
HETATM   25  C   UNL     1     -10.137  10.930  68.179  1.00  0.00    -0.190 A  
ENDBRANCH   6   9
TORSDOF 1
ENDMDL
MODEL       33
REMARK 921   NORMALIZED FREE ENERGY PREDICTED BY IDOCK:   -6.24 KCAL/MOL
REMARK 922        TOTAL FREE ENERGY PREDICTED BY IDOCK:   -6.92 KCAL/MOL
REMARK 923 INTER-LIGAND FREE ENERGY PREDICTED BY IDOCK:   -6.64 KCAL/MOL
REMARK 924 INTRA-LIGAND FREE ENERGY PREDICTED BY IDOCK:   -0.28 KCAL/MOL
REMARK 927      BINDING AFFINITY PREDICTED BY RF-SCORE:    0.00 PKD
ROOT
HETATM    1  O   UNL     1     -13.441  11.829  72.394  1.00  0.00    -0.612 OA 
HETATM    2  C   UNL     1     -12.919  12.601  71.399  1.00  0.00    -0.258 A  
HETATM    3  H   UNL     1     -13.436  10.880  72.342  1.00  0.00     0.000 HD 
HETATM    4  C   UNL     1     -12.926  13.986  71.474  1.00  0.00    -0.427 A  
HETATM    5  C   UNL     1     -12.434  14.738  70.401  1.00  0.00    -0.405 A  
HETATM    6  C   UNL     1     -11.912  14.121  69.249  1.00  0.00    -0.382 A  
HETATM    7  C   UNL     1     -11.896  12.714  69.220  1.00  0.00    -0.358 A  
HETATM    8  C   UNL     1     -12.393  11.959  70.287  1.00  0.00    -0.287 A  
ENDROOT
BRANCH   6   9
HETATM    9  C   UNL     1     -11.509  14.931  68.006  1.00  0.00    -0.355 C  
HETATM   10  C   UNL     1     -11.175  14.134  66.709  1.00  0.00    -0.323 C  
HETATM   11  N   UNL     1     -10.134  13.103  66.796  1.00  0.00    -0.248 NA 
HETATM   12  C   UNL     1      -8.798  13.651  67.030  1.00  0.00    -0.223 C  
HETATM   13  H   UNL     1     -10.142  12.508  65.968  1.00  0.00     0.000 HD 
HETATM   14  C   UNL     1      -8.612  14.291  68.413  1.00  0.00    -0.175 C  
HETATM   15  C   UNL     1      -9.084  15.731  68.454  1.00  0.00    -0.188 A  
HETATM   16  C   UNL     1      -8.195  16.803  68.690  1.00  0.00    -0.252 A  
HETATM   17  C   UNL     1      -8.654  18.126  68.657  1.00  0.00    -0.267 A  
HETATM   18 CL   UNL     1      -6.511  16.559  69.024  1.00  0.00    -0.170 Cl 
HETATM   19  C   UNL     1      -9.988  18.396  68.400  1.00  0.00    -0.379 A  
HETATM   20  O   UNL     1      -7.830  19.204  68.867  1.00  0.00    -0.345 OA 
HETATM   21  H   UNL     1      -8.141  20.101  68.845  1.00  0.00     0.000 HD 
HETATM   22  O   UNL     1     -10.429  19.686  68.338  1.00  0.00    -0.447 OA 
HETATM   23  C   UNL     1     -10.890  17.366  68.200  1.00  0.00    -0.273 A  
HETATM   24  H   UNL     1     -11.344  19.872  68.162  1.00  0.00     0.000 HD 
HETATM   25  C   UNL     1     -10.457  16.023  68.231  1.00  0.00    -0.269 A  
ENDBRANCH   6   9
TORSDOF 1
ENDMDL
MODEL       34
REMARK 921   NORMALIZED FREE ENERGY PREDICTED BY IDOCK:   -6.15 KCAL/MOL
REMARK 922        TOTAL FREE ENERGY PREDICTED BY IDOCK:   -6.83 KCAL/MOL
REMARK 923 INTER-LIGAND FREE ENERGY PREDICTED BY IDOCK:   -6.61 KCAL/MOL
REMARK 924 INTRA-LIGAND FREE ENERGY PREDICTED BY IDOCK:   -0.22 KCAL/MOL
REMARK 927      BINDING AFFINITY PREDICTED BY RF-SCORE:    0.00 PKD
ROOT
HETATM    1  O   UNL     1     -14.218  15.528  72.353  1.00  0.00    -0.553 OA 
HETATM    2  C   UNL     1     -13.126  15.212  71.601  1.00  0.00    -0.388 A  
HETATM    3  H   UNL     1     -14.962  14.942  72.420  1.00  0.00     0.000 HD 
HETATM    4  C   UNL     1     -12.038  16.068  71.503  1.00  0.00    -0.513 A  
HETATM    5  C   UNL     1     -10.965  15.728  70.671  1.00  0.00    -0.341 A  
HETATM    6  C   UNL     1     -10.953  14.525  69.941  1.00  0.00    -0.147 A  
HETATM    7  C   UNL     1     -12.061  13.669  70.087  1.00  0.00    -0.431 A  
HETATM    8  C   UNL     1     -13.138  14.008  70.912  1.00  0.00    -0.296 A  
ENDROOT
BRANCH   6   9
HETATM    9  C   UNL     1      -9.856  14.211  68.911  1.00  0.00    -0.110 C  
HETATM   10  C   UNL     1      -8.524  15.013  69.017  1.00  0.00    -0.200 C  
HETATM   11  N   UNL     1      -8.611  16.478  68.987  1.00  0.00    -0.237 NA 
HETATM   12  C   UNL     1      -9.046  17.004  67.693  1.00  0.00    -0.229 C  
HETATM   13  H   UNL     1      -7.727  16.900  69.271  1.00  0.00     0.000 HD 
HETATM   14  C   UNL     1     -10.501  16.674  67.334  1.00  0.00    -0.314 C  
HETATM   15  C   UNL     1     -10.647  15.306  66.697  1.00  0.00    -0.304 A  
HETATM   16  C   UNL     1     -11.092  15.144  65.367  1.00  0.00    -0.367 A  
HETATM   17  C   UNL     1     -11.152  13.869  64.789  1.00  0.00    -0.383 A  
HETATM   18 CL   UNL     1     -11.576  16.484  64.378  1.00  0.00    -0.088 Cl 
HETATM   19  C   UNL     1     -10.784  12.752  65.521  1.00  0.00    -0.278 A  
HETATM   20  O   UNL     1     -11.565  13.658  63.497  1.00  0.00    -0.634 OA 
HETATM   21  H   UNL     1     -11.607  12.794  63.105  1.00  0.00     0.000 HD 
HETATM   22  O   UNL     1     -10.814  11.514  64.948  1.00  0.00    -0.298 OA 
HETATM   23  C   UNL     1     -10.378  12.876  66.838  1.00  0.00    -0.247 A  
HETATM   24  H   UNL     1     -10.562  10.747  65.450  1.00  0.00     0.000 HD 
HETATM   25  C   UNL     1     -10.310  14.146  67.448  1.00  0.00    -0.256 A  
ENDBRANCH   6   9
TORSDOF 1
ENDMDL
MODEL       35
REMARK 921   NORMALIZED FREE ENERGY PREDICTED BY IDOCK:   -6.09 KCAL/MOL
REMARK 922        TOTAL FREE ENERGY PREDICTED BY IDOCK:   -6.77 KCAL/MOL
REMARK 923 INTER-LIGAND FREE ENERGY PREDICTED BY IDOCK:   -6.40 KCAL/MOL
REMARK 924 INTRA-LIGAND FREE ENERGY PREDICTED BY IDOCK:   -0.36 KCAL/MOL
REMARK 927      BINDING AFFINITY PREDICTED BY RF-SCORE:    0.00 PKD
ROOT
HETATM    1  O   UNL     1     -10.233   4.915  67.523  1.00  0.00    -0.159 OA 
HETATM    2  C   UNL     1      -9.951   6.164  67.057  1.00  0.00    -0.162 A  
HETATM    3  H   UNL     1      -9.639   4.186  67.385  1.00  0.00     0.000 HD 
HETATM    4  C   UNL     1     -10.819   7.228  67.257  1.00  0.00    -0.354 A  
HETATM    5  C   UNL     1     -10.516   8.479  66.709  1.00  0.00    -0.308 A  
HETATM    6  C   UNL     1      -9.336   8.692  65.970  1.00  0.00    -0.284 A  
HETATM    7  C   UNL     1      -8.467   7.597  65.811  1.00  0.00    -0.153 A  
HETATM    8  C   UNL     1      -8.770   6.343  66.352  1.00  0.00    -0.140 A  
ENDROOT
BRANCH   6   9
HETATM    9  C   UNL     1      -9.065  10.016  65.237  1.00  0.00    -0.243 C  
HETATM   10  C   UNL     1      -7.679  10.690  65.466  1.00  0.00    -0.083 C  
HETATM   11  N   UNL     1      -7.288  10.981  66.850  1.00  0.00    -0.126 NA 
HETATM   12  C   UNL     1      -8.108  12.018  67.477  1.00  0.00    -0.159 C  
HETATM   13  H   UNL     1      -6.298  11.220  66.904  1.00  0.00     0.000 HD 
HETATM   14  C   UNL     1      -9.565  11.604  67.726  1.00  0.00    -0.178 C  
HETATM   15  C   UNL     1     -10.444  11.808  66.507  1.00  0.00    -0.265 A  
HETATM   16  C   UNL     1     -11.514  12.729  66.502  1.00  0.00    -0.355 A  
HETATM   17  C   UNL     1     -12.264  12.938  65.338  1.00  0.00    -0.478 A  
HETATM   18 CL   UNL     1     -11.959  13.647  67.904  1.00  0.00    -0.398 Cl 
HETATM   19  C   UNL     1     -11.968  12.237  64.180  1.00  0.00    -0.432 A  
HETATM   20  O   UNL     1     -13.306  13.830  65.276  1.00  0.00    -0.710 OA 
HETATM   21  H   UNL     1     -13.815  13.972  64.486  1.00  0.00     0.000 HD 
HETATM   22  O   UNL     1     -12.679  12.464  63.037  1.00  0.00    -0.697 OA 
HETATM   23  C   UNL     1     -10.948  11.303  64.164  1.00  0.00    -0.376 A  
HETATM   24  H   UNL     1     -12.476  11.983  62.243  1.00  0.00     0.000 HD 
HETATM   25  C   UNL     1     -10.177  11.067  65.323  1.00  0.00    -0.344 A  
ENDBRANCH   6   9
TORSDOF 1
ENDMDL
MODEL       36
REMARK 921   NORMALIZED FREE ENERGY PREDICTED BY IDOCK:   -6.07 KCAL/MOL
REMARK 922        TOTAL FREE ENERGY PREDICTED BY IDOCK:   -6.75 KCAL/MOL
REMARK 923 INTER-LIGAND FREE ENERGY PREDICTED BY IDOCK:   -6.33 KCAL/MOL
REMARK 924 INTRA-LIGAND FREE ENERGY PREDICTED BY IDOCK:   -0.41 KCAL/MOL
REMARK 927      BINDING AFFINITY PREDICTED BY RF-SCORE:    0.00 PKD
ROOT
HETATM    1  O   UNL     1     -12.539  13.977  62.957  1.00  0.00    -1.027 OA 
HETATM    2  C   UNL     1     -11.812  13.274  63.872  1.00  0.00    -0.465 A  
HETATM    3  H   UNL     1     -12.695  14.909  63.056  1.00  0.00     0.000 HD 
HETATM    4  C   UNL     1     -11.584  11.913  63.728  1.00  0.00    -0.555 A  
HETATM    5  C   UNL     1     -10.884  11.221  64.722  1.00  0.00    -0.314 A  
HETATM    6  C   UNL     1     -10.387  11.879  65.864  1.00  0.00    -0.277 A  
HETATM    7  C   UNL     1     -10.614  13.264  65.962  1.00  0.00    -0.292 A  
HETATM    8  C   UNL     1     -11.319  13.957  64.973  1.00  0.00    -0.336 A  
ENDROOT
BRANCH   6   9
HETATM    9  C   UNL     1      -9.751  11.107  67.032  1.00  0.00    -0.210 C  
HETATM   10  C   UNL     1      -8.416  11.662  67.613  1.00  0.00    -0.142 C  
HETATM   11  N   UNL     1      -7.298  11.852  66.681  1.00  0.00    -0.372 NA 
HETATM   12  C   UNL     1      -6.767  10.594  66.154  1.00  0.00    -0.132 C  
HETATM   13  H   UNL     1      -6.558  12.406  67.111  1.00  0.00     0.000 HD 
HETATM   14  C   UNL     1      -7.728   9.846  65.220  1.00  0.00    -0.129 C  
HETATM   15  C   UNL     1      -8.714   8.978  65.976  1.00  0.00    -0.184 A  
HETATM   16  C   UNL     1      -8.722   7.571  65.850  1.00  0.00    -0.147 A  
HETATM   17  C   UNL     1      -9.605   6.796  66.613  1.00  0.00    -0.163 A  
HETATM   18 CL   UNL     1      -7.659   6.727  64.771  1.00  0.00    -0.096 Cl 
HETATM   19  C   UNL     1     -10.485   7.403  67.494  1.00  0.00    -0.268 A  
HETATM   20  O   UNL     1      -9.644   5.426  66.538  1.00  0.00    -0.140 OA 
HETATM   21  H   UNL     1     -10.243   4.900  67.056  1.00  0.00     0.000 HD 
HETATM   22  O   UNL     1     -11.323   6.645  68.259  1.00  0.00    -0.556 OA 
HETATM   23  C   UNL     1     -10.525   8.780  67.613  1.00  0.00    -0.310 A  
HETATM   24  H   UNL     1     -11.928   7.061  68.864  1.00  0.00     0.000 HD 
HETATM   25  C   UNL     1      -9.651   9.588  66.855  1.00  0.00    -0.217 A  
ENDBRANCH   6   9
TORSDOF 1
ENDMDL
MODEL       37
REMARK 921   NORMALIZED FREE ENERGY PREDICTED BY IDOCK:   -6.05 KCAL/MOL
REMARK 922        TOTAL FREE ENERGY PREDICTED BY IDOCK:   -6.72 KCAL/MOL
REMARK 923 INTER-LIGAND FREE ENERGY PREDICTED BY IDOCK:   -6.71 KCAL/MOL
REMARK 924 INTRA-LIGAND FREE ENERGY PREDICTED BY IDOCK:   -0.01 KCAL/MOL
REMARK 927      BINDING AFFINITY PREDICTED BY RF-SCORE:    0.00 PKD
ROOT
HETATM    1  O   UNL     1     -12.603   8.882  71.557  1.00  0.00    -0.312 OA 
HETATM    2  C   UNL     1     -11.902   9.764  70.789  1.00  0.00    -0.319 A  
HETATM    3  H   UNL     1     -12.258   8.023  71.769  1.00  0.00     0.000 HD 
HETATM    4  C   UNL     1     -12.406  11.019  70.479  1.00  0.00    -0.462 A  
HETATM    5  C   UNL     1     -11.678  11.867  69.637  1.00  0.00    -0.413 A  
HETATM    6  C   UNL     1     -10.431  11.483  69.107  1.00  0.00    -0.135 A  
HETATM    7  C   UNL     1      -9.939  10.215  69.466  1.00  0.00    -0.257 A  
HETATM    8  C   UNL     1     -10.668   9.362  70.301  1.00  0.00    -0.299 A  
ENDROOT
BRANCH   6   9
HETATM    9  C   UNL     1      -9.694  12.339  68.064  1.00  0.00    -0.205 C  
HETATM   10  C   UNL     1      -9.770  13.887  68.226  1.00  0.00    -0.223 C  
HETATM   11  N   UNL     1     -11.104  14.498  68.288  1.00  0.00    -0.252 NA 
HETATM   12  C   UNL     1     -11.841  14.403  67.027  1.00  0.00    -0.412 C  
HETATM   13  H   UNL     1     -11.046  15.466  68.601  1.00  0.00     0.000 HD 
HETATM   14  C   UNL     1     -12.252  12.975  66.642  1.00  0.00    -0.285 C  
HETATM   15  C   UNL     1     -11.149  12.227  65.920  1.00  0.00    -0.360 A  
HETATM   16  C   UNL     1     -11.285  11.802  64.580  1.00  0.00    -0.286 A  
HETATM   17  C   UNL     1     -10.221  11.171  63.924  1.00  0.00    -0.362 A  
HETATM   18 CL   UNL     1     -12.746  12.034  63.675  1.00  0.00    -0.611 Cl 
HETATM   19  C   UNL     1      -9.025  10.949  64.587  1.00  0.00    -0.132 A  
HETATM   20  O   UNL     1     -10.297  10.750  62.620  1.00  0.00    -0.761 OA 
HETATM   21  H   UNL     1      -9.576  10.322  62.174  1.00  0.00     0.000 HD 
HETATM   22  O   UNL     1      -7.978  10.362  63.937  1.00  0.00    -0.228 OA 
HETATM   23  C   UNL     1      -8.873  11.322  65.910  1.00  0.00    -0.174 A  
HETATM   24  H   UNL     1      -7.157  10.209  64.391  1.00  0.00     0.000 HD 
HETATM   25  C   UNL     1      -9.928  11.957  66.599  1.00  0.00    -0.220 A  
ENDBRANCH   6   9
TORSDOF 1
ENDMDL
MODEL       38
REMARK 921   NORMALIZED FREE ENERGY PREDICTED BY IDOCK:   -5.99 KCAL/MOL
REMARK 922        TOTAL FREE ENERGY PREDICTED BY IDOCK:   -6.66 KCAL/MOL
REMARK 923 INTER-LIGAND FREE ENERGY PREDICTED BY IDOCK:   -6.14 KCAL/MOL
REMARK 924 INTRA-LIGAND FREE ENERGY PREDICTED BY IDOCK:   -0.52 KCAL/MOL
REMARK 927      BINDING AFFINITY PREDICTED BY RF-SCORE:    0.00 PKD
ROOT
HETATM    1  O   UNL     1      -6.712  17.721  68.465  1.00  0.00    -0.201 OA 
HETATM    2  C   UNL     1      -7.680  16.873  68.016  1.00  0.00    -0.177 A  
HETATM    3  H   UNL     1      -6.919  18.458  69.028  1.00  0.00     0.000 HD 
HETATM    4  C   UNL     1      -7.379  15.796  67.194  1.00  0.00    -0.257 A  
HETATM    5  C   UNL     1      -8.412  14.987  66.709  1.00  0.00    -0.239 A  
HETATM    6  C   UNL     1      -9.757  15.230  67.050  1.00  0.00    -0.232 A  
HETATM    7  C   UNL     1     -10.021  16.313  67.908  1.00  0.00    -0.241 A  
HETATM    8  C   UNL     1      -8.991  17.127  68.389  1.00  0.00    -0.259 A  
ENDROOT
BRANCH   6   9
HETATM    9  C   UNL     1     -10.912  14.445  66.405  1.00  0.00    -0.319 C  
HETATM   10  C   UNL     1     -12.254  14.370  67.193  1.00  0.00    -0.222 C  
HETATM   11  N   UNL     1     -12.207  13.845  68.563  1.00  0.00    -0.493 NA 
HETATM   12  C   UNL     1     -11.873  12.422  68.624  1.00  0.00    -0.302 C  
HETATM   13  H   UNL     1     -13.081  14.033  69.054  1.00  0.00     0.000 HD 
HETATM   14  C   UNL     1     -10.436  12.092  68.197  1.00  0.00    -0.225 C  
HETATM   15  C   UNL     1     -10.297  11.942  66.694  1.00  0.00    -0.242 A  
HETATM   16  C   UNL     1      -9.937  10.715  66.095  1.00  0.00    -0.228 A  
HETATM   17  C   UNL     1      -9.882  10.596  64.701  1.00  0.00    -0.321 A  
HETATM   18 CL   UNL     1      -9.554   9.303  67.025  1.00  0.00    -0.208 Cl 
HETATM   19  C   UNL     1     -10.172  11.684  63.894  1.00  0.00    -0.365 A  
HETATM   20  O   UNL     1      -9.550   9.423  64.068  1.00  0.00    -0.366 OA 
HETATM   21  H   UNL     1      -9.512   9.342  63.122  1.00  0.00     0.000 HD 
HETATM   22  O   UNL     1     -10.147  11.559  62.535  1.00  0.00    -0.533 OA 
HETATM   23  C   UNL     1     -10.493  12.909  64.452  1.00  0.00    -0.419 A  
HETATM   24  H   UNL     1     -10.346  12.306  61.982  1.00  0.00     0.000 HD 
HETATM   25  C   UNL     1     -10.554  13.060  65.854  1.00  0.00    -0.288 A  
ENDBRANCH   6   9
TORSDOF 1
ENDMDL
MODEL       39
REMARK 921   NORMALIZED FREE ENERGY PREDICTED BY IDOCK:   -5.97 KCAL/MOL
REMARK 922        TOTAL FREE ENERGY PREDICTED BY IDOCK:   -6.64 KCAL/MOL
REMARK 923 INTER-LIGAND FREE ENERGY PREDICTED BY IDOCK:   -6.25 KCAL/MOL
REMARK 924 INTRA-LIGAND FREE ENERGY PREDICTED BY IDOCK:   -0.39 KCAL/MOL
REMARK 927      BINDING AFFINITY PREDICTED BY RF-SCORE:    0.00 PKD
ROOT
HETATM    1  O   UNL     1      -7.774  18.606  67.397  1.00  0.00    -0.226 OA 
HETATM    2  C   UNL     1      -8.563  17.517  67.176  1.00  0.00    -0.225 A  
HETATM    3  H   UNL     1      -7.951  19.213  68.107  1.00  0.00     0.000 HD 
HETATM    4  C   UNL     1      -8.306  16.632  66.138  1.00  0.00    -0.305 A  
HETATM    5  C   UNL     1      -9.178  15.562  65.912  1.00  0.00    -0.305 A  
HETATM    6  C   UNL     1     -10.307  15.349  66.726  1.00  0.00    -0.279 A  
HETATM    7  C   UNL     1     -10.520  16.250  67.784  1.00  0.00    -0.295 A  
HETATM    8  C   UNL     1      -9.654  17.325  68.009  1.00  0.00    -0.274 A  
ENDROOT
BRANCH   6   9
HETATM    9  C   UNL     1     -11.353  14.270  66.397  1.00  0.00    -0.346 C  
HETATM   10  C   UNL     1     -12.526  14.080  67.405  1.00  0.00     0.070 C  
HETATM   11  N   UNL     1     -12.179  13.803  68.804  1.00  0.00    -0.428 NA 
HETATM   12  C   UNL     1     -11.551  12.495  68.995  1.00  0.00    -0.314 C  
HETATM   13  H   UNL     1     -12.995  13.905  69.407  1.00  0.00     0.000 HD 
HETATM   14  C   UNL     1     -10.152  12.371  68.377  1.00  0.00    -0.217 C  
HETATM   15  C   UNL     1     -10.198  12.005  66.906  1.00  0.00    -0.230 A  
HETATM   16  C   UNL     1      -9.679  10.784  66.422  1.00  0.00    -0.199 A  
HETATM   17  C   UNL     1      -9.796  10.450  65.067  1.00  0.00    -0.319 A  
HETATM   18 CL   UNL     1      -8.884   9.638  67.452  1.00  0.00    -0.131 Cl 
HETATM   19  C   UNL     1     -10.416  11.320  64.185  1.00  0.00    -0.369 A  
HETATM   20  O   UNL     1      -9.321   9.272  64.548  1.00  0.00    -0.437 OA 
HETATM   21  H   UNL     1      -9.400   9.045  63.629  1.00  0.00     0.000 HD 
HETATM   22  O   UNL     1     -10.558  10.980  62.870  1.00  0.00    -0.777 OA 
HETATM   23  C   UNL     1     -10.904  12.538  64.622  1.00  0.00    -0.343 A  
HETATM   24  H   UNL     1     -10.983  11.577  62.265  1.00  0.00     0.000 HD 
HETATM   25  C   UNL     1     -10.796  12.904  65.981  1.00  0.00    -0.300 A  
ENDBRANCH   6   9
TORSDOF 1
ENDMDL
MODEL       40
REMARK 921   NORMALIZED FREE ENERGY PREDICTED BY IDOCK:   -5.93 KCAL/MOL
REMARK 922        TOTAL FREE ENERGY PREDICTED BY IDOCK:   -6.60 KCAL/MOL
REMARK 923 INTER-LIGAND FREE ENERGY PREDICTED BY IDOCK:   -6.56 KCAL/MOL
REMARK 924 INTRA-LIGAND FREE ENERGY PREDICTED BY IDOCK:   -0.04 KCAL/MOL
REMARK 927      BINDING AFFINITY PREDICTED BY RF-SCORE:    0.00 PKD
ROOT
HETATM    1  O   UNL     1      -5.267  12.622  68.663  1.00  0.00    -0.055 OA 
HETATM    2  C   UNL     1      -6.589  12.372  68.448  1.00  0.00    -0.065 A  
HETATM    3  H   UNL     1      -4.742  12.071  69.232  1.00  0.00     0.000 HD 
HETATM    4  C   UNL     1      -7.356  13.177  67.617  1.00  0.00    -0.155 A  
HETATM    5  C   UNL     1      -8.723  12.918  67.474  1.00  0.00    -0.190 A  
HETATM    6  C   UNL     1      -9.341  11.844  68.142  1.00  0.00    -0.191 A  
HETATM    7  C   UNL     1      -8.527  11.033  68.954  1.00  0.00    -0.124 A  
HETATM    8  C   UNL     1      -7.161  11.293  69.104  1.00  0.00    -0.115 A  
ENDROOT
BRANCH   6   9
HETATM    9  C   UNL     1     -10.865  11.639  68.114  1.00  0.00    -0.260 C  
HETATM   10  C   UNL     1     -11.614  12.015  66.800  1.00  0.00    -0.321 C  
HETATM   11  N   UNL     1     -11.443  13.381  66.290  1.00  0.00    -0.314 NA 
HETATM   12  C   UNL     1     -12.049  14.398  67.150  1.00  0.00    -0.333 C  
HETATM   13  H   UNL     1     -11.794  13.458  65.336  1.00  0.00     0.000 HD 
HETATM   14  C   UNL     1     -11.358  14.567  68.510  1.00  0.00    -0.309 C  
HETATM   15  C   UNL     1     -11.851  13.569  69.540  1.00  0.00    -0.392 A  
HETATM   16  C   UNL     1     -12.539  13.973  70.705  1.00  0.00    -0.344 A  
HETATM   17  C   UNL     1     -13.037  13.020  71.602  1.00  0.00    -0.347 A  
HETATM   18 CL   UNL     1     -12.813  15.641  71.091  1.00  0.00    -0.534 Cl 
HETATM   19  C   UNL     1     -12.851  11.668  71.359  1.00  0.00    -0.356 A  
HETATM   20  O   UNL     1     -13.723  13.359  72.742  1.00  0.00    -0.697 OA 
HETATM   21  H   UNL     1     -14.060  12.712  73.350  1.00  0.00     0.000 HD 
HETATM   22  O   UNL     1     -13.363  10.739  72.218  1.00  0.00    -0.623 OA 
HETATM   23  C   UNL     1     -12.151  11.242  70.245  1.00  0.00    -0.459 A  
HETATM   24  H   UNL     1     -13.236   9.812  72.052  1.00  0.00     0.000 HD 
HETATM   25  C   UNL     1     -11.635  12.180  69.325  1.00  0.00    -0.377 A  
ENDBRANCH   6   9
TORSDOF 1
ENDMDL
MODEL       41
REMARK 921   NORMALIZED FREE ENERGY PREDICTED BY IDOCK:   -5.92 KCAL/MOL
REMARK 922        TOTAL FREE ENERGY PREDICTED BY IDOCK:   -6.59 KCAL/MOL
REMARK 923 INTER-LIGAND FREE ENERGY PREDICTED BY IDOCK:   -6.33 KCAL/MOL
REMARK 924 INTRA-LIGAND FREE ENERGY PREDICTED BY IDOCK:   -0.25 KCAL/MOL
REMARK 927      BINDING AFFINITY PREDICTED BY RF-SCORE:    0.00 PKD
ROOT
HETATM    1  O   UNL     1     -12.907  11.404  62.507  1.00  0.00    -0.582 OA 
HETATM    2  C   UNL     1     -12.260  11.870  63.613  1.00  0.00    -0.479 A  
HETATM    3  H   UNL     1     -13.818  11.615  62.338  1.00  0.00     0.000 HD 
HETATM    4  C   UNL     1     -10.930  11.562  63.861  1.00  0.00    -0.474 A  
HETATM    5  C   UNL     1     -10.325  12.014  65.039  1.00  0.00    -0.318 A  
HETATM    6  C   UNL     1     -11.030  12.792  65.976  1.00  0.00    -0.306 A  
HETATM    7  C   UNL     1     -12.368  13.108  65.677  1.00  0.00    -0.519 A  
HETATM    8  C   UNL     1     -12.978  12.653  64.504  1.00  0.00    -0.236 A  
ENDROOT
BRANCH   6   9
HETATM    9  C   UNL     1     -10.426  13.166  67.340  1.00  0.00    -0.243 C  
HETATM   10  C   UNL     1     -11.390  13.758  68.411  1.00  0.00    -0.293 C  
HETATM   11  N   UNL     1     -12.164  14.950  68.043  1.00  0.00    -0.547 NA 
HETATM   12  C   UNL     1     -11.335  16.141  67.856  1.00  0.00    -0.182 C  
HETATM   13  H   UNL     1     -12.904  15.126  68.722  1.00  0.00     0.000 HD 
HETATM   14  C   UNL     1     -10.405  16.077  66.637  1.00  0.00    -0.299 C  
HETATM   15  C   UNL     1      -9.103  15.360  66.936  1.00  0.00    -0.265 A  
HETATM   16  C   UNL     1      -7.856  16.021  66.887  1.00  0.00    -0.249 A  
HETATM   17  C   UNL     1      -6.680  15.343  67.232  1.00  0.00    -0.061 A  
HETATM   18 CL   UNL     1      -7.702  17.681  66.412  1.00  0.00    -0.303 Cl 
HETATM   19  C   UNL     1      -6.727  14.013  67.618  1.00  0.00    -0.173 A  
HETATM   20  O   UNL     1      -5.445  15.942  67.213  1.00  0.00    -0.309 OA 
HETATM   21  H   UNL     1      -4.647  15.483  67.447  1.00  0.00     0.000 HD 
HETATM   22  O   UNL     1      -5.585  13.363  67.984  1.00  0.00    -0.096 OA 
HETATM   23  C   UNL     1      -7.930  13.329  67.642  1.00  0.00    -0.176 A  
HETATM   24  H   UNL     1      -5.617  12.450  68.248  1.00  0.00     0.000 HD 
HETATM   25  C   UNL     1      -9.131  13.984  67.296  1.00  0.00    -0.224 A  
ENDBRANCH   6   9
TORSDOF 1
ENDMDL
MODEL       42
REMARK 921   NORMALIZED FREE ENERGY PREDICTED BY IDOCK:   -5.88 KCAL/MOL
REMARK 922        TOTAL FREE ENERGY PREDICTED BY IDOCK:   -6.55 KCAL/MOL
REMARK 923 INTER-LIGAND FREE ENERGY PREDICTED BY IDOCK:   -6.11 KCAL/MOL
REMARK 924 INTRA-LIGAND FREE ENERGY PREDICTED BY IDOCK:   -0.44 KCAL/MOL
REMARK 927      BINDING AFFINITY PREDICTED BY RF-SCORE:    0.00 PKD
ROOT
HETATM    1  O   UNL     1      -9.899  20.656  65.674  1.00  0.00    -0.549 OA 
HETATM    2  C   UNL     1      -9.718  19.656  66.583  1.00  0.00    -0.390 A  
HETATM    3  H   UNL     1     -10.613  20.636  65.047  1.00  0.00     0.000 HD 
HETATM    4  C   UNL     1      -8.675  19.685  67.498  1.00  0.00    -0.364 A  
HETATM    5  C   UNL     1      -8.493  18.607  68.371  1.00  0.00    -0.366 A  
HETATM    6  C   UNL     1      -9.357  17.495  68.357  1.00  0.00    -0.287 A  
HETATM    7  C   UNL     1     -10.419  17.514  67.435  1.00  0.00    -0.342 A  
HETATM    8  C   UNL     1     -10.600  18.586  66.556  1.00  0.00    -0.375 A  
ENDROOT
BRANCH   6   9
HETATM    9  C   UNL     1      -9.080  16.242  69.204  1.00  0.00    -0.230 C  
HETATM   10  C   UNL     1      -7.590  15.857  69.447  1.00  0.00    -0.210 C  
HETATM   11  N   UNL     1      -6.737  15.668  68.267  1.00  0.00    -0.114 NA 
HETATM   12  C   UNL     1      -7.106  14.497  67.471  1.00  0.00    -0.175 C  
HETATM   13  H   UNL     1      -5.753  15.629  68.533  1.00  0.00     0.000 HD 
HETATM   14  C   UNL     1      -8.463  14.617  66.764  1.00  0.00    -0.145 C  
HETATM   15  C   UNL     1      -9.622  14.229  67.661  1.00  0.00    -0.219 A  
HETATM   16  C   UNL     1     -10.444  13.115  67.382  1.00  0.00    -0.242 A  
HETATM   17  C   UNL     1     -11.465  12.746  68.267  1.00  0.00    -0.314 A  
HETATM   18 CL   UNL     1     -10.243  12.145  65.958  1.00  0.00    -0.255 Cl 
HETATM   19  C   UNL     1     -11.685  13.477  69.423  1.00  0.00    -0.325 A  
HETATM   20  O   UNL     1     -12.283  11.665  68.049  1.00  0.00    -0.551 OA 
HETATM   21  H   UNL     1     -12.976  11.415  68.649  1.00  0.00     0.000 HD 
HETATM   22  O   UNL     1     -12.660  13.100  70.300  1.00  0.00    -0.191 OA 
HETATM   23  C   UNL     1     -10.920  14.595  69.706  1.00  0.00    -0.232 A  
HETATM   24  H   UNL     1     -12.812  13.601  71.093  1.00  0.00     0.000 HD 
HETATM   25  C   UNL     1      -9.886  14.992  68.831  1.00  0.00    -0.233 A  
ENDBRANCH   6   9
TORSDOF 1
ENDMDL
MODEL       43
REMARK 921   NORMALIZED FREE ENERGY PREDICTED BY IDOCK:   -5.86 KCAL/MOL
REMARK 922        TOTAL FREE ENERGY PREDICTED BY IDOCK:   -6.53 KCAL/MOL
REMARK 923 INTER-LIGAND FREE ENERGY PREDICTED BY IDOCK:   -6.02 KCAL/MOL
REMARK 924 INTRA-LIGAND FREE ENERGY PREDICTED BY IDOCK:   -0.51 KCAL/MOL
REMARK 927      BINDING AFFINITY PREDICTED BY RF-SCORE:    0.00 PKD
ROOT
HETATM    1  O   UNL     1      -5.539   6.045  73.466  1.00  0.00    -0.035 OA 
HETATM    2  C   UNL     1      -6.743   6.259  72.865  1.00  0.00    -0.066 A  
HETATM    3  H   UNL     1      -4.926   5.398  73.136  1.00  0.00     0.000 HD 
HETATM    4  C   UNL     1      -7.638   7.204  73.347  1.00  0.00    -0.093 A  
HETATM    5  C   UNL     1      -8.888   7.347  72.734  1.00  0.00    -0.168 A  
HETATM    6  C   UNL     1      -9.256   6.564  71.624  1.00  0.00    -0.143 A  
HETATM    7  C   UNL     1      -8.312   5.636  71.146  1.00  0.00    -0.122 A  
HETATM    8  C   UNL     1      -7.065   5.486  71.760  1.00  0.00    -0.077 A  
ENDROOT
BRANCH   6   9
HETATM    9  C   UNL     1     -10.677   6.604  71.037  1.00  0.00    -0.278 C  
HETATM   10  C   UNL     1     -10.859   6.117  69.568  1.00  0.00    -0.361 C  
HETATM   11  N   UNL     1     -10.044   6.766  68.533  1.00  0.00    -0.156 NA 
HETATM   12  C   UNL     1     -10.401   8.168  68.314  1.00  0.00    -0.197 C  
HETATM   13  H   UNL     1     -10.082   6.241  67.660  1.00  0.00     0.000 HD 
HETATM   14  C   UNL     1     -10.069   9.095  69.491  1.00  0.00    -0.202 C  
HETATM   15  C   UNL     1     -11.156   9.105  70.548  1.00  0.00    -0.308 A  
HETATM   16  C   UNL     1     -11.902  10.267  70.843  1.00  0.00    -0.377 A  
HETATM   17  C   UNL     1     -12.943  10.223  71.779  1.00  0.00    -0.469 A  
HETATM   18 CL   UNL     1     -11.590  11.792  70.079  1.00  0.00    -0.353 Cl 
HETATM   19  C   UNL     1     -13.246   9.039  72.432  1.00  0.00    -0.447 A  
HETATM   20  O   UNL     1     -13.706  11.320  72.094  1.00  0.00    -0.378 OA 
HETATM   21  H   UNL     1     -14.412  11.291  72.729  1.00  0.00     0.000 HD 
HETATM   22  O   UNL     1     -14.280   8.990  73.321  1.00  0.00    -1.192 OA 
HETATM   23  C   UNL     1     -12.510   7.893  72.190  1.00  0.00    -0.304 A  
HETATM   24  H   UNL     1     -14.488   8.178  73.769  1.00  0.00     0.000 HD 
HETATM   25  C   UNL     1     -11.453   7.908  71.254  1.00  0.00    -0.293 A  
ENDBRANCH   6   9
TORSDOF 1
ENDMDL
MODEL       44
REMARK 921   NORMALIZED FREE ENERGY PREDICTED BY IDOCK:   -5.79 KCAL/MOL
REMARK 922        TOTAL FREE ENERGY PREDICTED BY IDOCK:   -6.45 KCAL/MOL
REMARK 923 INTER-LIGAND FREE ENERGY PREDICTED BY IDOCK:   -6.47 KCAL/MOL
REMARK 924 INTRA-LIGAND FREE ENERGY PREDICTED BY IDOCK:    0.01 KCAL/MOL
REMARK 927      BINDING AFFINITY PREDICTED BY RF-SCORE:    0.00 PKD
ROOT
HETATM    1  O   UNL     1     -11.165   6.045  69.557  1.00  0.00    -0.398 OA 
HETATM    2  C   UNL     1     -10.615   7.020  68.779  1.00  0.00    -0.212 A  
HETATM    3  H   UNL     1     -11.690   5.347  69.183  1.00  0.00     0.000 HD 
HETATM    4  C   UNL     1      -9.848   8.040  69.324  1.00  0.00    -0.178 A  
HETATM    5  C   UNL     1      -9.355   9.053  68.494  1.00  0.00    -0.141 A  
HETATM    6  C   UNL     1      -9.604   9.053  67.108  1.00  0.00    -0.218 A  
HETATM    7  C   UNL     1     -10.361   7.988  66.587  1.00  0.00    -0.273 A  
HETATM    8  C   UNL     1     -10.861   6.978  67.415  1.00  0.00    -0.371 A  
ENDROOT
BRANCH   6   9
HETATM    9  C   UNL     1      -9.198  10.234  66.211  1.00  0.00    -0.191 C  
HETATM   10  C   UNL     1      -7.822  10.909  66.495  1.00  0.00    -0.152 C  
HETATM   11  N   UNL     1      -7.582  11.413  67.853  1.00  0.00    -0.103 NA 
HETATM   12  C   UNL     1      -8.428  12.554  68.203  1.00  0.00    -0.180 C  
HETATM   13  H   UNL     1      -6.596  11.638  67.986  1.00  0.00     0.000 HD 
HETATM   14  C   UNL     1      -9.918  12.217  68.338  1.00  0.00    -0.206 C  
HETATM   15  C   UNL     1     -10.642  12.237  67.005  1.00  0.00    -0.248 A  
HETATM   16  C   UNL     1     -11.668  13.166  66.725  1.00  0.00    -0.385 A  
HETATM   17  C   UNL     1     -12.270  13.199  65.461  1.00  0.00    -0.461 A  
HETATM   18 CL   UNL     1     -12.235  14.309  67.900  1.00  0.00    -0.284 Cl 
HETATM   19  C   UNL     1     -11.870  12.312  64.474  1.00  0.00    -0.369 A  
HETATM   20  O   UNL     1     -13.261  14.089  65.133  1.00  0.00    -0.768 OA 
HETATM   21  H   UNL     1     -13.670  14.111  64.275  1.00  0.00     0.000 HD 
HETATM   22  O   UNL     1     -12.435  12.365  63.232  1.00  0.00    -0.692 OA 
HETATM   23  C   UNL     1     -10.892  11.368  64.729  1.00  0.00    -0.339 A  
HETATM   24  H   UNL     1     -12.161  11.757  62.555  1.00  0.00     0.000 HD 
HETATM   25  C   UNL     1     -10.270  11.308  65.995  1.00  0.00    -0.295 A  
ENDBRANCH   6   9
TORSDOF 1
ENDMDL
MODEL       45
REMARK 921   NORMALIZED FREE ENERGY PREDICTED BY IDOCK:   -5.78 KCAL/MOL
REMARK 922        TOTAL FREE ENERGY PREDICTED BY IDOCK:   -6.44 KCAL/MOL
REMARK 923 INTER-LIGAND FREE ENERGY PREDICTED BY IDOCK:   -5.93 KCAL/MOL
REMARK 924 INTRA-LIGAND FREE ENERGY PREDICTED BY IDOCK:   -0.51 KCAL/MOL
REMARK 927      BINDING AFFINITY PREDICTED BY RF-SCORE:    0.00 PKD
ROOT
HETATM    1  O   UNL     1     -13.936   9.031  73.230  1.00  0.00    -1.205 OA 
HETATM    2  C   UNL     1     -12.993   8.984  72.248  1.00  0.00    -0.424 A  
HETATM    3  H   UNL     1     -14.205   8.250  73.699  1.00  0.00     0.000 HD 
HETATM    4  C   UNL     1     -12.599  10.124  71.562  1.00  0.00    -0.537 A  
HETATM    5  C   UNL     1     -11.671  10.018  70.520  1.00  0.00    -0.400 A  
HETATM    6  C   UNL     1     -11.111   8.778  70.158  1.00  0.00    -0.214 A  
HETATM    7  C   UNL     1     -11.513   7.648  70.894  1.00  0.00    -0.299 A  
HETATM    8  C   UNL     1     -12.445   7.749  71.932  1.00  0.00    -0.343 A  
ENDROOT
BRANCH   6   9
HETATM    9  C   UNL     1     -10.210   8.624  68.922  1.00  0.00    -0.221 C  
HETATM   10  C   UNL     1      -9.243   7.403  68.889  1.00  0.00    -0.142 C  
HETATM   11  N   UNL     1      -8.311   7.245  70.012  1.00  0.00    -0.136 NA 
HETATM   12  C   UNL     1      -7.290   8.293  70.066  1.00  0.00    -0.063 C  
HETATM   13  H   UNL     1      -7.881   6.321  70.000  1.00  0.00     0.000 HD 
HETATM   14  C   UNL     1      -7.835   9.686  70.406  1.00  0.00    -0.181 C  
HETATM   15  C   UNL     1      -8.357  10.419  69.186  1.00  0.00    -0.160 A  
HETATM   16  C   UNL     1      -7.762  11.611  68.717  1.00  0.00    -0.111 A  
HETATM   17  C   UNL     1      -8.229  12.226  67.549  1.00  0.00    -0.170 A  
HETATM   18 CL   UNL     1      -6.436  12.373  69.535  1.00  0.00    -0.113 Cl 
HETATM   19  C   UNL     1      -9.288  11.675  66.845  1.00  0.00    -0.188 A  
HETATM   20  O   UNL     1      -7.678  13.377  67.044  1.00  0.00    -0.370 OA 
HETATM   21  H   UNL     1      -7.995  13.795  66.251  1.00  0.00     0.000 HD 
HETATM   22  O   UNL     1      -9.723  12.258  65.690  1.00  0.00    -0.281 OA 
HETATM   23  C   UNL     1      -9.914  10.528  67.298  1.00  0.00    -0.224 A  
HETATM   24  H   UNL     1     -10.449  11.881  65.207  1.00  0.00     0.000 HD 
HETATM   25  C   UNL     1      -9.468   9.888  68.474  1.00  0.00    -0.149 A  
ENDBRANCH   6   9
TORSDOF 1
ENDMDL
MODEL       46
REMARK 921   NORMALIZED FREE ENERGY PREDICTED BY IDOCK:   -5.76 KCAL/MOL
REMARK 922        TOTAL FREE ENERGY PREDICTED BY IDOCK:   -6.42 KCAL/MOL
REMARK 923 INTER-LIGAND FREE ENERGY PREDICTED BY IDOCK:   -6.00 KCAL/MOL
REMARK 924 INTRA-LIGAND FREE ENERGY PREDICTED BY IDOCK:   -0.41 KCAL/MOL
REMARK 927      BINDING AFFINITY PREDICTED BY RF-SCORE:    0.00 PKD
ROOT
HETATM    1  O   UNL     1     -12.179  14.569  67.741  1.00  0.00    -0.602 OA 
HETATM    2  C   UNL     1     -11.898  13.299  68.149  1.00  0.00    -0.353 A  
HETATM    3  H   UNL     1     -12.179  14.808  66.822  1.00  0.00     0.000 HD 
HETATM    4  C   UNL     1     -11.899  12.950  69.492  1.00  0.00    -0.383 A  
HETATM    5  C   UNL     1     -11.545  11.649  69.868  1.00  0.00    -0.366 A  
HETATM    6  C   UNL     1     -11.204  10.675  68.910  1.00  0.00    -0.333 A  
HETATM    7  C   UNL     1     -11.242  11.057  67.557  1.00  0.00    -0.372 A  
HETATM    8  C   UNL     1     -11.588  12.358  67.178  1.00  0.00    -0.435 A  
ENDROOT
BRANCH   6   9
HETATM    9  C   UNL     1     -10.670   9.291  69.315  1.00  0.00    -0.211 C  
HETATM   10  C   UNL     1      -9.748   9.219  70.569  1.00  0.00    -0.260 C  
HETATM   11  N   UNL     1      -8.548  10.064  70.578  1.00  0.00    -0.353 NA 
HETATM   12  C   UNL     1      -7.550   9.660  69.587  1.00  0.00    -0.114 C  
HETATM   13  H   UNL     1      -8.138  10.101  71.511  1.00  0.00     0.000 HD 
HETATM   14  C   UNL     1      -7.983   9.880  68.131  1.00  0.00    -0.100 C  
HETATM   15  C   UNL     1      -8.814   8.732  67.592  1.00  0.00    -0.138 A  
HETATM   16  C   UNL     1      -8.366   7.919  66.528  1.00  0.00    -0.127 A  
HETATM   17  C   UNL     1      -9.131   6.828  66.098  1.00  0.00    -0.109 A  
HETATM   18 CL   UNL     1      -6.868   8.209  65.702  1.00  0.00    -0.065 Cl 
HETATM   19  C   UNL     1     -10.340   6.538  66.709  1.00  0.00    -0.210 A  
HETATM   20  O   UNL     1      -8.736   5.999  65.077  1.00  0.00    -0.313 OA 
HETATM   21  H   UNL     1      -9.254   5.259  64.785  1.00  0.00     0.000 HD 
HETATM   22  O   UNL     1     -11.070   5.456  66.310  1.00  0.00    -0.707 OA 
HETATM   23  C   UNL     1     -10.822   7.337  67.731  1.00  0.00    -0.214 A  
HETATM   24  H   UNL     1     -11.900   5.258  66.729  1.00  0.00     0.000 HD 
HETATM   25  C   UNL     1     -10.076   8.446  68.182  1.00  0.00    -0.239 A  
ENDBRANCH   6   9
TORSDOF 1
ENDMDL
MODEL       47
REMARK 921   NORMALIZED FREE ENERGY PREDICTED BY IDOCK:   -5.75 KCAL/MOL
REMARK 922        TOTAL FREE ENERGY PREDICTED BY IDOCK:   -6.41 KCAL/MOL
REMARK 923 INTER-LIGAND FREE ENERGY PREDICTED BY IDOCK:   -6.28 KCAL/MOL
REMARK 924 INTRA-LIGAND FREE ENERGY PREDICTED BY IDOCK:   -0.13 KCAL/MOL
REMARK 927      BINDING AFFINITY PREDICTED BY RF-SCORE:    0.00 PKD
ROOT
HETATM    1  O   UNL     1     -13.538  11.674  72.158  1.00  0.00    -0.473 OA 
HETATM    2  C   UNL     1     -12.891  10.523  71.821  1.00  0.00    -0.454 A  
HETATM    3  H   UNL     1     -14.262  11.676  72.773  1.00  0.00     0.000 HD 
HETATM    4  C   UNL     1     -11.834  10.519  70.922  1.00  0.00    -0.455 A  
HETATM    5  C   UNL     1     -11.240   9.305  70.561  1.00  0.00    -0.315 A  
HETATM    6  C   UNL     1     -11.678   8.082  71.102  1.00  0.00    -0.307 A  
HETATM    7  C   UNL     1     -12.734   8.127  72.031  1.00  0.00    -0.355 A  
HETATM    8  C   UNL     1     -13.335   9.338  72.390  1.00  0.00    -0.521 A  
ENDROOT
BRANCH   6   9
HETATM    9  C   UNL     1     -11.137   6.732  70.602  1.00  0.00    -0.338 C  
HETATM   10  C   UNL     1     -10.299   5.881  71.602  1.00  0.00    -0.219 C  
HETATM   11  N   UNL     1      -9.123   6.515  72.211  1.00  0.00    -0.139 NA 
HETATM   12  C   UNL     1      -8.053   6.788  71.251  1.00  0.00    -0.111 C  
HETATM   13  H   UNL     1      -8.776   5.960  72.993  1.00  0.00     0.000 HD 
HETATM   14  C   UNL     1      -8.394   7.869  70.216  1.00  0.00    -0.126 C  
HETATM   15  C   UNL     1      -9.159   7.316  69.030  1.00  0.00    -0.133 A  
HETATM   16  C   UNL     1      -8.623   7.325  67.724  1.00  0.00    -0.120 A  
HETATM   17  C   UNL     1      -9.331   6.747  66.662  1.00  0.00    -0.165 A  
HETATM   18 CL   UNL     1      -7.082   8.030  67.355  1.00  0.00    -0.081 Cl 
HETATM   19  C   UNL     1     -10.570   6.169  66.882  1.00  0.00    -0.312 A  
HETATM   20  O   UNL     1      -8.849   6.717  65.377  1.00  0.00    -0.347 OA 
HETATM   21  H   UNL     1      -9.329   6.326  64.657  1.00  0.00     0.000 HD 
HETATM   22  O   UNL     1     -11.246   5.579  65.853  1.00  0.00    -0.743 OA 
HETATM   23  C   UNL     1     -11.137   6.176  68.144  1.00  0.00    -0.328 A  
HETATM   24  H   UNL     1     -12.096   5.182  66.003  1.00  0.00     0.000 HD 
HETATM   25  C   UNL     1     -10.449   6.754  69.232  1.00  0.00    -0.241 A  
ENDBRANCH   6   9
TORSDOF 1
ENDMDL
MODEL       48
REMARK 921   NORMALIZED FREE ENERGY PREDICTED BY IDOCK:   -5.75 KCAL/MOL
REMARK 922        TOTAL FREE ENERGY PREDICTED BY IDOCK:   -6.41 KCAL/MOL
REMARK 923 INTER-LIGAND FREE ENERGY PREDICTED BY IDOCK:   -5.90 KCAL/MOL
REMARK 924 INTRA-LIGAND FREE ENERGY PREDICTED BY IDOCK:   -0.51 KCAL/MOL
REMARK 927      BINDING AFFINITY PREDICTED BY RF-SCORE:    0.00 PKD
ROOT
HETATM    1  O   UNL     1      -6.339   9.553  67.370  1.00  0.00    -0.063 OA 
HETATM    2  C   UNL     1      -7.479  10.299  67.403  1.00  0.00    -0.094 A  
HETATM    3  H   UNL     1      -6.200   8.885  66.708  1.00  0.00     0.000 HD 
HETATM    4  C   UNL     1      -7.683  11.273  68.371  1.00  0.00    -0.125 A  
HETATM    5  C   UNL     1      -8.895  11.972  68.402  1.00  0.00    -0.149 A  
HETATM    6  C   UNL     1      -9.911  11.723  67.460  1.00  0.00    -0.204 A  
HETATM    7  C   UNL     1      -9.658  10.748  66.478  1.00  0.00    -0.217 A  
HETATM    8  C   UNL     1      -8.451  10.043  66.448  1.00  0.00    -0.132 A  
ENDROOT
BRANCH   6   9
HETATM    9  C   UNL     1     -11.300  12.374  67.574  1.00  0.00    -0.375 C  
HETATM   10  C   UNL     1     -12.035  12.730  66.247  1.00  0.00    -0.395 C  
HETATM   11  N   UNL     1     -11.330  13.595  65.293  1.00  0.00    -0.292 NA 
HETATM   12  C   UNL     1     -11.147  14.962  65.780  1.00  0.00    -0.342 C  
HETATM   13  H   UNL     1     -11.798  13.592  64.387  1.00  0.00     0.000 HD 
HETATM   14  C   UNL     1     -10.182  15.085  66.967  1.00  0.00    -0.257 C  
HETATM   15  C   UNL     1     -10.861  14.825  68.298  1.00  0.00    -0.251 A  
HETATM   16  C   UNL     1     -10.982  15.828  69.284  1.00  0.00    -0.281 A  
HETATM   17  C   UNL     1     -11.673  15.572  70.475  1.00  0.00    -0.349 A  
HETATM   18 CL   UNL     1     -10.304  17.412  69.089  1.00  0.00    -0.328 Cl 
HETATM   19  C   UNL     1     -12.238  14.327  70.702  1.00  0.00    -0.357 A  
HETATM   20  O   UNL     1     -11.830  16.515  71.461  1.00  0.00    -0.655 OA 
HETATM   21  H   UNL     1     -12.298  16.341  72.269  1.00  0.00     0.000 HD 
HETATM   22  O   UNL     1     -12.937  14.088  71.849  1.00  0.00    -0.330 OA 
HETATM   23  C   UNL     1     -12.106  13.314  69.769  1.00  0.00    -0.355 A  
HETATM   24  H   UNL     1     -13.325  13.234  72.005  1.00  0.00     0.000 HD 
HETATM   25  C   UNL     1     -11.412  13.541  68.561  1.00  0.00    -0.345 A  
ENDBRANCH   6   9
TORSDOF 1
ENDMDL
MODEL       49
REMARK 921   NORMALIZED FREE ENERGY PREDICTED BY IDOCK:   -5.75 KCAL/MOL
REMARK 922        TOTAL FREE ENERGY PREDICTED BY IDOCK:   -6.40 KCAL/MOL
REMARK 923 INTER-LIGAND FREE ENERGY PREDICTED BY IDOCK:   -6.01 KCAL/MOL
REMARK 924 INTRA-LIGAND FREE ENERGY PREDICTED BY IDOCK:   -0.40 KCAL/MOL
REMARK 927      BINDING AFFINITY PREDICTED BY RF-SCORE:    0.00 PKD
ROOT
HETATM    1  O   UNL     1     -12.592  15.383  69.653  1.00  0.00    -0.600 OA 
HETATM    2  C   UNL     1     -12.283  14.110  69.279  1.00  0.00    -0.269 A  
HETATM    3  H   UNL     1     -12.699  16.078  69.013  1.00  0.00     0.000 HD 
HETATM    4  C   UNL     1     -12.126  13.095  70.213  1.00  0.00    -0.399 A  
HETATM    5  C   UNL     1     -11.749  11.817  69.788  1.00  0.00    -0.408 A  
HETATM    6  C   UNL     1     -11.541  11.527  68.426  1.00  0.00    -0.375 A  
HETATM    7  C   UNL     1     -11.736  12.573  67.505  1.00  0.00    -0.439 A  
HETATM    8  C   UNL     1     -12.106  13.854  67.928  1.00  0.00    -0.318 A  
ENDROOT
BRANCH   6   9
HETATM    9  C   UNL     1     -10.982  10.172  67.961  1.00  0.00    -0.326 C  
HETATM   10  C   UNL     1     -10.639   9.124  69.061  1.00  0.00    -0.199 C  
HETATM   11  N   UNL     1      -9.707   9.532  70.119  1.00  0.00    -0.231 NA 
HETATM   12  C   UNL     1      -8.343   9.751  69.634  1.00  0.00    -0.173 C  
HETATM   13  H   UNL     1      -9.715   8.862  70.888  1.00  0.00     0.000 HD 
HETATM   14  C   UNL     1      -8.191  10.963  68.706  1.00  0.00    -0.151 C  
HETATM   15  C   UNL     1      -8.528  10.636  67.264  1.00  0.00    -0.126 A  
HETATM   16  C   UNL     1      -7.560  10.700  66.237  1.00  0.00    -0.137 A  
HETATM   17  C   UNL     1      -7.890  10.328  64.928  1.00  0.00    -0.134 A  
HETATM   18 CL   UNL     1      -5.932  11.224  66.523  1.00  0.00    -0.142 Cl 
HETATM   19  C   UNL     1      -9.173   9.902  64.624  1.00  0.00    -0.258 A  
HETATM   20  O   UNL     1      -6.985  10.359  63.896  1.00  0.00    -0.283 OA 
HETATM   21  H   UNL     1      -7.208  10.107  63.008  1.00  0.00     0.000 HD 
HETATM   22  O   UNL     1      -9.486   9.511  63.355  1.00  0.00    -0.486 OA 
HETATM   23  C   UNL     1     -10.152   9.863  65.601  1.00  0.00    -0.307 A  
HETATM   24  H   UNL     1     -10.366   9.219  63.146  1.00  0.00     0.000 HD 
HETATM   25  C   UNL     1      -9.850  10.235  66.929  1.00  0.00    -0.244 A  
ENDBRANCH   6   9
TORSDOF 1
ENDMDL
MODEL       50
REMARK 921   NORMALIZED FREE ENERGY PREDICTED BY IDOCK:   -5.74 KCAL/MOL
REMARK 922        TOTAL FREE ENERGY PREDICTED BY IDOCK:   -6.40 KCAL/MOL
REMARK 923 INTER-LIGAND FREE ENERGY PREDICTED BY IDOCK:   -6.10 KCAL/MOL
REMARK 924 INTRA-LIGAND FREE ENERGY PREDICTED BY IDOCK:   -0.30 KCAL/MOL
REMARK 927      BINDING AFFINITY PREDICTED BY RF-SCORE:    0.00 PKD
ROOT
HETATM    1  O   UNL     1     -10.456  10.657  62.456  1.00  0.00    -0.719 OA 
HETATM    2  C   UNL     1     -10.269  11.081  63.737  1.00  0.00    -0.364 A  
HETATM    3  H   UNL     1      -9.937   9.953  62.084  1.00  0.00     0.000 HD 
HETATM    4  C   UNL     1     -11.027  12.109  64.281  1.00  0.00    -0.391 A  
HETATM    5  C   UNL     1     -10.759  12.552  65.581  1.00  0.00    -0.297 A  
HETATM    6  C   UNL     1      -9.746  11.965  66.363  1.00  0.00    -0.238 A  
HETATM    7  C   UNL     1      -9.017  10.907  65.789  1.00  0.00    -0.208 A  
HETATM    8  C   UNL     1      -9.278  10.466  64.487  1.00  0.00    -0.287 A  
ENDROOT
BRANCH   6   9
HETATM    9  C   UNL     1      -9.341  12.538  67.731  1.00  0.00    -0.198 C  
HETATM   10  C   UNL     1      -8.086  11.925  68.421  1.00  0.00    -0.155 C  
HETATM   11  N   UNL     1      -8.076  10.474  68.644  1.00  0.00    -0.119 NA 
HETATM   12  C   UNL     1      -9.067  10.034  69.627  1.00  0.00    -0.210 C  
HETATM   13  H   UNL     1      -7.143  10.153  68.901  1.00  0.00     0.000 HD 
HETATM   14  C   UNL     1     -10.523  10.192  69.169  1.00  0.00    -0.242 C  
HETATM   15  C   UNL     1     -11.063  11.587  69.420  1.00  0.00    -0.287 A  
HETATM   16  C   UNL     1     -12.127  11.826  70.317  1.00  0.00    -0.342 A  
HETATM   17  C   UNL     1     -12.558  13.134  70.574  1.00  0.00    -0.165 A  
HETATM   18 CL   UNL     1     -12.951  10.545  71.146  1.00  0.00    -0.489 Cl 
HETATM   19  C   UNL     1     -11.948  14.207  69.944  1.00  0.00    -0.338 A  
HETATM   20  O   UNL     1     -13.578  13.422  71.445  1.00  0.00    -0.208 OA 
HETATM   21  H   UNL     1     -13.871  14.309  71.619  1.00  0.00     0.000 HD 
HETATM   22  O   UNL     1     -12.347  15.483  70.218  1.00  0.00    -0.386 OA 
HETATM   23  C   UNL     1     -10.926  14.001  69.034  1.00  0.00    -0.287 A  
HETATM   24  H   UNL     1     -11.929  16.219  69.786  1.00  0.00     0.000 HD 
HETATM   25  C   UNL     1     -10.474  12.695  68.752  1.00  0.00    -0.167 A  
ENDBRANCH   6   9
TORSDOF 1
ENDMDL
MODEL       51
REMARK 921   NORMALIZED FREE ENERGY PREDICTED BY IDOCK:   -5.71 KCAL/MOL
REMARK 922        TOTAL FREE ENERGY PREDICTED BY IDOCK:   -6.36 KCAL/MOL
REMARK 923 INTER-LIGAND FREE ENERGY PREDICTED BY IDOCK:   -5.91 KCAL/MOL
REMARK 924 INTRA-LIGAND FREE ENERGY PREDICTED BY IDOCK:   -0.45 KCAL/MOL
REMARK 927      BINDING AFFINITY PREDICTED BY RF-SCORE:    0.00 PKD
ROOT
HETATM    1  O   UNL     1      -5.248  12.773  70.021  1.00  0.00    -0.081 OA 
HETATM    2  C   UNL     1      -6.406  12.344  69.444  1.00  0.00    -0.119 A  
HETATM    3  H   UNL     1      -4.738  12.211  70.592  1.00  0.00     0.000 HD 
HETATM    4  C   UNL     1      -7.152  13.165  68.611  1.00  0.00    -0.103 A  
HETATM    5  C   UNL     1      -8.365  12.702  68.090  1.00  0.00    -0.175 A  
HETATM    6  C   UNL     1      -8.842  11.409  68.378  1.00  0.00    -0.167 A  
HETATM    7  C   UNL     1      -8.046  10.595  69.204  1.00  0.00    -0.143 A  
HETATM    8  C   UNL     1      -6.836  11.057  69.732  1.00  0.00    -0.116 A  
ENDROOT
BRANCH   6   9
HETATM    9  C   UNL     1     -10.240  10.944  67.937  1.00  0.00    -0.205 C  
HETATM   10  C   UNL     1     -10.577   9.432  68.106  1.00  0.00    -0.212 C  
HETATM   11  N   UNL     1      -9.678   8.462  67.469  1.00  0.00    -0.154 NA 
HETATM   12  C   UNL     1      -9.726   8.504  66.007  1.00  0.00    -0.125 C  
HETATM   13  H   UNL     1      -9.862   7.519  67.811  1.00  0.00     0.000 HD 
HETATM   14  C   UNL     1      -9.157   9.791  65.394  1.00  0.00    -0.251 C  
HETATM   15  C   UNL     1     -10.177  10.912  65.345  1.00  0.00    -0.339 A  
HETATM   16  C   UNL     1     -10.639  11.450  64.124  1.00  0.00    -0.369 A  
HETATM   17  C   UNL     1     -11.630  12.439  64.114  1.00  0.00    -0.386 A  
HETATM   18 CL   UNL     1     -10.028  10.927  62.587  1.00  0.00    -0.172 Cl 
HETATM   19  C   UNL     1     -12.161  12.908  65.305  1.00  0.00    -0.476 A  
HETATM   20  O   UNL     1     -12.122  12.986  62.956  1.00  0.00    -0.775 OA 
HETATM   21  H   UNL     1     -12.794  13.658  62.949  1.00  0.00     0.000 HD 
HETATM   22  O   UNL     1     -13.148  13.850  65.294  1.00  0.00    -0.777 OA 
HETATM   23  C   UNL     1     -11.704  12.425  66.518  1.00  0.00    -0.443 A  
HETATM   24  H   UNL     1     -13.513  14.172  66.111  1.00  0.00     0.000 HD 
HETATM   25  C   UNL     1     -10.704  11.430  66.560  1.00  0.00    -0.325 A  
ENDBRANCH   6   9
TORSDOF 1
ENDMDL
MODEL       52
REMARK 921   NORMALIZED FREE ENERGY PREDICTED BY IDOCK:   -5.70 KCAL/MOL
REMARK 922        TOTAL FREE ENERGY PREDICTED BY IDOCK:   -6.35 KCAL/MOL
REMARK 923 INTER-LIGAND FREE ENERGY PREDICTED BY IDOCK:   -5.88 KCAL/MOL
REMARK 924 INTRA-LIGAND FREE ENERGY PREDICTED BY IDOCK:   -0.47 KCAL/MOL
REMARK 927      BINDING AFFINITY PREDICTED BY RF-SCORE:    0.00 PKD
ROOT
HETATM    1  O   UNL     1     -10.032  20.584  65.333  1.00  0.00    -0.467 OA 
HETATM    2  C   UNL     1      -9.820  19.559  66.206  1.00  0.00    -0.429 A  
HETATM    3  H   UNL     1      -9.330  20.936  64.799  1.00  0.00     0.000 HD 
HETATM    4  C   UNL     1     -10.845  19.044  66.987  1.00  0.00    -0.438 A  
HETATM    5  C   UNL     1     -10.567  18.032  67.912  1.00  0.00    -0.387 A  
HETATM    6  C   UNL     1      -9.269  17.507  68.059  1.00  0.00    -0.275 A  
HETATM    7  C   UNL     1      -8.261  18.034  67.231  1.00  0.00    -0.224 A  
HETATM    8  C   UNL     1      -8.534  19.050  66.310  1.00  0.00    -0.289 A  
ENDROOT
BRANCH   6   9
HETATM    9  C   UNL     1      -8.920  16.506  69.173  1.00  0.00    -0.171 C  
HETATM   10  C   UNL     1      -7.558  15.758  69.061  1.00  0.00    -0.191 C  
HETATM   11  N   UNL     1      -7.298  15.002  67.829  1.00  0.00    -0.148 NA 
HETATM   12  C   UNL     1      -8.168  13.836  67.674  1.00  0.00    -0.177 C  
HETATM   13  H   UNL     1      -6.316  14.733  67.769  1.00  0.00     0.000 HD 
HETATM   14  C   UNL     1      -9.644  14.177  67.434  1.00  0.00    -0.229 C  
HETATM   15  C   UNL     1     -10.401  14.424  68.724  1.00  0.00    -0.241 A  
HETATM   16  C   UNL     1     -11.460  13.589  69.143  1.00  0.00    -0.295 A  
HETATM   17  C   UNL     1     -12.093  13.808  70.372  1.00  0.00    -0.350 A  
HETATM   18 CL   UNL     1     -12.030  12.260  68.186  1.00  0.00    -0.354 Cl 
HETATM   19  C   UNL     1     -11.693  14.854  71.188  1.00  0.00    -0.327 A  
HETATM   20  O   UNL     1     -13.118  13.019  70.831  1.00  0.00    -0.104 OA 
HETATM   21  H   UNL     1     -13.548  13.167  71.665  1.00  0.00     0.000 HD 
HETATM   22  O   UNL     1     -12.290  15.049  72.399  1.00  0.00    -0.326 OA 
HETATM   23  C   UNL     1     -10.682  15.711  70.789  1.00  0.00    -0.179 A  
HETATM   24  H   UNL     1     -12.016  15.766  72.959  1.00  0.00     0.000 HD 
HETATM   25  C   UNL     1     -10.028  15.517  69.554  1.00  0.00    -0.280 A  
ENDBRANCH   6   9
TORSDOF 1
ENDMDL
MODEL       53
REMARK 921   NORMALIZED FREE ENERGY PREDICTED BY IDOCK:   -5.69 KCAL/MOL
REMARK 922        TOTAL FREE ENERGY PREDICTED BY IDOCK:   -6.35 KCAL/MOL
REMARK 923 INTER-LIGAND FREE ENERGY PREDICTED BY IDOCK:   -6.09 KCAL/MOL
REMARK 924 INTRA-LIGAND FREE ENERGY PREDICTED BY IDOCK:   -0.25 KCAL/MOL
REMARK 927      BINDING AFFINITY PREDICTED BY RF-SCORE:    0.00 PKD
ROOT
HETATM    1  O   UNL     1     -13.747  14.059  72.724  1.00  0.00    -0.660 OA 
HETATM    2  C   UNL     1     -13.048  14.050  71.554  1.00  0.00    -0.363 A  
HETATM    3  H   UNL     1     -14.126  14.857  73.072  1.00  0.00     0.000 HD 
HETATM    4  C   UNL     1     -12.494  12.884  71.046  1.00  0.00    -0.374 A  
HETATM    5  C   UNL     1     -11.734  12.934  69.872  1.00  0.00    -0.324 A  
HETATM    6  C   UNL     1     -11.530  14.143  69.180  1.00  0.00    -0.338 A  
HETATM    7  C   UNL     1     -12.130  15.301  69.710  1.00  0.00    -0.357 A  
HETATM    8  C   UNL     1     -12.885  15.255  70.886  1.00  0.00    -0.511 A  
ENDROOT
BRANCH   6   9
HETATM    9  C   UNL     1     -10.576  14.240  67.979  1.00  0.00    -0.238 C  
HETATM   10  C   UNL     1     -11.168  14.756  66.633  1.00  0.00    -0.346 C  
HETATM   11  N   UNL     1     -12.332  14.046  66.088  1.00  0.00    -0.466 NA 
HETATM   12  C   UNL     1     -12.024  12.685  65.649  1.00  0.00    -0.452 C  
HETATM   13  H   UNL     1     -12.763  14.581  65.335  1.00  0.00     0.000 HD 
HETATM   14  C   UNL     1     -11.671  11.719  66.788  1.00  0.00    -0.197 C  
HETATM   15  C   UNL     1     -10.209  11.798  67.185  1.00  0.00    -0.236 A  
HETATM   16  C   UNL     1      -9.329  10.706  67.020  1.00  0.00    -0.155 A  
HETATM   17  C   UNL     1      -7.971  10.836  67.337  1.00  0.00    -0.112 A  
HETATM   18 CL   UNL     1      -9.858   9.167  66.421  1.00  0.00    -0.328 Cl 
HETATM   19  C   UNL     1      -7.478  12.035  67.824  1.00  0.00    -0.121 A  
HETATM   20  O   UNL     1      -7.072   9.810  67.183  1.00  0.00    -0.084 OA 
HETATM   21  H   UNL     1      -6.150   9.897  67.399  1.00  0.00     0.000 HD 
HETATM   22  O   UNL     1      -6.149  12.170  68.103  1.00  0.00    -0.050 OA 
HETATM   23  C   UNL     1      -8.323  13.112  68.029  1.00  0.00    -0.162 A  
HETATM   24  H   UNL     1      -5.811  12.993  68.438  1.00  0.00     0.000 HD 
HETATM   25  C   UNL     1      -9.696  13.010  67.723  1.00  0.00    -0.218 A  
ENDBRANCH   6   9
TORSDOF 1
ENDMDL
MODEL       54
REMARK 921   NORMALIZED FREE ENERGY PREDICTED BY IDOCK:   -5.68 KCAL/MOL
REMARK 922        TOTAL FREE ENERGY PREDICTED BY IDOCK:   -6.33 KCAL/MOL
REMARK 923 INTER-LIGAND FREE ENERGY PREDICTED BY IDOCK:   -5.86 KCAL/MOL
REMARK 924 INTRA-LIGAND FREE ENERGY PREDICTED BY IDOCK:   -0.47 KCAL/MOL
REMARK 927      BINDING AFFINITY PREDICTED BY RF-SCORE:    0.00 PKD
ROOT
HETATM    1  O   UNL     1     -10.237   3.645  65.936  1.00  0.00    -0.410 OA 
HETATM    2  C   UNL     1     -10.157   4.500  66.994  1.00  0.00    -0.138 A  
HETATM    3  H   UNL     1      -9.799   2.802  65.943  1.00  0.00     0.000 HD 
HETATM    4  C   UNL     1     -10.796   5.732  66.984  1.00  0.00    -0.328 A  
HETATM    5  C   UNL     1     -10.635   6.602  68.067  1.00  0.00    -0.300 A  
HETATM    6  C   UNL     1      -9.851   6.251  69.183  1.00  0.00    -0.168 A  
HETATM    7  C   UNL     1      -9.241   4.983  69.170  1.00  0.00    -0.154 A  
HETATM    8  C   UNL     1      -9.394   4.113  68.086  1.00  0.00    -0.212 A  
ENDROOT
BRANCH   6   9
HETATM    9  C   UNL     1      -9.544   7.253  70.307  1.00  0.00    -0.165 C  
HETATM   10  C   UNL     1      -8.947   6.685  71.630  1.00  0.00    -0.141 C  
HETATM   11  N   UNL     1      -9.699   5.625  72.313  1.00  0.00    -0.155 NA 
HETATM   12  C   UNL     1     -10.973   6.086  72.864  1.00  0.00    -0.269 C  
HETATM   13  H   UNL     1      -9.129   5.185  73.035  1.00  0.00     0.000 HD 
HETATM   14  C   UNL     1     -12.016   6.470  71.806  1.00  0.00    -0.394 C  
HETATM   15  C   UNL     1     -11.847   7.895  71.314  1.00  0.00    -0.321 A  
HETATM   16  C   UNL     1     -12.832   8.883  71.530  1.00  0.00    -0.334 A  
HETATM   17  C   UNL     1     -12.614  10.204  71.119  1.00  0.00    -0.386 A  
HETATM   18 CL   UNL     1     -14.342   8.537  72.310  1.00  0.00    -0.510 Cl 
HETATM   19  C   UNL     1     -11.431  10.553  70.486  1.00  0.00    -0.345 A  
HETATM   20  O   UNL     1     -13.532  11.205  71.317  1.00  0.00    -0.067 OA 
HETATM   21  H   UNL     1     -13.384  12.101  71.037  1.00  0.00     0.000 HD 
HETATM   22  O   UNL     1     -11.206  11.846  70.113  1.00  0.00    -0.490 OA 
HETATM   23  C   UNL     1     -10.463   9.599  70.228  1.00  0.00    -0.338 A  
HETATM   24  H   UNL     1     -10.395  12.085  69.679  1.00  0.00     0.000 HD 
HETATM   25  C   UNL     1     -10.656   8.259  70.628  1.00  0.00    -0.235 A  
ENDBRANCH   6   9
TORSDOF 1
ENDMDL
MODEL       55
REMARK 921   NORMALIZED FREE ENERGY PREDICTED BY IDOCK:   -5.64 KCAL/MOL
REMARK 922        TOTAL FREE ENERGY PREDICTED BY IDOCK:   -6.29 KCAL/MOL
REMARK 923 INTER-LIGAND FREE ENERGY PREDICTED BY IDOCK:   -5.80 KCAL/MOL
REMARK 924 INTRA-LIGAND FREE ENERGY PREDICTED BY IDOCK:   -0.49 KCAL/MOL
REMARK 927      BINDING AFFINITY PREDICTED BY RF-SCORE:    0.00 PKD
ROOT
HETATM    1  O   UNL     1     -11.028   4.876  66.396  1.00  0.00    -0.467 OA 
HETATM    2  C   UNL     1     -10.720   6.043  67.030  1.00  0.00    -0.337 A  
HETATM    3  H   UNL     1     -11.384   4.133  66.868  1.00  0.00     0.000 HD 
HETATM    4  C   UNL     1     -10.199   7.130  66.342  1.00  0.00    -0.003 A  
HETATM    5  C   UNL     1      -9.842   8.285  67.044  1.00  0.00    -0.298 A  
HETATM    6  C   UNL     1     -10.014   8.381  68.438  1.00  0.00    -0.208 A  
HETATM    7  C   UNL     1     -10.571   7.270  69.099  1.00  0.00    -0.219 A  
HETATM    8  C   UNL     1     -10.923   6.111  68.401  1.00  0.00    -0.391 A  
ENDROOT
BRANCH   6   9
HETATM    9  C   UNL     1      -9.488   9.583  69.241  1.00  0.00    -0.171 C  
HETATM   10  C   UNL     1     -10.047   9.782  70.681  1.00  0.00    -0.182 C  
HETATM   11  N   UNL     1     -11.504   9.881  70.835  1.00  0.00    -0.347 NA 
HETATM   12  C   UNL     1     -12.065  11.097  70.245  1.00  0.00    -0.377 C  
HETATM   13  H   UNL     1     -11.771   9.797  71.816  1.00  0.00     0.000 HD 
HETATM   14  C   UNL     1     -11.986  11.148  68.713  1.00  0.00    -0.337 C  
HETATM   15  C   UNL     1     -10.648  11.664  68.218  1.00  0.00    -0.232 A  
HETATM   16  C   UNL     1     -10.533  12.872  67.496  1.00  0.00    -0.223 A  
HETATM   17  C   UNL     1      -9.275  13.351  67.110  1.00  0.00    -0.240 A  
HETATM   18 CL   UNL     1     -11.912  13.827  67.054  1.00  0.00    -0.441 Cl 
HETATM   19  C   UNL     1      -8.129  12.638  67.426  1.00  0.00    -0.182 A  
HETATM   20  O   UNL     1      -9.107  14.525  66.419  1.00  0.00    -0.392 OA 
HETATM   21  H   UNL     1      -8.253  14.849  66.156  1.00  0.00     0.000 HD 
HETATM   22  O   UNL     1      -6.901  13.121  67.076  1.00  0.00    -0.424 OA 
HETATM   23  C   UNL     1      -8.213  11.434  68.101  1.00  0.00    -0.143 A  
HETATM   24  H   UNL     1      -6.115  12.632  67.293  1.00  0.00     0.000 HD 
HETATM   25  C   UNL     1      -9.467  10.924  68.500  1.00  0.00    -0.185 A  
ENDBRANCH   6   9
TORSDOF 1
ENDMDL
MODEL       56
REMARK 921   NORMALIZED FREE ENERGY PREDICTED BY IDOCK:   -5.61 KCAL/MOL
REMARK 922        TOTAL FREE ENERGY PREDICTED BY IDOCK:   -6.26 KCAL/MOL
REMARK 923 INTER-LIGAND FREE ENERGY PREDICTED BY IDOCK:   -6.16 KCAL/MOL
REMARK 924 INTRA-LIGAND FREE ENERGY PREDICTED BY IDOCK:   -0.10 KCAL/MOL
REMARK 927      BINDING AFFINITY PREDICTED BY RF-SCORE:    0.00 PKD
ROOT
HETATM    1  O   UNL     1     -11.358  11.903  63.002  1.00  0.00    -0.667 OA 
HETATM    2  C   UNL     1     -11.122  11.748  64.336  1.00  0.00    -0.334 A  
HETATM    3  H   UNL     1     -10.736  11.604  62.349  1.00  0.00     0.000 HD 
HETATM    4  C   UNL     1     -12.030  12.185  65.290  1.00  0.00    -0.313 A  
HETATM    5  C   UNL     1     -11.718  12.058  66.648  1.00  0.00    -0.331 A  
HETATM    6  C   UNL     1     -10.507  11.479  67.074  1.00  0.00    -0.263 A  
HETATM    7  C   UNL     1      -9.624  11.022  66.078  1.00  0.00    -0.249 A  
HETATM    8  C   UNL     1      -9.930  11.153  64.720  1.00  0.00    -0.339 A  
ENDROOT
BRANCH   6   9
HETATM    9  C   UNL     1     -10.087  11.471  68.553  1.00  0.00    -0.211 C  
HETATM   10  C   UNL     1      -8.561  11.407  68.863  1.00  0.00    -0.014 C  
HETATM   11  N   UNL     1      -7.798  10.293  68.285  1.00  0.00    -0.099 NA 
HETATM   12  C   UNL     1      -8.161   8.992  68.849  1.00  0.00    -0.104 C  
HETATM   13  H   UNL     1      -6.796  10.458  68.370  1.00  0.00     0.000 HD 
HETATM   14  C   UNL     1      -9.576   8.521  68.488  1.00  0.00    -0.158 C  
HETATM   15  C   UNL     1     -10.632   9.088  69.417  1.00  0.00    -0.231 A  
HETATM   16  C   UNL     1     -11.405   8.263  70.264  1.00  0.00    -0.129 A  
HETATM   17  C   UNL     1     -12.325   8.826  71.156  1.00  0.00    -0.219 A  
HETATM   18 CL   UNL     1     -11.264   6.534  70.259  1.00  0.00    -0.398 Cl 
HETATM   19  C   UNL     1     -12.494  10.200  71.211  1.00  0.00    -0.406 A  
HETATM   20  O   UNL     1     -13.092   8.070  72.008  1.00  0.00    -0.381 OA 
HETATM   21  H   UNL     1     -13.717   8.452  72.613  1.00  0.00     0.000 HD 
HETATM   22  O   UNL     1     -13.369  10.750  72.103  1.00  0.00    -0.581 OA 
HETATM   23  C   UNL     1     -11.776  11.032  70.370  1.00  0.00    -0.437 A  
HETATM   24  H   UNL     1     -13.484  11.693  72.141  1.00  0.00     0.000 HD 
HETATM   25  C   UNL     1     -10.844  10.493  69.458  1.00  0.00    -0.298 A  
ENDBRANCH   6   9
TORSDOF 1
ENDMDL
MODEL       57
REMARK 921   NORMALIZED FREE ENERGY PREDICTED BY IDOCK:   -5.59 KCAL/MOL
REMARK 922        TOTAL FREE ENERGY PREDICTED BY IDOCK:   -6.24 KCAL/MOL
REMARK 923 INTER-LIGAND FREE ENERGY PREDICTED BY IDOCK:   -5.78 KCAL/MOL
REMARK 924 INTRA-LIGAND FREE ENERGY PREDICTED BY IDOCK:   -0.45 KCAL/MOL
REMARK 927      BINDING AFFINITY PREDICTED BY RF-SCORE:    0.00 PKD
ROOT
HETATM    1  O   UNL     1     -12.744  13.388  65.038  1.00  0.00    -0.623 OA 
HETATM    2  C   UNL     1     -11.875  12.471  65.549  1.00  0.00    -0.439 A  
HETATM    3  H   UNL     1     -12.814  13.540  64.102  1.00  0.00     0.000 HD 
HETATM    4  C   UNL     1     -11.773  12.249  66.915  1.00  0.00    -0.404 A  
HETATM    5  C   UNL     1     -10.823  11.342  67.398  1.00  0.00    -0.311 A  
HETATM    6  C   UNL     1      -9.976  10.631  66.527  1.00  0.00    -0.265 A  
HETATM    7  C   UNL     1     -10.127  10.861  65.147  1.00  0.00    -0.352 A  
HETATM    8  C   UNL     1     -11.071  11.772  64.661  1.00  0.00    -0.363 A  
ENDROOT
BRANCH   6   9
HETATM    9  C   UNL     1      -8.831   9.748  67.049  1.00  0.00    -0.145 C  
HETATM   10  C   UNL     1      -8.115   8.822  66.021  1.00  0.00    -0.112 C  
HETATM   11  N   UNL     1      -8.947   7.884  65.258  1.00  0.00    -0.386 NA 
HETATM   12  C   UNL     1      -9.534   6.830  66.086  1.00  0.00    -0.006 C  
HETATM   13  H   UNL     1      -8.424   7.485  64.480  1.00  0.00     0.000 HD 
HETATM   14  C   UNL     1     -10.590   7.325  67.083  1.00  0.00    -0.416 C  
HETATM   15  C   UNL     1      -9.977   7.835  68.373  1.00  0.00    -0.195 A  
HETATM   16  C   UNL     1     -10.214   7.205  69.614  1.00  0.00    -0.208 A  
HETATM   17  C   UNL     1      -9.579   7.664  70.775  1.00  0.00    -0.166 A  
HETATM   18 CL   UNL     1     -11.279   5.847  69.780  1.00  0.00    -0.433 Cl 
HETATM   19  C   UNL     1      -8.718   8.748  70.719  1.00  0.00    -0.189 A  
HETATM   20  O   UNL     1      -9.766   7.081  72.004  1.00  0.00    -0.156 OA 
HETATM   21  H   UNL     1      -9.335   7.393  72.792  1.00  0.00     0.000 HD 
HETATM   22  O   UNL     1      -8.076   9.176  71.845  1.00  0.00    -0.330 OA 
HETATM   23  C   UNL     1      -8.493   9.407  69.523  1.00  0.00    -0.152 A  
HETATM   24  H   UNL     1      -7.485   9.919  71.806  1.00  0.00     0.000 HD 
HETATM   25  C   UNL     1      -9.121   8.970  68.338  1.00  0.00    -0.133 A  
ENDBRANCH   6   9
TORSDOF 1
ENDMDL
MODEL       58
REMARK 921   NORMALIZED FREE ENERGY PREDICTED BY IDOCK:   -5.57 KCAL/MOL
REMARK 922        TOTAL FREE ENERGY PREDICTED BY IDOCK:   -6.22 KCAL/MOL
REMARK 923 INTER-LIGAND FREE ENERGY PREDICTED BY IDOCK:   -5.75 KCAL/MOL
REMARK 924 INTRA-LIGAND FREE ENERGY PREDICTED BY IDOCK:   -0.48 KCAL/MOL
REMARK 927      BINDING AFFINITY PREDICTED BY RF-SCORE:    0.00 PKD
ROOT
HETATM    1  O   UNL     1      -6.813  21.110  64.884  1.00  0.00    -0.514 OA 
HETATM    2  C   UNL     1      -7.065  20.269  65.926  1.00  0.00    -0.258 A  
HETATM    3  H   UNL     1      -7.500  21.383  64.287  1.00  0.00     0.000 HD 
HETATM    4  C   UNL     1      -6.062  19.870  66.798  1.00  0.00    -0.183 A  
HETATM    5  C   UNL     1      -6.355  18.957  67.817  1.00  0.00    -0.216 A  
HETATM    6  C   UNL     1      -7.654  18.443  67.992  1.00  0.00    -0.270 A  
HETATM    7  C   UNL     1      -8.651  18.890  67.106  1.00  0.00    -0.295 A  
HETATM    8  C   UNL     1      -8.360  19.798  66.083  1.00  0.00    -0.368 A  
ENDROOT
BRANCH   6   9
HETATM    9  C   UNL     1      -7.956  17.328  69.007  1.00  0.00    -0.121 C  
HETATM   10  C   UNL     1      -6.763  16.437  69.467  1.00  0.00    -0.202 C  
HETATM   11  N   UNL     1      -5.990  15.749  68.426  1.00  0.00    -0.102 NA 
HETATM   12  C   UNL     1      -6.750  14.706  67.736  1.00  0.00    -0.176 C  
HETATM   13  H   UNL     1      -5.122  15.373  68.808  1.00  0.00     0.000 HD 
HETATM   14  C   UNL     1      -7.899  15.234  66.867  1.00  0.00    -0.152 C  
HETATM   15  C   UNL     1      -9.168  15.472  67.662  1.00  0.00    -0.190 A  
HETATM   16  C   UNL     1     -10.350  14.737  67.423  1.00  0.00    -0.242 A  
HETATM   17  C   UNL     1     -11.484  14.938  68.219  1.00  0.00    -0.324 A  
HETATM   18 CL   UNL     1     -10.472  13.557  66.157  1.00  0.00    -0.291 Cl 
HETATM   19  C   UNL     1     -11.460  15.867  69.247  1.00  0.00    -0.374 A  
HETATM   20  O   UNL     1     -12.653  14.241  68.037  1.00  0.00    -0.487 OA 
HETATM   21  H   UNL     1     -13.422  14.377  68.577  1.00  0.00     0.000 HD 
HETATM   22  O   UNL     1     -12.556  16.040  70.043  1.00  0.00    -0.505 OA 
HETATM   23  C   UNL     1     -10.329  16.627  69.483  1.00  0.00    -0.245 A  
HETATM   24  H   UNL     1     -12.540  16.677  70.748  1.00  0.00     0.000 HD 
HETATM   25  C   UNL     1      -9.173  16.450  68.694  1.00  0.00    -0.231 A  
ENDBRANCH   6   9
TORSDOF 1
ENDMDL
MODEL       59
REMARK 921   NORMALIZED FREE ENERGY PREDICTED BY IDOCK:   -5.57 KCAL/MOL
REMARK 922        TOTAL FREE ENERGY PREDICTED BY IDOCK:   -6.22 KCAL/MOL
REMARK 923 INTER-LIGAND FREE ENERGY PREDICTED BY IDOCK:   -5.77 KCAL/MOL
REMARK 924 INTRA-LIGAND FREE ENERGY PREDICTED BY IDOCK:   -0.45 KCAL/MOL
REMARK 927      BINDING AFFINITY PREDICTED BY RF-SCORE:    0.00 PKD
ROOT
HETATM    1  O   UNL     1     -13.523  14.117  65.460  1.00  0.00    -0.710 OA 
HETATM    2  C   UNL     1     -12.319  13.502  65.638  1.00  0.00    -0.476 A  
HETATM    3  H   UNL     1     -14.088  14.327  66.195  1.00  0.00     0.000 HD 
HETATM    4  C   UNL     1     -11.494  13.195  64.565  1.00  0.00    -0.390 A  
HETATM    5  C   UNL     1     -10.296  12.509  64.790  1.00  0.00    -0.331 A  
HETATM    6  C   UNL     1      -9.895  12.136  66.088  1.00  0.00    -0.254 A  
HETATM    7  C   UNL     1     -10.743  12.489  67.153  1.00  0.00    -0.263 A  
HETATM    8  C   UNL     1     -11.945  13.168  66.931  1.00  0.00    -0.421 A  
ENDROOT
BRANCH   6   9
HETATM    9  C   UNL     1      -8.660  11.253  66.333  1.00  0.00    -0.174 C  
HETATM   10  C   UNL     1      -8.291  10.216  65.230  1.00  0.00    -0.159 C  
HETATM   11  N   UNL     1      -9.326   9.253  64.832  1.00  0.00    -0.448 NA 
HETATM   12  C   UNL     1      -9.660   8.296  65.887  1.00  0.00     0.008 C  
HETATM   13  H   UNL     1      -9.060   8.769  63.975  1.00  0.00     0.000 HD 
HETATM   14  C   UNL     1     -10.369   8.916  67.099  1.00  0.00    -0.351 C  
HETATM   15  C   UNL     1      -9.396   9.506  68.102  1.00  0.00    -0.141 A  
HETATM   16  C   UNL     1      -9.268   8.992  69.411  1.00  0.00    -0.150 A  
HETATM   17  C   UNL     1      -8.314   9.520  70.290  1.00  0.00    -0.195 A  
HETATM   18 CL   UNL     1     -10.258   7.697  70.004  1.00  0.00    -0.208 Cl 
HETATM   19  C   UNL     1      -7.490  10.558  69.886  1.00  0.00    -0.080 A  
HETATM   20  O   UNL     1      -8.140   9.049  71.568  1.00  0.00    -0.303 OA 
HETATM   21  H   UNL     1      -7.493   9.407  72.164  1.00  0.00     0.000 HD 
HETATM   22  O   UNL     1      -6.540  11.051  70.733  1.00  0.00    -0.467 OA 
HETATM   23  C   UNL     1      -7.616  11.105  68.622  1.00  0.00    -0.127 A  
HETATM   24  H   UNL     1      -5.975  11.763  70.456  1.00  0.00     0.000 HD 
HETATM   25  C   UNL     1      -8.571  10.597  67.716  1.00  0.00    -0.123 A  
ENDBRANCH   6   9
TORSDOF 1
ENDMDL
MODEL       60
REMARK 921   NORMALIZED FREE ENERGY PREDICTED BY IDOCK:   -5.56 KCAL/MOL
REMARK 922        TOTAL FREE ENERGY PREDICTED BY IDOCK:   -6.21 KCAL/MOL
REMARK 923 INTER-LIGAND FREE ENERGY PREDICTED BY IDOCK:   -5.71 KCAL/MOL
REMARK 924 INTRA-LIGAND FREE ENERGY PREDICTED BY IDOCK:   -0.50 KCAL/MOL
REMARK 927      BINDING AFFINITY PREDICTED BY RF-SCORE:    0.00 PKD
ROOT
HETATM    1  O   UNL     1      -5.405  16.544  67.820  1.00  0.00    -0.108 OA 
HETATM    2  C   UNL     1      -6.558  15.867  67.556  1.00  0.00    -0.182 A  
HETATM    3  H   UNL     1      -5.301  17.460  67.590  1.00  0.00     0.000 HD 
HETATM    4  C   UNL     1      -6.709  14.529  67.892  1.00  0.00    -0.176 A  
HETATM    5  C   UNL     1      -7.888  13.859  67.546  1.00  0.00    -0.193 A  
HETATM    6  C   UNL     1      -8.938  14.517  66.877  1.00  0.00    -0.267 A  
HETATM    7  C   UNL     1      -8.760  15.880  66.577  1.00  0.00    -0.350 A  
HETATM    8  C   UNL     1      -7.580  16.551  66.915  1.00  0.00    -0.272 A  
ENDROOT
BRANCH   6   9
HETATM    9  C   UNL     1     -10.171  13.758  66.358  1.00  0.00    -0.292 C  
HETATM   10  C   UNL     1     -11.547  14.483  66.449  1.00  0.00    -0.364 C  
HETATM   11  N   UNL     1     -11.974  14.966  67.768  1.00  0.00    -0.517 NA 
HETATM   12  C   UNL     1     -12.266  13.886  68.711  1.00  0.00    -0.197 C  
HETATM   13  H   UNL     1     -12.769  15.598  67.683  1.00  0.00     0.000 HD 
HETATM   14  C   UNL     1     -11.037  13.075  69.143  1.00  0.00    -0.245 C  
HETATM   15  C   UNL     1     -10.696  11.970  68.162  1.00  0.00    -0.246 A  
HETATM   16  C   UNL     1     -10.763  10.606  68.519  1.00  0.00    -0.217 A  
HETATM   17  C   UNL     1     -10.504   9.610  67.569  1.00  0.00    -0.262 A  
HETATM   18 CL   UNL     1     -11.169  10.083  70.122  1.00  0.00    -0.337 Cl 
HETATM   19  C   UNL     1     -10.170   9.954  66.270  1.00  0.00    -0.211 A  
HETATM   20  O   UNL     1     -10.568   8.270  67.861  1.00  0.00    -0.352 OA 
HETATM   21  H   UNL     1     -10.392   7.594  67.217  1.00  0.00     0.000 HD 
HETATM   22  O   UNL     1      -9.947   8.983  65.337  1.00  0.00    -0.398 OA 
HETATM   23  C   UNL     1     -10.061  11.283  65.899  1.00  0.00    -0.291 A  
HETATM   24  H   UNL     1      -9.718   9.219  64.445  1.00  0.00     0.000 HD 
HETATM   25  C   UNL     1     -10.313  12.308  66.835  1.00  0.00    -0.236 A  
ENDBRANCH   6   9
TORSDOF 1
ENDMDL
MODEL       61
REMARK 921   NORMALIZED FREE ENERGY PREDICTED BY IDOCK:   -5.46 KCAL/MOL
REMARK 922        TOTAL FREE ENERGY PREDICTED BY IDOCK:   -6.11 KCAL/MOL
REMARK 923 INTER-LIGAND FREE ENERGY PREDICTED BY IDOCK:   -5.61 KCAL/MOL
REMARK 924 INTRA-LIGAND FREE ENERGY PREDICTED BY IDOCK:   -0.50 KCAL/MOL
REMARK 927      BINDING AFFINITY PREDICTED BY RF-SCORE:    0.00 PKD
ROOT
HETATM    1  O   UNL     1     -13.725  12.495  72.442  1.00  0.00    -0.572 OA 
HETATM    2  C   UNL     1     -12.974  11.637  71.695  1.00  0.00    -0.378 A  
HETATM    3  H   UNL     1     -14.271  12.187  73.156  1.00  0.00     0.000 HD 
HETATM    4  C   UNL     1     -12.176  12.088  70.653  1.00  0.00    -0.409 A  
HETATM    5  C   UNL     1     -11.470  11.164  69.875  1.00  0.00    -0.386 A  
HETATM    6  C   UNL     1     -11.535   9.782  70.136  1.00  0.00    -0.272 A  
HETATM    7  C   UNL     1     -12.331   9.365  71.218  1.00  0.00    -0.422 A  
HETATM    8  C   UNL     1     -13.044  10.285  71.993  1.00  0.00    -0.529 A  
ENDROOT
BRANCH   6   9
HETATM    9  C   UNL     1     -10.887   8.748  69.200  1.00  0.00    -0.074 C  
HETATM   10  C   UNL     1     -10.242   7.491  69.858  1.00  0.00    -0.210 C  
HETATM   11  N   UNL     1      -9.214   7.715  70.882  1.00  0.00    -0.149 NA 
HETATM   12  C   UNL     1      -7.985   8.301  70.347  1.00  0.00    -0.098 C  
HETATM   13  H   UNL     1      -9.015   6.853  71.389  1.00  0.00     0.000 HD 
HETATM   14  C   UNL     1      -8.138   9.744  69.849  1.00  0.00    -0.192 C  
HETATM   15  C   UNL     1      -8.654   9.815  68.425  1.00  0.00    -0.119 A  
HETATM   16  C   UNL     1      -7.878  10.351  67.374  1.00  0.00    -0.103 A  
HETATM   17  C   UNL     1      -8.360  10.341  66.059  1.00  0.00    -0.142 A  
HETATM   18 CL   UNL     1      -6.306  11.036  67.634  1.00  0.00    -0.058 Cl 
HETATM   19  C   UNL     1      -9.610   9.813  65.777  1.00  0.00    -0.254 A  
HETATM   20  O   UNL     1      -7.642  10.837  65.000  1.00  0.00    -0.348 OA 
HETATM   21  H   UNL     1      -7.969  10.831  64.108  1.00  0.00     0.000 HD 
HETATM   22  O   UNL     1     -10.067   9.776  64.492  1.00  0.00    -0.389 OA 
HETATM   23  C   UNL     1     -10.408   9.313  66.791  1.00  0.00    -0.296 A  
HETATM   24  H   UNL     1     -10.924   9.414  64.298  1.00  0.00     0.000 HD 
HETATM   25  C   UNL     1      -9.950   9.313  68.126  1.00  0.00    -0.206 A  
ENDBRANCH   6   9
TORSDOF 1
ENDMDL
MODEL       62
REMARK 921   NORMALIZED FREE ENERGY PREDICTED BY IDOCK:   -5.45 KCAL/MOL
REMARK 922        TOTAL FREE ENERGY PREDICTED BY IDOCK:   -6.09 KCAL/MOL
REMARK 923 INTER-LIGAND FREE ENERGY PREDICTED BY IDOCK:   -5.64 KCAL/MOL
REMARK 924 INTRA-LIGAND FREE ENERGY PREDICTED BY IDOCK:   -0.45 KCAL/MOL
REMARK 927      BINDING AFFINITY PREDICTED BY RF-SCORE:    0.00 PKD
ROOT
HETATM    1  O   UNL     1      -8.698   7.905  64.697  1.00  0.00    -0.379 OA 
HETATM    2  C   UNL     1      -8.891   8.145  66.024  1.00  0.00    -0.172 A  
HETATM    3  H   UNL     1      -7.858   7.616  64.360  1.00  0.00     0.000 HD 
HETATM    4  C   UNL     1     -10.119   8.566  66.516  1.00  0.00    -0.328 A  
HETATM    5  C   UNL     1     -10.254   8.859  67.878  1.00  0.00    -0.274 A  
HETATM    6  C   UNL     1      -9.174   8.719  68.770  1.00  0.00    -0.141 A  
HETATM    7  C   UNL     1      -7.953   8.263  68.241  1.00  0.00    -0.119 A  
HETATM    8  C   UNL     1      -7.812   7.976  66.879  1.00  0.00    -0.103 A  
ENDROOT
BRANCH   6   9
HETATM    9  C   UNL     1      -9.266   9.179  70.234  1.00  0.00    -0.249 C  
HETATM   10  C   UNL     1      -8.106   8.765  71.189  1.00  0.00    -0.157 C  
HETATM   11  N   UNL     1      -7.798   7.334  71.300  1.00  0.00    -0.095 NA 
HETATM   12  C   UNL     1      -8.861   6.564  71.948  1.00  0.00    -0.134 C  
HETATM   13  H   UNL     1      -6.907   7.191  71.774  1.00  0.00     0.000 HD 
HETATM   14  C   UNL     1     -10.155   6.463  71.130  1.00  0.00    -0.213 C  
HETATM   15  C   UNL     1     -11.062   7.662  71.328  1.00  0.00    -0.268 A  
HETATM   16  C   UNL     1     -12.338   7.544  71.922  1.00  0.00    -0.310 A  
HETATM   17  C   UNL     1     -13.123   8.682  72.148  1.00  0.00    -0.383 A  
HETATM   18 CL   UNL     1     -13.002   6.017  72.405  1.00  0.00     0.192 Cl 
HETATM   19  C   UNL     1     -12.658   9.935  71.784  1.00  0.00    -0.414 A  
HETATM   20  O   UNL     1     -14.363   8.625  72.733  1.00  0.00    -0.866 OA 
HETATM   21  H   UNL     1     -14.896   9.396  72.887  1.00  0.00     0.000 HD 
HETATM   22  O   UNL     1     -13.409  11.047  72.033  1.00  0.00    -0.499 OA 
HETATM   23  C   UNL     1     -11.427  10.078  71.168  1.00  0.00    -0.432 A  
HETATM   24  H   UNL     1     -13.091  11.907  71.783  1.00  0.00     0.000 HD 
HETATM   25  C   UNL     1     -10.616   8.950  70.924  1.00  0.00    -0.295 A  
ENDBRANCH   6   9
TORSDOF 1
ENDMDL
MODEL       63
REMARK 921   NORMALIZED FREE ENERGY PREDICTED BY IDOCK:   -5.43 KCAL/MOL
REMARK 922        TOTAL FREE ENERGY PREDICTED BY IDOCK:   -6.07 KCAL/MOL
REMARK 923 INTER-LIGAND FREE ENERGY PREDICTED BY IDOCK:   -5.65 KCAL/MOL
REMARK 924 INTRA-LIGAND FREE ENERGY PREDICTED BY IDOCK:   -0.42 KCAL/MOL
REMARK 927      BINDING AFFINITY PREDICTED BY RF-SCORE:    0.00 PKD
ROOT
HETATM    1  O   UNL     1      -5.351  16.682  69.212  1.00  0.00    -0.130 OA 
HETATM    2  C   UNL     1      -6.563  16.470  68.625  1.00  0.00    -0.145 A  
HETATM    3  H   UNL     1      -4.606  16.120  69.033  1.00  0.00     0.000 HD 
HETATM    4  C   UNL     1      -7.651  17.290  68.888  1.00  0.00    -0.235 A  
HETATM    5  C   UNL     1      -8.891  16.998  68.309  1.00  0.00    -0.242 A  
HETATM    6  C   UNL     1      -9.059  15.897  67.448  1.00  0.00    -0.205 A  
HETATM    7  C   UNL     1      -7.927  15.105  67.183  1.00  0.00    -0.248 A  
HETATM    8  C   UNL     1      -6.688  15.390  67.765  1.00  0.00    -0.187 A  
ENDROOT
BRANCH   6   9
HETATM    9  C   UNL     1     -10.444  15.478  66.928  1.00  0.00    -0.301 C  
HETATM   10  C   UNL     1     -11.657  15.664  67.889  1.00  0.00    -0.190 C  
HETATM   11  N   UNL     1     -11.580  15.026  69.208  1.00  0.00    -0.297 NA 
HETATM   12  C   UNL     1     -11.613  13.564  69.145  1.00  0.00    -0.310 C  
HETATM   13  H   UNL     1     -12.312  15.379  69.824  1.00  0.00     0.000 HD 
HETATM   14  C   UNL     1     -10.369  12.933  68.505  1.00  0.00    -0.239 C  
HETATM   15  C   UNL     1     -10.455  12.885  66.992  1.00  0.00    -0.244 A  
HETATM   16  C   UNL     1     -10.492  11.664  66.283  1.00  0.00    -0.246 A  
HETATM   17  C   UNL     1     -10.637  11.657  64.890  1.00  0.00    -0.296 A  
HETATM   18 CL   UNL     1     -10.371  10.125  67.073  1.00  0.00    -0.289 Cl 
HETATM   19  C   UNL     1     -10.736  12.850  64.192  1.00  0.00    -0.415 A  
HETATM   20  O   UNL     1     -10.692  10.499  64.155  1.00  0.00    -0.328 OA 
HETATM   21  H   UNL     1     -10.789  10.494  63.210  1.00  0.00     0.000 HD 
HETATM   22  O   UNL     1     -10.908  12.841  62.838  1.00  0.00    -0.388 OA 
HETATM   23  C   UNL     1     -10.667  14.062  64.855  1.00  0.00    -0.432 A  
HETATM   24  H   UNL     1     -10.976  13.659  62.358  1.00  0.00     0.000 HD 
HETATM   25  C   UNL     1     -10.518  14.101  66.257  1.00  0.00    -0.286 A  
ENDBRANCH   6   9
TORSDOF 1
ENDMDL
MODEL       64
REMARK 921   NORMALIZED FREE ENERGY PREDICTED BY IDOCK:   -5.40 KCAL/MOL
REMARK 922        TOTAL FREE ENERGY PREDICTED BY IDOCK:   -6.03 KCAL/MOL
REMARK 923 INTER-LIGAND FREE ENERGY PREDICTED BY IDOCK:   -5.58 KCAL/MOL
REMARK 924 INTRA-LIGAND FREE ENERGY PREDICTED BY IDOCK:   -0.45 KCAL/MOL
REMARK 927      BINDING AFFINITY PREDICTED BY RF-SCORE:    0.00 PKD
ROOT
HETATM    1  O   UNL     1     -12.438  13.258  70.978  1.00  0.00    -0.366 OA 
HETATM    2  C   UNL     1     -12.423  11.895  70.937  1.00  0.00    -0.300 A  
HETATM    3  H   UNL     1     -11.964  13.780  70.342  1.00  0.00     0.000 HD 
HETATM    4  C   UNL     1     -13.115  11.132  71.867  1.00  0.00    -0.513 A  
HETATM    5  C   UNL     1     -13.022   9.737  71.822  1.00  0.00    -0.536 A  
HETATM    6  C   UNL     1     -12.252   9.083  70.841  1.00  0.00    -0.205 A  
HETATM    7  C   UNL     1     -11.587   9.888  69.899  1.00  0.00    -0.184 A  
HETATM    8  C   UNL     1     -11.673  11.283  69.945  1.00  0.00    -0.430 A  
ENDROOT
BRANCH   6   9
HETATM    9  C   UNL     1     -12.019   7.563  70.872  1.00  0.00    -0.278 C  
HETATM   10  C   UNL     1     -11.996   6.871  72.268  1.00  0.00    -0.206 C  
HETATM   11  N   UNL     1     -11.045   7.382  73.262  1.00  0.00    -0.576 NA 
HETATM   12  C   UNL     1      -9.647   7.134  72.905  1.00  0.00    -0.154 C  
HETATM   13  H   UNL     1     -11.253   7.010  74.188  1.00  0.00     0.000 HD 
HETATM   14  C   UNL     1      -9.159   7.925  71.684  1.00  0.00    -0.175 C  
HETATM   15  C   UNL     1      -9.495   7.238  70.374  1.00  0.00    -0.165 A  
HETATM   16  C   UNL     1      -8.493   6.760  69.501  1.00  0.00    -0.133 A  
HETATM   17  C   UNL     1      -8.840   6.072  68.332  1.00  0.00    -0.112 A  
HETATM   18 CL   UNL     1      -6.802   6.982  69.816  1.00  0.00    -0.049 Cl 
HETATM   19  C   UNL     1     -10.172   5.861  68.014  1.00  0.00    -0.184 A  
HETATM   20  O   UNL     1      -7.905   5.576  67.457  1.00  0.00    -0.099 OA 
HETATM   21  H   UNL     1      -8.141   5.110  66.663  1.00  0.00     0.000 HD 
HETATM   22  O   UNL     1     -10.509   5.164  66.890  1.00  0.00    -0.242 OA 
HETATM   23  C   UNL     1     -11.176   6.348  68.832  1.00  0.00    -0.385 A  
HETATM   24  H   UNL     1     -11.422   5.019  66.672  1.00  0.00     0.000 HD 
HETATM   25  C   UNL     1     -10.857   7.048  70.015  1.00  0.00    -0.290 A  
ENDBRANCH   6   9
TORSDOF 1
ENDMDL
MODEL       65
REMARK 921   NORMALIZED FREE ENERGY PREDICTED BY IDOCK:   -5.39 KCAL/MOL
REMARK 922        TOTAL FREE ENERGY PREDICTED BY IDOCK:   -6.03 KCAL/MOL
REMARK 923 INTER-LIGAND FREE ENERGY PREDICTED BY IDOCK:   -5.63 KCAL/MOL
REMARK 924 INTRA-LIGAND FREE ENERGY PREDICTED BY IDOCK:   -0.39 KCAL/MOL
REMARK 927      BINDING AFFINITY PREDICTED BY RF-SCORE:    0.00 PKD
ROOT
HETATM    1  O   UNL     1      -6.297   7.842  74.536  1.00  0.00    -0.091 OA 
HETATM    2  C   UNL     1      -7.418   7.934  73.766  1.00  0.00    -0.148 A  
HETATM    3  H   UNL     1      -6.309   7.414  75.384  1.00  0.00     0.000 HD 
HETATM    4  C   UNL     1      -7.399   8.559  72.527  1.00  0.00    -0.077 A  
HETATM    5  C   UNL     1      -8.588   8.684  71.799  1.00  0.00    -0.240 A  
HETATM    6  C   UNL     1      -9.805   8.172  72.286  1.00  0.00    -0.329 A  
HETATM    7  C   UNL     1      -9.780   7.521  73.533  1.00  0.00    -0.358 A  
HETATM    8  C   UNL     1      -8.595   7.401  74.266  1.00  0.00    -0.258 A  
ENDROOT
BRANCH   6   9
HETATM    9  C   UNL     1     -11.141   8.434  71.570  1.00  0.00    -0.329 C  
HETATM   10  C   UNL     1     -12.083   7.214  71.345  1.00  0.00    -0.344 C  
HETATM   11  N   UNL     1     -11.534   6.056  70.630  1.00  0.00    -0.246 NA 
HETATM   12  C   UNL     1     -11.243   6.332  69.222  1.00  0.00    -0.389 C  
HETATM   13  H   UNL     1     -12.150   5.248  70.721  1.00  0.00     0.000 HD 
HETATM   14  C   UNL     1     -10.087   7.316  68.999  1.00  0.00    -0.186 C  
HETATM   15  C   UNL     1     -10.534   8.763  69.070  1.00  0.00    -0.220 A  
HETATM   16  C   UNL     1     -10.465   9.624  67.952  1.00  0.00    -0.246 A  
HETATM   17  C   UNL     1     -10.947  10.936  68.036  1.00  0.00    -0.265 A  
HETATM   18 CL   UNL     1      -9.797   9.122  66.432  1.00  0.00    -0.328 Cl 
HETATM   19  C   UNL     1     -11.491  11.406  69.220  1.00  0.00    -0.303 A  
HETATM   20  O   UNL     1     -10.915  11.808  66.976  1.00  0.00    -0.254 OA 
HETATM   21  H   UNL     1     -11.242  12.698  67.033  1.00  0.00     0.000 HD 
HETATM   22  O   UNL     1     -11.989  12.675  69.292  1.00  0.00    -0.292 OA 
HETATM   23  C   UNL     1     -11.541  10.598  70.342  1.00  0.00    -0.441 A  
HETATM   24  H   UNL     1     -12.362  12.998  70.104  1.00  0.00     0.000 HD 
HETATM   25  C   UNL     1     -11.059   9.273  70.289  1.00  0.00    -0.289 A  
ENDBRANCH   6   9
TORSDOF 1
ENDMDL
MODEL       66
REMARK 921   NORMALIZED FREE ENERGY PREDICTED BY IDOCK:   -5.37 KCAL/MOL
REMARK 922        TOTAL FREE ENERGY PREDICTED BY IDOCK:   -6.01 KCAL/MOL
REMARK 923 INTER-LIGAND FREE ENERGY PREDICTED BY IDOCK:   -5.62 KCAL/MOL
REMARK 924 INTRA-LIGAND FREE ENERGY PREDICTED BY IDOCK:   -0.38 KCAL/MOL
REMARK 927      BINDING AFFINITY PREDICTED BY RF-SCORE:    0.00 PKD
ROOT
HETATM    1  O   UNL     1      -5.431   9.445  67.148  1.00  0.00    -0.039 OA 
HETATM    2  C   UNL     1      -6.320  10.456  67.363  1.00  0.00    -0.058 A  
HETATM    3  H   UNL     1      -5.294   9.078  66.283  1.00  0.00     0.000 HD 
HETATM    4  C   UNL     1      -6.521  10.993  68.627  1.00  0.00    -0.052 A  
HETATM    5  C   UNL     1      -7.487  11.988  68.809  1.00  0.00    -0.086 A  
HETATM    6  C   UNL     1      -8.254  12.474  67.733  1.00  0.00    -0.166 A  
HETATM    7  C   UNL     1      -8.004  11.926  66.462  1.00  0.00     0.041 A  
HETATM    8  C   UNL     1      -7.043  10.927  66.277  1.00  0.00    -0.119 A  
ENDROOT
BRANCH   6   9
HETATM    9  C   UNL     1      -9.420  13.454  67.945  1.00  0.00    -0.216 C  
HETATM   10  C   UNL     1     -10.321  13.235  69.197  1.00  0.00     0.149 C  
HETATM   11  N   UNL     1     -10.950  11.918  69.357  1.00  0.00    -0.434 NA 
HETATM   12  C   UNL     1     -11.965  11.636  68.342  1.00  0.00    -0.196 C  
HETATM   13  H   UNL     1     -11.336  11.812  70.295  1.00  0.00     0.000 HD 
HETATM   14  C   UNL     1     -11.406  11.459  66.923  1.00  0.00    -0.284 C  
HETATM   15  C   UNL     1     -11.219  12.780  66.203  1.00  0.00    -0.336 A  
HETATM   16  C   UNL     1     -11.953  13.110  65.043  1.00  0.00    -0.383 A  
HETATM   17  C   UNL     1     -11.802  14.365  64.441  1.00  0.00    -0.415 A  
HETATM   18 CL   UNL     1     -13.070  12.008  64.304  1.00  0.00    -0.184 Cl 
HETATM   19  C   UNL     1     -10.924  15.295  64.974  1.00  0.00    -0.437 A  
HETATM   20  O   UNL     1     -12.500  14.741  63.320  1.00  0.00    -0.798 OA 
HETATM   21  H   UNL     1     -12.398  15.592  62.912  1.00  0.00     0.000 HD 
HETATM   22  O   UNL     1     -10.801  16.530  64.406  1.00  0.00    -1.027 OA 
HETATM   23  C   UNL     1     -10.166  14.988  66.090  1.00  0.00    -0.311 A  
HETATM   24  H   UNL     1     -10.198  17.167  64.771  1.00  0.00     0.000 HD 
HETATM   25  C   UNL     1     -10.293  13.730  66.716  1.00  0.00    -0.272 A  
ENDBRANCH   6   9
TORSDOF 1
ENDMDL
MODEL       67
REMARK 921   NORMALIZED FREE ENERGY PREDICTED BY IDOCK:   -5.35 KCAL/MOL
REMARK 922        TOTAL FREE ENERGY PREDICTED BY IDOCK:   -5.98 KCAL/MOL
REMARK 923 INTER-LIGAND FREE ENERGY PREDICTED BY IDOCK:   -5.72 KCAL/MOL
REMARK 924 INTRA-LIGAND FREE ENERGY PREDICTED BY IDOCK:   -0.27 KCAL/MOL
REMARK 927      BINDING AFFINITY PREDICTED BY RF-SCORE:    0.00 PKD
ROOT
HETATM    1  O   UNL     1      -5.325  14.179  68.567  1.00  0.00    -0.086 OA 
HETATM    2  C   UNL     1      -6.541  13.662  68.236  1.00  0.00    -0.108 A  
HETATM    3  H   UNL     1      -4.716  13.704  69.121  1.00  0.00     0.000 HD 
HETATM    4  C   UNL     1      -7.431  14.356  67.428  1.00  0.00    -0.183 A  
HETATM    5  C   UNL     1      -8.693  13.812  67.164  1.00  0.00    -0.231 A  
HETATM    6  C   UNL     1      -9.079  12.563  67.687  1.00  0.00    -0.187 A  
HETATM    7  C   UNL     1      -8.141  11.876  68.479  1.00  0.00    -0.130 A  
HETATM    8  C   UNL     1      -6.881  12.419  68.750  1.00  0.00    -0.092 A  
ENDROOT
BRANCH   6   9
HETATM    9  C   UNL     1     -10.511  12.025  67.530  1.00  0.00    -0.234 C  
HETATM   10  C   UNL     1     -11.426  12.721  66.479  1.00  0.00    -0.355 C  
HETATM   11  N   UNL     1     -11.618  14.171  66.602  1.00  0.00    -0.366 NA 
HETATM   12  C   UNL     1     -12.374  14.554  67.794  1.00  0.00     0.067 C  
HETATM   13  H   UNL     1     -12.050  14.552  65.760  1.00  0.00     0.000 HD 
HETATM   14  C   UNL     1     -11.638  14.301  69.117  1.00  0.00    -0.346 C  
HETATM   15  C   UNL     1     -11.803  12.877  69.611  1.00  0.00    -0.387 A  
HETATM   16  C   UNL     1     -12.474  12.577  70.817  1.00  0.00    -0.268 A  
HETATM   17  C   UNL     1     -12.665  11.246  71.210  1.00  0.00    -0.405 A  
HETATM   18 CL   UNL     1     -13.097  13.808  71.867  1.00  0.00    -0.453 Cl 
HETATM   19  C   UNL     1     -12.190  10.210  70.422  1.00  0.00    -0.218 A  
HETATM   20  O   UNL     1     -13.320  10.900  72.365  1.00  0.00    -0.600 OA 
HETATM   21  H   UNL     1     -13.450   9.997  72.632  1.00  0.00     0.000 HD 
HETATM   22  O   UNL     1     -12.404   8.913  70.790  1.00  0.00    -0.485 OA 
HETATM   23  C   UNL     1     -11.499  10.473  69.253  1.00  0.00    -0.323 A  
HETATM   24  H   UNL     1     -12.078   8.202  70.250  1.00  0.00     0.000 HD 
HETATM   25  C   UNL     1     -11.288  11.804  68.833  1.00  0.00    -0.326 A  
ENDBRANCH   6   9
TORSDOF 1
ENDMDL
MODEL       68
REMARK 921   NORMALIZED FREE ENERGY PREDICTED BY IDOCK:   -5.33 KCAL/MOL
REMARK 922        TOTAL FREE ENERGY PREDICTED BY IDOCK:   -5.96 KCAL/MOL
REMARK 923 INTER-LIGAND FREE ENERGY PREDICTED BY IDOCK:   -5.53 KCAL/MOL
REMARK 924 INTRA-LIGAND FREE ENERGY PREDICTED BY IDOCK:   -0.44 KCAL/MOL
REMARK 927      BINDING AFFINITY PREDICTED BY RF-SCORE:    0.00 PKD
ROOT
HETATM    1  O   UNL     1      -6.556  19.587  68.447  1.00  0.00    -0.243 OA 
HETATM    2  C   UNL     1      -7.678  18.849  68.217  1.00  0.00    -0.301 A  
HETATM    3  H   UNL     1      -5.777  19.488  67.912  1.00  0.00     0.000 HD 
HETATM    4  C   UNL     1      -8.817  18.994  68.998  1.00  0.00    -0.210 A  
HETATM    5  C   UNL     1      -9.924  18.173  68.762  1.00  0.00    -0.389 A  
HETATM    6  C   UNL     1      -9.920  17.209  67.736  1.00  0.00    -0.290 A  
HETATM    7  C   UNL     1      -8.759  17.110  66.947  1.00  0.00    -0.254 A  
HETATM    8  C   UNL     1      -7.648  17.925  67.184  1.00  0.00    -0.219 A  
ENDROOT
BRANCH   6   9
HETATM    9  C   UNL     1     -11.068  16.201  67.565  1.00  0.00    -0.175 C  
HETATM   10  C   UNL     1     -11.793  15.715  68.856  1.00  0.00    -0.352 C  
HETATM   11  N   UNL     1     -10.968  15.116  69.912  1.00  0.00    -0.262 NA 
HETATM   12  C   UNL     1     -10.384  13.831  69.528  1.00  0.00     0.376 C  
HETATM   13  H   UNL     1     -11.496  15.030  70.780  1.00  0.00     0.000 HD 
HETATM   14  C   UNL     1      -9.322  13.925  68.425  1.00  0.00    -0.201 C  
HETATM   15  C   UNL     1      -9.927  13.933  67.034  1.00  0.00    -0.258 A  
HETATM   16  C   UNL     1      -9.689  12.894  66.108  1.00  0.00    -0.248 A  
HETATM   17  C   UNL     1     -10.317  12.901  64.857  1.00  0.00    -0.308 A  
HETATM   18 CL   UNL     1      -8.631  11.564  66.454  1.00  0.00    -0.177 Cl 
HETATM   19  C   UNL     1     -11.173  13.934  64.510  1.00  0.00    -0.365 A  
HETATM   20  O   UNL     1     -10.130  11.909  63.926  1.00  0.00    -0.323 OA 
HETATM   21  H   UNL     1     -10.556  11.914  63.076  1.00  0.00     0.000 HD 
HETATM   22  O   UNL     1     -11.809  13.924  63.303  1.00  0.00    -0.684 OA 
HETATM   23  C   UNL     1     -11.399  14.983  65.383  1.00  0.00    -0.328 A  
HETATM   24  H   UNL     1     -12.396  14.633  63.065  1.00  0.00     0.000 HD 
HETATM   25  C   UNL     1     -10.778  15.005  66.649  1.00  0.00    -0.312 A  
ENDBRANCH   6   9
TORSDOF 1
ENDMDL
MODEL       69
REMARK 921   NORMALIZED FREE ENERGY PREDICTED BY IDOCK:   -5.32 KCAL/MOL
REMARK 922        TOTAL FREE ENERGY PREDICTED BY IDOCK:   -5.96 KCAL/MOL
REMARK 923 INTER-LIGAND FREE ENERGY PREDICTED BY IDOCK:   -5.75 KCAL/MOL
REMARK 924 INTRA-LIGAND FREE ENERGY PREDICTED BY IDOCK:   -0.21 KCAL/MOL
REMARK 927      BINDING AFFINITY PREDICTED BY RF-SCORE:    0.00 PKD
ROOT
HETATM    1  O   UNL     1      -9.166   9.853  62.336  1.00  0.00    -0.278 OA 
HETATM    2  C   UNL     1      -9.632  10.459  63.464  1.00  0.00    -0.310 A  
HETATM    3  H   UNL     1      -8.842   8.960  62.348  1.00  0.00     0.000 HD 
HETATM    4  C   UNL     1     -10.105  11.764  63.447  1.00  0.00    -0.470 A  
HETATM    5  C   UNL     1     -10.517  12.365  64.641  1.00  0.00    -0.338 A  
HETATM    6  C   UNL     1     -10.480  11.670  65.865  1.00  0.00    -0.300 A  
HETATM    7  C   UNL     1     -10.020  10.341  65.840  1.00  0.00    -0.321 A  
HETATM    8  C   UNL     1      -9.601   9.739  64.649  1.00  0.00    -0.244 A  
ENDROOT
BRANCH   6   9
HETATM    9  C   UNL     1     -10.785  12.365  67.202  1.00  0.00    -0.264 C  
HETATM   10  C   UNL     1     -10.012  13.681  67.518  1.00  0.00    -0.230 C  
HETATM   11  N   UNL     1      -8.545  13.630  67.486  1.00  0.00    -0.184 NA 
HETATM   12  C   UNL     1      -7.974  12.814  68.558  1.00  0.00    -0.095 C  
HETATM   13  H   UNL     1      -8.150  14.570  67.496  1.00  0.00     0.000 HD 
HETATM   14  C   UNL     1      -8.264  11.313  68.430  1.00  0.00    -0.149 C  
HETATM   15  C   UNL     1      -9.610  10.929  69.014  1.00  0.00    -0.170 A  
HETATM   16  C   UNL     1      -9.724  10.073  70.131  1.00  0.00    -0.123 A  
HETATM   17  C   UNL     1     -10.980   9.792  70.684  1.00  0.00    -0.331 A  
HETATM   18 CL   UNL     1      -8.347   9.331  70.880  1.00  0.00    -0.232 Cl 
HETATM   19  C   UNL     1     -12.125  10.347  70.136  1.00  0.00    -0.256 A  
HETATM   20  O   UNL     1     -11.145   8.977  71.776  1.00  0.00    -0.334 OA 
HETATM   21  H   UNL     1     -11.997   8.786  72.152  1.00  0.00     0.000 HD 
HETATM   22  O   UNL     1     -13.345  10.097  70.694  1.00  0.00    -0.556 OA 
HETATM   23  C   UNL     1     -12.048  11.162  69.020  1.00  0.00    -0.315 A  
HETATM   24  H   UNL     1     -14.131  10.478  70.318  1.00  0.00     0.000 HD 
HETATM   25  C   UNL     1     -10.797  11.459  68.439  1.00  0.00    -0.248 A  
ENDBRANCH   6   9
TORSDOF 1
ENDMDL
MODEL       70
REMARK 921   NORMALIZED FREE ENERGY PREDICTED BY IDOCK:   -5.30 KCAL/MOL
REMARK 922        TOTAL FREE ENERGY PREDICTED BY IDOCK:   -5.93 KCAL/MOL
REMARK 923 INTER-LIGAND FREE ENERGY PREDICTED BY IDOCK:   -6.12 KCAL/MOL
REMARK 924 INTRA-LIGAND FREE ENERGY PREDICTED BY IDOCK:    0.19 KCAL/MOL
REMARK 927      BINDING AFFINITY PREDICTED BY RF-SCORE:    0.00 PKD
ROOT
HETATM    1  O   UNL     1     -13.369  14.070  65.195  1.00  0.00    -0.703 OA 
HETATM    2  C   UNL     1     -12.420  13.430  65.935  1.00  0.00    -0.408 A  
HETATM    3  H   UNL     1     -13.743  14.897  65.475  1.00  0.00     0.000 HD 
HETATM    4  C   UNL     1     -11.872  12.221  65.528  1.00  0.00    -0.420 A  
HETATM    5  C   UNL     1     -10.945  11.571  66.350  1.00  0.00    -0.336 A  
HETATM    6  C   UNL     1     -10.538  12.123  67.579  1.00  0.00    -0.240 A  
HETATM    7  C   UNL     1     -11.094  13.362  67.947  1.00  0.00    -0.289 A  
HETATM    8  C   UNL     1     -12.026  14.012  67.131  1.00  0.00    -0.465 A  
ENDROOT
BRANCH   6   9
HETATM    9  C   UNL     1      -9.640  11.350  68.558  1.00  0.00    -0.190 C  
HETATM   10  C   UNL     1      -8.133  11.209  68.188  1.00  0.00    -0.128 C  
HETATM   11  N   UNL     1      -7.807  10.616  66.885  1.00  0.00    -0.117 NA 
HETATM   12  C   UNL     1      -8.157   9.198  66.794  1.00  0.00    -0.111 C  
HETATM   13  H   UNL     1      -6.824  10.762  66.656  1.00  0.00     0.000 HD 
HETATM   14  C   UNL     1      -9.666   8.919  66.809  1.00  0.00    -0.282 C  
HETATM   15  C   UNL     1     -10.230   8.848  68.215  1.00  0.00    -0.239 A  
HETATM   16  C   UNL     1     -10.785   7.660  68.740  1.00  0.00    -0.077 A  
HETATM   17  C   UNL     1     -11.236   7.613  70.064  1.00  0.00    -0.134 A  
HETATM   18 CL   UNL     1     -10.936   6.210  67.801  1.00  0.00    -0.414 Cl 
HETATM   19  C   UNL     1     -11.151   8.735  70.873  1.00  0.00    -0.268 A  
HETATM   20  O   UNL     1     -11.772   6.481  70.627  1.00  0.00    -0.373 OA 
HETATM   21  H   UNL     1     -12.079   6.448  71.525  1.00  0.00     0.000 HD 
HETATM   22  O   UNL     1     -11.563   8.679  72.173  1.00  0.00    -0.342 OA 
HETATM   23  C   UNL     1     -10.644   9.923  70.377  1.00  0.00    -0.364 A  
HETATM   24  H   UNL     1     -11.504   9.449  72.727  1.00  0.00     0.000 HD 
HETATM   25  C   UNL     1     -10.185  10.002  69.045  1.00  0.00    -0.216 A  
ENDBRANCH   6   9
TORSDOF 1
ENDMDL
MODEL       71
REMARK 921   NORMALIZED FREE ENERGY PREDICTED BY IDOCK:   -5.27 KCAL/MOL
REMARK 922        TOTAL FREE ENERGY PREDICTED BY IDOCK:   -5.90 KCAL/MOL
REMARK 923 INTER-LIGAND FREE ENERGY PREDICTED BY IDOCK:   -5.46 KCAL/MOL
REMARK 924 INTRA-LIGAND FREE ENERGY PREDICTED BY IDOCK:   -0.44 KCAL/MOL
REMARK 927      BINDING AFFINITY PREDICTED BY RF-SCORE:    0.00 PKD
ROOT
HETATM    1  O   UNL     1     -14.207   8.888  73.145  1.00  0.00    -1.144 OA 
HETATM    2  C   UNL     1     -13.065   8.963  72.405  1.00  0.00    -0.418 A  
HETATM    3  H   UNL     1     -14.852   9.586  73.136  1.00  0.00     0.000 HD 
HETATM    4  C   UNL     1     -12.122   7.944  72.417  1.00  0.00    -0.336 A  
HETATM    5  C   UNL     1     -10.936   8.091  71.689  1.00  0.00    -0.288 A  
HETATM    6  C   UNL     1     -10.682   9.247  70.926  1.00  0.00    -0.371 A  
HETATM    7  C   UNL     1     -11.672  10.246  70.915  1.00  0.00    -0.472 A  
HETATM    8  C   UNL     1     -12.855  10.105  71.647  1.00  0.00    -0.559 A  
ENDROOT
BRANCH   6   9
HETATM    9  C   UNL     1      -9.324   9.487  70.246  1.00  0.00    -0.305 C  
HETATM   10  C   UNL     1      -9.218  10.692  69.263  1.00  0.00    -0.104 C  
HETATM   11  N   UNL     1     -10.172  10.743  68.148  1.00  0.00    -0.166 NA 
HETATM   12  C   UNL     1      -9.967   9.679  67.165  1.00  0.00    -0.194 C  
HETATM   13  H   UNL     1     -10.156  11.659  67.700  1.00  0.00     0.000 HD 
HETATM   14  C   UNL     1     -10.287   8.270  67.684  1.00  0.00    -0.313 C  
HETATM   15  C   UNL     1      -9.122   7.647  68.428  1.00  0.00    -0.130 A  
HETATM   16  C   UNL     1      -8.466   6.489  67.957  1.00  0.00    -0.119 A  
HETATM   17  C   UNL     1      -7.353   5.978  68.636  1.00  0.00    -0.085 A  
HETATM   18 CL   UNL     1      -8.981   5.643  66.534  1.00  0.00    -0.122 Cl 
HETATM   19  C   UNL     1      -6.888   6.601  69.783  1.00  0.00    -0.055 A  
HETATM   20  O   UNL     1      -6.672   4.864  68.214  1.00  0.00    -0.051 OA 
HETATM   21  H   UNL     1      -5.917   4.517  68.674  1.00  0.00     0.000 HD 
HETATM   22  O   UNL     1      -5.784   6.121  70.427  1.00  0.00    -0.016 OA 
HETATM   23  C   UNL     1      -7.530   7.717  70.289  1.00  0.00    -0.083 A  
HETATM   24  H   UNL     1      -5.465   6.547  71.214  1.00  0.00     0.000 HD 
HETATM   25  C   UNL     1      -8.657   8.252  69.629  1.00  0.00    -0.129 A  
ENDBRANCH   6   9
TORSDOF 1
ENDMDL
MODEL       72
REMARK 921   NORMALIZED FREE ENERGY PREDICTED BY IDOCK:   -5.25 KCAL/MOL
REMARK 922        TOTAL FREE ENERGY PREDICTED BY IDOCK:   -5.88 KCAL/MOL
REMARK 923 INTER-LIGAND FREE ENERGY PREDICTED BY IDOCK:   -5.43 KCAL/MOL
REMARK 924 INTRA-LIGAND FREE ENERGY PREDICTED BY IDOCK:   -0.45 KCAL/MOL
REMARK 927      BINDING AFFINITY PREDICTED BY RF-SCORE:    0.00 PKD
ROOT
HETATM    1  O   UNL     1     -10.634   4.352  66.307  1.00  0.00    -0.397 OA 
HETATM    2  C   UNL     1     -10.316   5.468  67.022  1.00  0.00    -0.254 A  
HETATM    3  H   UNL     1     -10.261   3.504  66.516  1.00  0.00     0.000 HD 
HETATM    4  C   UNL     1     -10.862   6.707  66.717  1.00  0.00    -0.322 A  
HETATM    5  C   UNL     1     -10.459   7.836  67.439  1.00  0.00    -0.362 A  
HETATM    6  C   UNL     1      -9.522   7.743  68.486  1.00  0.00    -0.148 A  
HETATM    7  C   UNL     1      -9.011   6.466  68.784  1.00  0.00    -0.126 A  
HETATM    8  C   UNL     1      -9.406   5.337  68.060  1.00  0.00    -0.135 A  
ENDROOT
BRANCH   6   9
HETATM    9  C   UNL     1      -8.959   8.991  69.185  1.00  0.00    -0.140 C  
HETATM   10  C   UNL     1      -8.118   8.770  70.478  1.00  0.00    -0.124 C  
HETATM   11  N   UNL     1      -8.743   8.019  71.573  1.00  0.00    -0.127 NA 
HETATM   12  C   UNL     1      -9.861   8.729  72.194  1.00  0.00    -0.277 C  
HETATM   13  H   UNL     1      -8.050   7.752  72.271  1.00  0.00     0.000 HD 
HETATM   14  C   UNL     1     -11.089   8.889  71.287  1.00  0.00    -0.367 C  
HETATM   15  C   UNL     1     -10.983  10.094  70.373  1.00  0.00    -0.386 A  
HETATM   16  C   UNL     1     -11.872  11.187  70.470  1.00  0.00    -0.351 A  
HETATM   17  C   UNL     1     -11.704  12.312  69.653  1.00  0.00    -0.316 A  
HETATM   18 CL   UNL     1     -13.197  11.212  71.588  1.00  0.00    -0.501 Cl 
HETATM   19  C   UNL     1     -10.669  12.360  68.734  1.00  0.00    -0.209 A  
HETATM   20  O   UNL     1     -12.532  13.406  69.717  1.00  0.00    -0.202 OA 
HETATM   21  H   UNL     1     -12.419  14.169  69.162  1.00  0.00     0.000 HD 
HETATM   22  O   UNL     1     -10.488  13.470  67.960  1.00  0.00    -0.231 OA 
HETATM   23  C   UNL     1      -9.803  11.291  68.591  1.00  0.00    -0.208 A  
HETATM   24  H   UNL     1      -9.777  13.503  67.329  1.00  0.00     0.000 HD 
HETATM   25  C   UNL     1      -9.949  10.142  69.398  1.00  0.00    -0.247 A  
ENDBRANCH   6   9
TORSDOF 1
ENDMDL
MODEL       73
REMARK 921   NORMALIZED FREE ENERGY PREDICTED BY IDOCK:   -5.22 KCAL/MOL
REMARK 922        TOTAL FREE ENERGY PREDICTED BY IDOCK:   -5.84 KCAL/MOL
REMARK 923 INTER-LIGAND FREE ENERGY PREDICTED BY IDOCK:   -5.37 KCAL/MOL
REMARK 924 INTRA-LIGAND FREE ENERGY PREDICTED BY IDOCK:   -0.47 KCAL/MOL
REMARK 927      BINDING AFFINITY PREDICTED BY RF-SCORE:    0.00 PKD
ROOT
HETATM    1  O   UNL     1     -12.745  14.130  66.396  1.00  0.00    -0.529 OA 
HETATM    2  C   UNL     1     -11.696  13.366  66.811  1.00  0.00    -0.385 A  
HETATM    3  H   UNL     1     -13.521  14.243  66.932  1.00  0.00     0.000 HD 
HETATM    4  C   UNL     1     -10.562  13.200  66.028  1.00  0.00    -0.291 A  
HETATM    5  C   UNL     1      -9.536  12.357  66.469  1.00  0.00    -0.242 A  
HETATM    6  C   UNL     1      -9.617  11.684  67.703  1.00  0.00    -0.184 A  
HETATM    7  C   UNL     1     -10.768  11.898  68.482  1.00  0.00    -0.254 A  
HETATM    8  C   UNL     1     -11.799  12.734  68.041  1.00  0.00    -0.386 A  
ENDROOT
BRANCH   6   9
HETATM    9  C   UNL     1      -8.569  10.642  68.129  1.00  0.00    -0.123 C  
HETATM   10  C   UNL     1      -7.693  10.008  67.007  1.00  0.00    -0.095 C  
HETATM   11  N   UNL     1      -8.388   9.356  65.891  1.00  0.00    -0.118 NA 
HETATM   12  C   UNL     1      -9.099   8.139  66.285  1.00  0.00    -0.185 C  
HETATM   13  H   UNL     1      -7.744   9.167  65.123  1.00  0.00     0.000 HD 
HETATM   14  C   UNL     1     -10.304   8.383  67.203  1.00  0.00    -0.381 C  
HETATM   15  C   UNL     1      -9.911   8.488  68.664  1.00  0.00    -0.180 A  
HETATM   16  C   UNL     1     -10.345   7.549  69.625  1.00  0.00    -0.225 A  
HETATM   17  C   UNL     1      -9.909   7.639  70.953  1.00  0.00    -0.176 A  
HETATM   18 CL   UNL     1     -11.419   6.245  69.233  1.00  0.00    -0.426 Cl 
HETATM   19  C   UNL     1      -9.052   8.657  71.339  1.00  0.00    -0.229 A  
HETATM   20  O   UNL     1     -10.291   6.746  71.923  1.00  0.00    -0.197 OA 
HETATM   21  H   UNL     1      -9.995   6.807  72.824  1.00  0.00     0.000 HD 
HETATM   22  O   UNL     1      -8.603   8.727  72.626  1.00  0.00    -0.411 OA 
HETATM   23  C   UNL     1      -8.638   9.612  70.428  1.00  0.00    -0.200 A  
HETATM   24  H   UNL     1      -8.016   9.425  72.891  1.00  0.00     0.000 HD 
HETATM   25  C   UNL     1      -9.063   9.549  69.084  1.00  0.00    -0.152 A  
ENDBRANCH   6   9
TORSDOF 1
ENDMDL
MODEL       74
REMARK 921   NORMALIZED FREE ENERGY PREDICTED BY IDOCK:   -5.16 KCAL/MOL
REMARK 922        TOTAL FREE ENERGY PREDICTED BY IDOCK:   -5.78 KCAL/MOL
REMARK 923 INTER-LIGAND FREE ENERGY PREDICTED BY IDOCK:   -5.27 KCAL/MOL
REMARK 924 INTRA-LIGAND FREE ENERGY PREDICTED BY IDOCK:   -0.51 KCAL/MOL
REMARK 927      BINDING AFFINITY PREDICTED BY RF-SCORE:    0.00 PKD
ROOT
HETATM    1  O   UNL     1     -10.645  19.450  65.341  1.00  0.00    -0.475 OA 
HETATM    2  C   UNL     1     -10.375  18.376  66.135  1.00  0.00    -0.407 A  
HETATM    3  H   UNL     1     -10.487  20.339  65.636  1.00  0.00     0.000 HD 
HETATM    4  C   UNL     1     -10.606  17.077  65.705  1.00  0.00    -0.206 A  
HETATM    5  C   UNL     1     -10.371  16.008  66.577  1.00  0.00    -0.303 A  
HETATM    6  C   UNL     1      -9.887  16.217  67.882  1.00  0.00    -0.237 A  
HETATM    7  C   UNL     1      -9.639  17.545  68.274  1.00  0.00    -0.299 A  
HETATM    8  C   UNL     1      -9.879  18.616  67.408  1.00  0.00    -0.347 A  
ENDROOT
BRANCH   6   9
HETATM    9  C   UNL     1      -9.769  15.069  68.898  1.00  0.00    -0.224 C  
HETATM   10  C   UNL     1      -8.587  15.129  69.912  1.00  0.00     0.210 C  
HETATM   11  N   UNL     1      -7.230  15.242  69.365  1.00  0.00    -0.186 NA 
HETATM   12  C   UNL     1      -6.798  14.045  68.642  1.00  0.00    -0.103 C  
HETATM   13  H   UNL     1      -6.563  15.483  70.097  1.00  0.00     0.000 HD 
HETATM   14  C   UNL     1      -7.558  13.789  67.334  1.00  0.00    -0.153 C  
HETATM   15  C   UNL     1      -8.860  13.045  67.555  1.00  0.00    -0.195 A  
HETATM   16  C   UNL     1      -9.080  11.750  67.035  1.00  0.00    -0.187 A  
HETATM   17  C   UNL     1     -10.269  11.066  67.314  1.00  0.00    -0.199 A  
HETATM   18 CL   UNL     1      -7.913  10.936  66.044  1.00  0.00    -0.155 Cl 
HETATM   19  C   UNL     1     -11.249  11.656  68.096  1.00  0.00    -0.263 A  
HETATM   20  O   UNL     1     -10.527   9.802  66.844  1.00  0.00    -0.238 OA 
HETATM   21  H   UNL     1     -11.334   9.338  67.032  1.00  0.00     0.000 HD 
HETATM   22  O   UNL     1     -12.394  10.977  68.393  1.00  0.00    -0.762 OA 
HETATM   23  C   UNL     1     -11.078  12.937  68.590  1.00  0.00    -0.307 A  
HETATM   24  H   UNL     1     -13.066  11.382  68.929  1.00  0.00     0.000 HD 
HETATM   25  C   UNL     1      -9.891  13.653  68.323  1.00  0.00    -0.232 A  
ENDBRANCH   6   9
TORSDOF 1
ENDMDL
MODEL       75
REMARK 921   NORMALIZED FREE ENERGY PREDICTED BY IDOCK:   -5.13 KCAL/MOL
REMARK 922        TOTAL FREE ENERGY PREDICTED BY IDOCK:   -5.76 KCAL/MOL
REMARK 923 INTER-LIGAND FREE ENERGY PREDICTED BY IDOCK:   -5.92 KCAL/MOL
REMARK 924 INTRA-LIGAND FREE ENERGY PREDICTED BY IDOCK:    0.16 KCAL/MOL
REMARK 927      BINDING AFFINITY PREDICTED BY RF-SCORE:    0.00 PKD
ROOT
HETATM    1  O   UNL     1     -13.378  13.297  72.858  1.00  0.00    -0.518 OA 
HETATM    2  C   UNL     1     -12.906  13.453  71.588  1.00  0.00    -0.321 A  
HETATM    3  H   UNL     1     -13.788  14.014  73.328  1.00  0.00     0.000 HD 
HETATM    4  C   UNL     1     -12.307  12.407  70.901  1.00  0.00    -0.358 A  
HETATM    5  C   UNL     1     -11.783  12.630  69.623  1.00  0.00    -0.373 A  
HETATM    6  C   UNL     1     -11.866  13.893  69.005  1.00  0.00    -0.397 A  
HETATM    7  C   UNL     1     -12.505  14.922  69.720  1.00  0.00    -0.222 A  
HETATM    8  C   UNL     1     -13.023  14.704  71.001  1.00  0.00    -0.419 A  
ENDROOT
BRANCH   6   9
HETATM    9  C   UNL     1     -11.164  14.190  67.670  1.00  0.00    -0.315 C  
HETATM   10  C   UNL     1     -11.885  13.736  66.366  1.00  0.00    -0.404 C  
HETATM   11  N   UNL     1     -12.250  12.318  66.251  1.00  0.00    -0.557 NA 
HETATM   12  C   UNL     1     -11.092  11.431  66.145  1.00  0.00    -0.198 C  
HETATM   13  H   UNL     1     -12.892  12.171  65.472  1.00  0.00     0.000 HD 
HETATM   14  C   UNL     1     -10.239  11.353  67.418  1.00  0.00    -0.221 C  
HETATM   15  C   UNL     1      -9.224  12.476  67.508  1.00  0.00    -0.188 A  
HETATM   16  C   UNL     1      -7.833  12.232  67.486  1.00  0.00    -0.166 A  
HETATM   17  C   UNL     1      -6.926  13.298  67.506  1.00  0.00    -0.144 A  
HETATM   18 CL   UNL     1      -7.171  10.630  67.428  1.00  0.00    -0.090 Cl 
HETATM   19  C   UNL     1      -7.383  14.605  67.555  1.00  0.00    -0.197 A  
HETATM   20  O   UNL     1      -5.565  13.116  67.473  1.00  0.00    -0.263 OA 
HETATM   21  H   UNL     1      -4.949  13.839  67.487  1.00  0.00     0.000 HD 
HETATM   22  O   UNL     1      -6.499  15.644  67.543  1.00  0.00    -0.158 OA 
HETATM   23  C   UNL     1      -8.739  14.874  67.613  1.00  0.00    -0.181 A  
HETATM   24  H   UNL     1      -6.813  16.541  67.578  1.00  0.00     0.000 HD 
HETATM   25  C   UNL     1      -9.678  13.821  67.599  1.00  0.00    -0.227 A  
ENDBRANCH   6   9
TORSDOF 1
ENDMDL
MODEL       76
REMARK 921   NORMALIZED FREE ENERGY PREDICTED BY IDOCK:   -5.11 KCAL/MOL
REMARK 922        TOTAL FREE ENERGY PREDICTED BY IDOCK:   -5.73 KCAL/MOL
REMARK 923 INTER-LIGAND FREE ENERGY PREDICTED BY IDOCK:   -5.55 KCAL/MOL
REMARK 924 INTRA-LIGAND FREE ENERGY PREDICTED BY IDOCK:   -0.18 KCAL/MOL
REMARK 927      BINDING AFFINITY PREDICTED BY RF-SCORE:    0.00 PKD
ROOT
HETATM    1  O   UNL     1      -8.769   8.247  63.040  1.00  0.00    -0.421 OA 
HETATM    2  C   UNL     1      -8.997   9.158  64.028  1.00  0.00     0.017 A  
HETATM    3  H   UNL     1      -8.575   7.338  63.237  1.00  0.00     0.000 HD 
HETATM    4  C   UNL     1      -9.279  10.486  63.741  1.00  0.00    -0.292 A  
HETATM    5  C   UNL     1      -9.446  11.398  64.789  1.00  0.00    -0.176 A  
HETATM    6  C   UNL     1      -9.352  10.997  66.135  1.00  0.00    -0.214 A  
HETATM    7  C   UNL     1      -9.092   9.638  66.387  1.00  0.00    -0.191 A  
HETATM    8  C   UNL     1      -8.918   8.724  65.343  1.00  0.00    -0.211 A  
ENDROOT
BRANCH   6   9
HETATM    9  C   UNL     1      -9.383  12.013  67.289  1.00  0.00    -0.180 C  
HETATM   10  C   UNL     1     -10.554  11.900  68.310  1.00  0.00    -0.213 C  
HETATM   11  N   UNL     1     -11.923  11.944  67.780  1.00  0.00    -0.573 NA 
HETATM   12  C   UNL     1     -12.283  13.248  67.222  1.00  0.00    -0.205 C  
HETATM   13  H   UNL     1     -12.596  11.655  68.489  1.00  0.00     0.000 HD 
HETATM   14  C   UNL     1     -11.523  13.618  65.942  1.00  0.00    -0.329 C  
HETATM   15  C   UNL     1     -10.172  14.244  66.229  1.00  0.00    -0.307 A  
HETATM   16  C   UNL     1      -9.874  15.578  65.871  1.00  0.00    -0.353 A  
HETATM   17  C   UNL     1      -8.639  16.144  66.210  1.00  0.00    -0.338 A  
HETATM   18 CL   UNL     1     -10.996  16.583  65.013  1.00  0.00    -0.316 Cl 
HETATM   19  C   UNL     1      -7.692  15.398  66.893  1.00  0.00    -0.124 A  
HETATM   20  O   UNL     1      -8.305  17.438  65.897  1.00  0.00    -0.535 OA 
HETATM   21  H   UNL     1      -7.467  17.823  66.127  1.00  0.00     0.000 HD 
HETATM   22  O   UNL     1      -6.501  15.960  67.249  1.00  0.00    -0.175 OA 
HETATM   23  C   UNL     1      -7.941  14.079  67.225  1.00  0.00    -0.157 A  
HETATM   24  H   UNL     1      -5.851  15.449  67.718  1.00  0.00     0.000 HD 
HETATM   25  C   UNL     1      -9.175  13.480  66.894  1.00  0.00    -0.254 A  
ENDBRANCH   6   9
TORSDOF 1
ENDMDL
MODEL       77
REMARK 921   NORMALIZED FREE ENERGY PREDICTED BY IDOCK:   -5.09 KCAL/MOL
REMARK 922        TOTAL FREE ENERGY PREDICTED BY IDOCK:   -5.71 KCAL/MOL
REMARK 923 INTER-LIGAND FREE ENERGY PREDICTED BY IDOCK:   -5.35 KCAL/MOL
REMARK 924 INTRA-LIGAND FREE ENERGY PREDICTED BY IDOCK:   -0.35 KCAL/MOL
REMARK 927      BINDING AFFINITY PREDICTED BY RF-SCORE:    0.00 PKD
ROOT
HETATM    1  O   UNL     1      -5.612  13.237  67.213  1.00  0.00    -0.356 OA 
HETATM    2  C   UNL     1      -6.741  12.492  67.378  1.00  0.00    -0.147 A  
HETATM    3  H   UNL     1      -5.522  14.098  67.603  1.00  0.00     0.000 HD 
HETATM    4  C   UNL     1      -6.872  11.233  66.808  1.00  0.00    -0.140 A  
HETATM    5  C   UNL     1      -8.073  10.530  66.955  1.00  0.00    -0.120 A  
HETATM    6  C   UNL     1      -9.152  11.063  67.685  1.00  0.00    -0.145 A  
HETATM    7  C   UNL     1      -8.973  12.329  68.272  1.00  0.00    -0.182 A  
HETATM    8  C   UNL     1      -7.776  13.038  68.122  1.00  0.00    -0.143 A  
ENDROOT
BRANCH   6   9
HETATM    9  C   UNL     1     -10.524  10.371  67.727  1.00  0.00    -0.268 C  
HETATM   10  C   UNL     1     -11.656  11.074  68.535  1.00  0.00    -0.310 C  
HETATM   11  N   UNL     1     -11.389  11.387  69.944  1.00  0.00    -0.443 NA 
HETATM   12  C   UNL     1     -11.267  10.197  70.786  1.00  0.00    -0.336 C  
HETATM   13  H   UNL     1     -12.095  12.022  70.315  1.00  0.00     0.000 HD 
HETATM   14  C   UNL     1     -10.026   9.343  70.495  1.00  0.00    -0.328 C  
HETATM   15  C   UNL     1     -10.244   8.370  69.352  1.00  0.00    -0.208 A  
HETATM   16  C   UNL     1     -10.213   6.972  69.544  1.00  0.00    -0.199 A  
HETATM   17  C   UNL     1     -10.484   6.103  68.479  1.00  0.00    -0.237 A  
HETATM   18 CL   UNL     1      -9.851   6.251  71.079  1.00  0.00    -0.199 Cl 
HETATM   19  C   UNL     1     -10.777   6.609  67.223  1.00  0.00    -0.357 A  
HETATM   20  O   UNL     1     -10.479   4.737  68.615  1.00  0.00     0.013 OA 
HETATM   21  H   UNL     1     -10.662   4.148  67.892  1.00  0.00     0.000 HD 
HETATM   22  O   UNL     1     -11.071   5.763  66.193  1.00  0.00    -0.721 OA 
HETATM   23  C   UNL     1     -10.781   7.973  66.996  1.00  0.00    -0.263 A  
HETATM   24  H   UNL     1     -11.272   6.109  65.331  1.00  0.00     0.000 HD 
HETATM   25  C   UNL     1     -10.508   8.873  68.049  1.00  0.00    -0.263 A  
ENDBRANCH   6   9
TORSDOF 1
ENDMDL
MODEL       78
REMARK 921   NORMALIZED FREE ENERGY PREDICTED BY IDOCK:   -5.05 KCAL/MOL
REMARK 922        TOTAL FREE ENERGY PREDICTED BY IDOCK:   -5.67 KCAL/MOL
REMARK 923 INTER-LIGAND FREE ENERGY PREDICTED BY IDOCK:   -5.30 KCAL/MOL
REMARK 924 INTRA-LIGAND FREE ENERGY PREDICTED BY IDOCK:   -0.37 KCAL/MOL
REMARK 927      BINDING AFFINITY PREDICTED BY RF-SCORE:    0.00 PKD
ROOT
HETATM    1  O   UNL     1      -5.156  20.346  63.557  1.00  0.00    -0.163 OA 
HETATM    2  C   UNL     1      -5.842  20.184  64.724  1.00  0.00    -0.222 A  
HETATM    3  H   UNL     1      -5.090  19.647  62.918  1.00  0.00     0.000 HD 
HETATM    4  C   UNL     1      -5.939  21.205  65.659  1.00  0.00    -0.253 A  
HETATM    5  C   UNL     1      -6.602  20.974  66.869  1.00  0.00    -0.397 A  
HETATM    6  C   UNL     1      -7.193  19.729  67.156  1.00  0.00    -0.251 A  
HETATM    7  C   UNL     1      -7.099  18.726  66.173  1.00  0.00    -0.290 A  
HETATM    8  C   UNL     1      -6.431  18.952  64.966  1.00  0.00    -0.205 A  
ENDROOT
BRANCH   6   9
HETATM    9  C   UNL     1      -7.791  19.413  68.537  1.00  0.00    -0.389 C  
HETATM   10  C   UNL     1      -7.012  19.922  69.787  1.00  0.00    -0.141 C  
HETATM   11  N   UNL     1      -5.608  19.516  69.923  1.00  0.00    -0.224 NA 
HETATM   12  C   UNL     1      -5.443  18.083  70.168  1.00  0.00    -0.252 C  
HETATM   13  H   UNL     1      -5.140  20.063  70.645  1.00  0.00     0.000 HD 
HETATM   14  C   UNL     1      -5.832  17.191  68.981  1.00  0.00    -0.165 C  
HETATM   15  C   UNL     1      -7.319  16.895  68.940  1.00  0.00    -0.236 A  
HETATM   16  C   UNL     1      -7.826  15.587  69.098  1.00  0.00    -0.215 A  
HETATM   17  C   UNL     1      -9.208  15.359  69.120  1.00  0.00    -0.242 A  
HETATM   18 CL   UNL     1      -6.794  14.205  69.277  1.00  0.00    -0.120 Cl 
HETATM   19  C   UNL     1     -10.092  16.416  68.979  1.00  0.00    -0.262 A  
HETATM   20  O   UNL     1      -9.752  14.110  69.283  1.00  0.00    -0.418 OA 
HETATM   21  H   UNL     1     -10.690  13.955  69.297  1.00  0.00     0.000 HD 
HETATM   22  O   UNL     1     -11.439  16.198  69.031  1.00  0.00    -0.347 OA 
HETATM   23  C   UNL     1      -9.626  17.704  68.788  1.00  0.00    -0.280 A  
HETATM   24  H   UNL     1     -12.046  16.923  68.934  1.00  0.00     0.000 HD 
HETATM   25  C   UNL     1      -8.239  17.964  68.757  1.00  0.00    -0.231 A  
ENDBRANCH   6   9
TORSDOF 1
ENDMDL
MODEL       79
REMARK 921   NORMALIZED FREE ENERGY PREDICTED BY IDOCK:   -5.03 KCAL/MOL
REMARK 922        TOTAL FREE ENERGY PREDICTED BY IDOCK:   -5.65 KCAL/MOL
REMARK 923 INTER-LIGAND FREE ENERGY PREDICTED BY IDOCK:   -5.13 KCAL/MOL
REMARK 924 INTRA-LIGAND FREE ENERGY PREDICTED BY IDOCK:   -0.52 KCAL/MOL
REMARK 927      BINDING AFFINITY PREDICTED BY RF-SCORE:    0.00 PKD
ROOT
HETATM    1  O   UNL     1     -10.710   7.192  73.598  1.00  0.00    -0.450 OA 
HETATM    2  C   UNL     1     -10.635   7.499  72.272  1.00  0.00    -0.236 A  
HETATM    3  H   UNL     1     -10.976   6.329  73.894  1.00  0.00     0.000 HD 
HETATM    4  C   UNL     1     -10.247   8.759  71.838  1.00  0.00    -0.415 A  
HETATM    5  C   UNL     1     -10.243   9.047  70.469  1.00  0.00    -0.268 A  
HETATM    6  C   UNL     1     -10.608   8.080  69.514  1.00  0.00    -0.216 A  
HETATM    7  C   UNL     1     -10.969   6.806  69.989  1.00  0.00    -0.344 A  
HETATM    8  C   UNL     1     -10.981   6.516  71.357  1.00  0.00    -0.303 A  
ENDROOT
BRANCH   6   9
HETATM    9  C   UNL     1     -10.754   8.427  68.023  1.00  0.00    -0.118 C  
HETATM   10  C   UNL     1     -10.464   7.294  66.993  1.00  0.00    -0.328 C  
HETATM   11  N   UNL     1      -9.156   6.632  67.063  1.00  0.00    -0.126 NA 
HETATM   12  C   UNL     1      -8.045   7.510  66.695  1.00  0.00    -0.123 C  
HETATM   13  H   UNL     1      -9.149   5.783  66.499  1.00  0.00     0.000 HD 
HETATM   14  C   UNL     1      -7.786   8.650  67.689  1.00  0.00    -0.102 C  
HETATM   15  C   UNL     1      -8.670   9.855  67.435  1.00  0.00    -0.129 A  
HETATM   16  C   UNL     1      -8.139  11.105  67.048  1.00  0.00    -0.148 A  
HETATM   17  C   UNL     1      -8.990  12.179  66.759  1.00  0.00    -0.203 A  
HETATM   18 CL   UNL     1      -6.434  11.386  66.903  1.00  0.00    -0.125 Cl 
HETATM   19  C   UNL     1     -10.364  12.028  66.857  1.00  0.00    -0.213 A  
HETATM   20  O   UNL     1      -8.526  13.410  66.367  1.00  0.00    -0.390 OA 
HETATM   21  H   UNL     1      -9.103  14.139  66.170  1.00  0.00     0.000 HD 
HETATM   22  O   UNL     1     -11.194  13.065  66.545  1.00  0.00    -0.285 OA 
HETATM   23  C   UNL     1     -10.913  10.826  67.268  1.00  0.00    -0.359 A  
HETATM   24  H   UNL     1     -12.136  12.962  66.613  1.00  0.00     0.000 HD 
HETATM   25  C   UNL     1     -10.080   9.727  67.570  1.00  0.00    -0.246 A  
ENDBRANCH   6   9
TORSDOF 1
ENDMDL
MODEL       80
REMARK 921   NORMALIZED FREE ENERGY PREDICTED BY IDOCK:   -5.00 KCAL/MOL
REMARK 922        TOTAL FREE ENERGY PREDICTED BY IDOCK:   -5.62 KCAL/MOL
REMARK 923 INTER-LIGAND FREE ENERGY PREDICTED BY IDOCK:   -5.15 KCAL/MOL
REMARK 924 INTRA-LIGAND FREE ENERGY PREDICTED BY IDOCK:   -0.47 KCAL/MOL
REMARK 927      BINDING AFFINITY PREDICTED BY RF-SCORE:    0.00 PKD
ROOT
HETATM    1  O   UNL     1     -14.210   8.805  72.163  1.00  0.00    -0.438 OA 
HETATM    2  C   UNL     1     -12.989   8.439  71.681  1.00  0.00    -0.334 A  
HETATM    3  H   UNL     1     -14.931   8.188  72.212  1.00  0.00     0.000 HD 
HETATM    4  C   UNL     1     -11.936   9.340  71.610  1.00  0.00    -0.448 A  
HETATM    5  C   UNL     1     -10.718   8.936  71.052  1.00  0.00    -0.315 A  
HETATM    6  C   UNL     1     -10.527   7.625  70.575  1.00  0.00    -0.221 A  
HETATM    7  C   UNL     1     -11.608   6.732  70.689  1.00  0.00    -0.422 A  
HETATM    8  C   UNL     1     -12.828   7.134  71.240  1.00  0.00    -0.399 A  
ENDROOT
BRANCH   6   9
HETATM    9  C   UNL     1      -9.250   7.213  69.825  1.00  0.00    -0.143 C  
HETATM   10  C   UNL     1      -8.469   8.331  69.072  1.00  0.00    -0.131 C  
HETATM   11  N   UNL     1      -9.207   9.123  68.079  1.00  0.00    -0.134 NA 
HETATM   12  C   UNL     1      -9.606   8.347  66.904  1.00  0.00    -0.202 C  
HETATM   13  H   UNL     1      -8.674   9.948  67.805  1.00  0.00     0.000 HD 
HETATM   14  C   UNL     1     -10.667   7.275  67.187  1.00  0.00    -0.413 C  
HETATM   15  C   UNL     1     -10.063   5.980  67.693  1.00  0.00    -0.190 A  
HETATM   16  C   UNL     1     -10.152   4.776  66.960  1.00  0.00    -0.189 A  
HETATM   17  C   UNL     1      -9.527   3.613  67.427  1.00  0.00    -0.195 A  
HETATM   18 CL   UNL     1     -11.018   4.661  65.462  1.00  0.00    -0.183 Cl 
HETATM   19  C   UNL     1      -8.821   3.629  68.619  1.00  0.00    -0.113 A  
HETATM   20  O   UNL     1      -9.572   2.421  66.747  1.00  0.00    -0.386 OA 
HETATM   21  H   UNL     1      -9.149   1.632  67.063  1.00  0.00     0.000 HD 
HETATM   22  O   UNL     1      -8.187   2.504  69.058  1.00  0.00    -0.051 OA 
HETATM   23  C   UNL     1      -8.746   4.784  69.377  1.00  0.00    -0.107 A  
HETATM   24  H   UNL     1      -7.702   2.515  69.876  1.00  0.00     0.000 HD 
HETATM   25  C   UNL     1      -9.369   5.971  68.934  1.00  0.00    -0.131 A  
ENDBRANCH   6   9
TORSDOF 1
ENDMDL
MODEL       81
REMARK 921   NORMALIZED FREE ENERGY PREDICTED BY IDOCK:   -4.99 KCAL/MOL
REMARK 922        TOTAL FREE ENERGY PREDICTED BY IDOCK:   -5.61 KCAL/MOL
REMARK 923 INTER-LIGAND FREE ENERGY PREDICTED BY IDOCK:   -5.15 KCAL/MOL
REMARK 924 INTRA-LIGAND FREE ENERGY PREDICTED BY IDOCK:   -0.46 KCAL/MOL
REMARK 927      BINDING AFFINITY PREDICTED BY RF-SCORE:    0.00 PKD
ROOT
HETATM    1  O   UNL     1     -10.137   7.168  72.139  1.00  0.00    -0.179 OA 
HETATM    2  C   UNL     1     -10.336   7.883  70.996  1.00  0.00    -0.201 A  
HETATM    3  H   UNL     1     -10.162   7.580  72.995  1.00  0.00     0.000 HD 
HETATM    4  C   UNL     1     -10.297   7.282  69.746  1.00  0.00    -0.227 A  
HETATM    5  C   UNL     1     -10.447   8.066  68.597  1.00  0.00    -0.196 A  
HETATM    6  C   UNL     1     -10.654   9.457  68.679  1.00  0.00    -0.230 A  
HETATM    7  C   UNL     1     -10.714  10.027  69.964  1.00  0.00    -0.348 A  
HETATM    8  C   UNL     1     -10.559   9.247  71.114  1.00  0.00    -0.402 A  
ENDROOT
BRANCH   6   9
HETATM    9  C   UNL     1     -10.668  10.350  67.428  1.00  0.00    -0.338 C  
HETATM   10  C   UNL     1      -9.824   9.882  66.205  1.00  0.00    -0.260 C  
HETATM   11  N   UNL     1      -8.395   9.627  66.425  1.00  0.00    -0.119 NA 
HETATM   12  C   UNL     1      -7.633  10.839  66.729  1.00  0.00    -0.129 C  
HETATM   13  H   UNL     1      -7.988   9.132  65.632  1.00  0.00     0.000 HD 
HETATM   14  C   UNL     1      -7.971  11.473  68.085  1.00  0.00    -0.136 C  
HETATM   15  C   UNL     1      -9.177  12.389  68.013  1.00  0.00    -0.203 A  
HETATM   16  C   UNL     1      -9.079  13.777  68.256  1.00  0.00    -0.195 A  
HETATM   17  C   UNL     1     -10.201  14.603  68.117  1.00  0.00    -0.231 A  
HETATM   18 CL   UNL     1      -7.592  14.535  68.728  1.00  0.00    -0.126 Cl 
HETATM   19  C   UNL     1     -11.423  14.065  67.747  1.00  0.00    -0.322 A  
HETATM   20  O   UNL     1     -10.156  15.959  68.330  1.00  0.00    -0.219 OA 
HETATM   21  H   UNL     1     -10.918  16.519  68.236  1.00  0.00     0.000 HD 
HETATM   22  O   UNL     1     -12.509  14.875  67.582  1.00  0.00    -0.436 OA 
HETATM   23  C   UNL     1     -11.559  12.705  67.536  1.00  0.00    -0.418 A  
HETATM   24  H   UNL     1     -13.347  14.507  67.328  1.00  0.00     0.000 HD 
HETATM   25  C   UNL     1     -10.447  11.847  67.672  1.00  0.00    -0.232 A  
ENDBRANCH   6   9
TORSDOF 1
ENDMDL
MODEL       82
REMARK 921   NORMALIZED FREE ENERGY PREDICTED BY IDOCK:   -4.96 KCAL/MOL
REMARK 922        TOTAL FREE ENERGY PREDICTED BY IDOCK:   -5.57 KCAL/MOL
REMARK 923 INTER-LIGAND FREE ENERGY PREDICTED BY IDOCK:   -5.13 KCAL/MOL
REMARK 924 INTRA-LIGAND FREE ENERGY PREDICTED BY IDOCK:   -0.44 KCAL/MOL
REMARK 927      BINDING AFFINITY PREDICTED BY RF-SCORE:    0.00 PKD
ROOT
HETATM    1  O   UNL     1     -12.149  12.707  66.643  1.00  0.00    -0.519 OA 
HETATM    2  C   UNL     1     -11.414  11.920  67.479  1.00  0.00    -0.326 A  
HETATM    3  H   UNL     1     -11.739  13.230  65.964  1.00  0.00     0.000 HD 
HETATM    4  C   UNL     1     -12.012  11.155  68.470  1.00  0.00    -0.250 A  
HETATM    5  C   UNL     1     -11.213  10.410  69.344  1.00  0.00    -0.314 A  
HETATM    6  C   UNL     1      -9.809  10.403  69.231  1.00  0.00    -0.243 A  
HETATM    7  C   UNL     1      -9.240  11.168  68.197  1.00  0.00    -0.166 A  
HETATM    8  C   UNL     1     -10.036  11.919  67.326  1.00  0.00    -0.200 A  
ENDROOT
BRANCH   6   9
HETATM    9  C   UNL     1      -8.915   9.712  70.274  1.00  0.00    -0.263 C  
HETATM   10  C   UNL     1      -7.399   9.574  69.938  1.00  0.00    -0.103 C  
HETATM   11  N   UNL     1      -7.041   8.903  68.683  1.00  0.00    -0.070 NA 
HETATM   12  C   UNL     1      -7.366   7.476  68.679  1.00  0.00    -0.095 C  
HETATM   13  H   UNL     1      -6.057   9.051  68.460  1.00  0.00     0.000 HD 
HETATM   14  C   UNL     1      -8.870   7.171  68.689  1.00  0.00    -0.126 C  
HETATM   15  C   UNL     1      -9.456   7.183  70.087  1.00  0.00    -0.161 A  
HETATM   16  C   UNL     1     -10.000   6.022  70.680  1.00  0.00    -0.185 A  
HETATM   17  C   UNL     1     -10.474   6.054  71.998  1.00  0.00    -0.209 A  
HETATM   18 CL   UNL     1     -10.110   4.511  69.837  1.00  0.00    -0.277 Cl 
HETATM   19  C   UNL     1     -10.421   7.228  72.731  1.00  0.00    -0.260 A  
HETATM   20  O   UNL     1     -11.000   4.952  72.624  1.00  0.00    -0.223 OA 
HETATM   21  H   UNL     1     -11.322   4.973  73.518  1.00  0.00     0.000 HD 
HETATM   22  O   UNL     1     -10.855   7.251  74.025  1.00  0.00    -0.556 OA 
HETATM   23  C   UNL     1      -9.926   8.390  72.166  1.00  0.00    -0.376 A  
HETATM   24  H   UNL     1     -10.819   8.056  74.528  1.00  0.00     0.000 HD 
HETATM   25  C   UNL     1      -9.445   8.389  70.839  1.00  0.00    -0.205 A  
ENDBRANCH   6   9
TORSDOF 1
ENDMDL
MODEL       83
REMARK 921   NORMALIZED FREE ENERGY PREDICTED BY IDOCK:   -4.94 KCAL/MOL
REMARK 922        TOTAL FREE ENERGY PREDICTED BY IDOCK:   -5.55 KCAL/MOL
REMARK 923 INTER-LIGAND FREE ENERGY PREDICTED BY IDOCK:   -5.30 KCAL/MOL
REMARK 924 INTRA-LIGAND FREE ENERGY PREDICTED BY IDOCK:   -0.26 KCAL/MOL
REMARK 927      BINDING AFFINITY PREDICTED BY RF-SCORE:    0.00 PKD
ROOT
HETATM    1  O   UNL     1     -12.978  14.482  64.659  1.00  0.00    -0.550 OA 
HETATM    2  C   UNL     1     -12.149  13.676  65.380  1.00  0.00    -0.403 A  
HETATM    3  H   UNL     1     -13.249  15.334  64.981  1.00  0.00     0.000 HD 
HETATM    4  C   UNL     1     -11.753  12.432  64.909  1.00  0.00    -0.418 A  
HETATM    5  C   UNL     1     -10.949  11.614  65.710  1.00  0.00    -0.329 A  
HETATM    6  C   UNL     1     -10.515  12.031  66.983  1.00  0.00    -0.248 A  
HETATM    7  C   UNL     1     -10.913  13.309  67.416  1.00  0.00    -0.287 A  
HETATM    8  C   UNL     1     -11.722  14.127  66.620  1.00  0.00    -0.422 A  
ENDROOT
BRANCH   6   9
HETATM    9  C   UNL     1      -9.761  11.086  67.933  1.00  0.00    -0.183 C  
HETATM   10  C   UNL     1      -8.359  11.545  68.436  1.00  0.00    -0.154 C  
HETATM   11  N   UNL     1      -7.353  11.883  67.422  1.00  0.00    -0.135 NA 
HETATM   12  C   UNL     1      -6.906  10.727  66.644  1.00  0.00    -0.125 C  
HETATM   13  H   UNL     1      -6.560  12.365  67.845  1.00  0.00     0.000 HD 
HETATM   14  C   UNL     1      -7.979  10.134  65.722  1.00  0.00    -0.140 C  
HETATM   15  C   UNL     1      -8.886   9.154  66.441  1.00  0.00    -0.165 A  
HETATM   16  C   UNL     1      -8.930   7.785  66.096  1.00  0.00    -0.163 A  
HETATM   17  C   UNL     1      -9.731   6.896  66.824  1.00  0.00    -0.177 A  
HETATM   18 CL   UNL     1      -8.012   7.126  64.781  1.00  0.00    -0.126 Cl 
HETATM   19  C   UNL     1     -10.495   7.353  67.886  1.00  0.00    -0.205 A  
HETATM   20  O   UNL     1      -9.801   5.555  66.539  1.00  0.00    -0.151 OA 
HETATM   21  H   UNL     1     -10.344   4.952  67.032  1.00  0.00     0.000 HD 
HETATM   22  O   UNL     1     -11.251   6.481  68.614  1.00  0.00    -0.489 OA 
HETATM   23  C   UNL     1     -10.499   8.694  68.225  1.00  0.00    -0.234 A  
HETATM   24  H   UNL     1     -11.776   6.794  69.343  1.00  0.00     0.000 HD 
HETATM   25  C   UNL     1      -9.706   9.614  67.508  1.00  0.00    -0.195 A  
ENDBRANCH   6   9
TORSDOF 1
ENDMDL
MODEL       84
REMARK 921   NORMALIZED FREE ENERGY PREDICTED BY IDOCK:   -4.94 KCAL/MOL
REMARK 922        TOTAL FREE ENERGY PREDICTED BY IDOCK:   -5.55 KCAL/MOL
REMARK 923 INTER-LIGAND FREE ENERGY PREDICTED BY IDOCK:   -5.09 KCAL/MOL
REMARK 924 INTRA-LIGAND FREE ENERGY PREDICTED BY IDOCK:   -0.46 KCAL/MOL
REMARK 927      BINDING AFFINITY PREDICTED BY RF-SCORE:    0.00 PKD
ROOT
HETATM    1  O   UNL     1      -5.820  16.446  70.355  1.00  0.00    -0.160 OA 
HETATM    2  C   UNL     1      -6.788  15.991  69.510  1.00  0.00    -0.193 A  
HETATM    3  H   UNL     1      -5.261  15.850  70.839  1.00  0.00     0.000 HD 
HETATM    4  C   UNL     1      -7.605  16.862  68.803  1.00  0.00    -0.243 A  
HETATM    5  C   UNL     1      -8.625  16.349  67.994  1.00  0.00    -0.185 A  
HETATM    6  C   UNL     1      -8.833  14.963  67.864  1.00  0.00    -0.165 A  
HETATM    7  C   UNL     1      -7.968  14.110  68.573  1.00  0.00    -0.145 A  
HETATM    8  C   UNL     1      -6.952  14.619  69.389  1.00  0.00    -0.163 A  
ENDROOT
BRANCH   6   9
HETATM    9  C   UNL     1     -10.039  14.391  67.101  1.00  0.00    -0.253 C  
HETATM   10  C   UNL     1     -11.334  15.257  67.059  1.00  0.00    -0.230 C  
HETATM   11  N   UNL     1     -11.910  15.679  68.341  1.00  0.00    -0.467 NA 
HETATM   12  C   UNL     1     -12.452  14.568  69.124  1.00  0.00     0.010 C  
HETATM   13  H   UNL     1     -12.616  16.402  68.201  1.00  0.00     0.000 HD 
HETATM   14  C   UNL     1     -11.391  13.592  69.652  1.00  0.00    -0.226 C  
HETATM   15  C   UNL     1     -11.013  12.537  68.631  1.00  0.00    -0.291 A  
HETATM   16  C   UNL     1     -11.270  11.165  68.843  1.00  0.00    -0.256 A  
HETATM   17  C   UNL     1     -10.966  10.224  67.851  1.00  0.00    -0.292 A  
HETATM   18 CL   UNL     1     -11.969  10.566  70.312  1.00  0.00    -0.383 Cl 
HETATM   19  C   UNL     1     -10.402  10.630  66.652  1.00  0.00    -0.241 A  
HETATM   20  O   UNL     1     -11.208   8.881  68.001  1.00  0.00    -0.441 OA 
HETATM   21  H   UNL     1     -11.002   8.243  67.328  1.00  0.00     0.000 HD 
HETATM   22  O   UNL     1     -10.135   9.717  65.674  1.00  0.00    -0.296 OA 
HETATM   23  C   UNL     1     -10.106  11.963  66.429  1.00  0.00    -0.241 A  
HETATM   24  H   UNL     1      -9.748   9.996  64.851  1.00  0.00     0.000 HD 
HETATM   25  C   UNL     1     -10.397  12.933  67.412  1.00  0.00    -0.233 A  
ENDBRANCH   6   9
TORSDOF 1
ENDMDL
MODEL       85
REMARK 921   NORMALIZED FREE ENERGY PREDICTED BY IDOCK:   -4.92 KCAL/MOL
REMARK 922        TOTAL FREE ENERGY PREDICTED BY IDOCK:   -5.53 KCAL/MOL
REMARK 923 INTER-LIGAND FREE ENERGY PREDICTED BY IDOCK:   -5.24 KCAL/MOL
REMARK 924 INTRA-LIGAND FREE ENERGY PREDICTED BY IDOCK:   -0.29 KCAL/MOL
REMARK 927      BINDING AFFINITY PREDICTED BY RF-SCORE:    0.00 PKD
ROOT
HETATM    1  O   UNL     1     -13.485  12.113  64.227  1.00  0.00    -0.708 OA 
HETATM    2  C   UNL     1     -12.362  12.756  64.656  1.00  0.00    -0.459 A  
HETATM    3  H   UNL     1     -14.167  12.569  63.747  1.00  0.00     0.000 HD 
HETATM    4  C   UNL     1     -11.367  12.090  65.358  1.00  0.00    -0.375 A  
HETATM    5  C   UNL     1     -10.260  12.804  65.831  1.00  0.00    -0.300 A  
HETATM    6  C   UNL     1     -10.122  14.185  65.598  1.00  0.00    -0.350 A  
HETATM    7  C   UNL     1     -11.137  14.821  64.860  1.00  0.00    -0.416 A  
HETATM    8  C   UNL     1     -12.248  14.112  64.391  1.00  0.00    -0.466 A  
ENDROOT
BRANCH   6   9
HETATM    9  C   UNL     1      -8.993  15.008  66.239  1.00  0.00    -0.233 C  
HETATM   10  C   UNL     1      -7.829  14.221  66.915  1.00  0.00     0.249 C  
HETATM   11  N   UNL     1      -8.183  13.254  67.961  1.00  0.00    -0.150 NA 
HETATM   12  C   UNL     1      -8.715  13.881  69.171  1.00  0.00     0.361 C  
HETATM   13  H   UNL     1      -7.389  12.653  68.183  1.00  0.00     0.000 HD 
HETATM   14  C   UNL     1     -10.088  14.542  68.988  1.00  0.00    -0.187 C  
HETATM   15  C   UNL     1      -9.985  15.953  68.441  1.00  0.00    -0.222 A  
HETATM   16  C   UNL     1     -10.402  17.076  69.188  1.00  0.00    -0.313 A  
HETATM   17  C   UNL     1     -10.232  18.370  68.678  1.00  0.00    -0.339 A  
HETATM   18 CL   UNL     1     -11.130  16.934  70.755  1.00  0.00     0.204 Cl 
HETATM   19  C   UNL     1      -9.661  18.559  67.430  1.00  0.00    -0.303 A  
HETATM   20  O   UNL     1     -10.608  19.495  69.368  1.00  0.00    -0.391 OA 
HETATM   21  H   UNL     1     -10.493  20.373  69.022  1.00  0.00     0.000 HD 
HETATM   22  O   UNL     1      -9.468  19.821  66.947  1.00  0.00    -0.330 OA 
HETATM   23  C   UNL     1      -9.275  17.476  66.660  1.00  0.00    -0.277 A  
HETATM   24  H   UNL     1      -9.076  19.951  66.090  1.00  0.00     0.000 HD 
HETATM   25  C   UNL     1      -9.437  16.162  67.146  1.00  0.00    -0.231 A  
ENDBRANCH   6   9
TORSDOF 1
ENDMDL
MODEL       86
REMARK 921   NORMALIZED FREE ENERGY PREDICTED BY IDOCK:   -4.91 KCAL/MOL
REMARK 922        TOTAL FREE ENERGY PREDICTED BY IDOCK:   -5.52 KCAL/MOL
REMARK 923 INTER-LIGAND FREE ENERGY PREDICTED BY IDOCK:   -4.99 KCAL/MOL
REMARK 924 INTRA-LIGAND FREE ENERGY PREDICTED BY IDOCK:   -0.52 KCAL/MOL
REMARK 927      BINDING AFFINITY PREDICTED BY RF-SCORE:    0.00 PKD
ROOT
HETATM    1  O   UNL     1     -12.166   8.304  72.950  1.00  0.00    -0.584 OA 
HETATM    2  C   UNL     1     -11.522   8.546  71.773  1.00  0.00    -0.310 A  
HETATM    3  H   UNL     1     -11.949   7.555  73.492  1.00  0.00     0.000 HD 
HETATM    4  C   UNL     1     -11.840   9.640  70.981  1.00  0.00    -0.428 A  
HETATM    5  C   UNL     1     -11.194   9.814  69.752  1.00  0.00    -0.242 A  
HETATM    6  C   UNL     1     -10.210   8.911  69.305  1.00  0.00    -0.214 A  
HETATM    7  C   UNL     1      -9.894   7.829  70.147  1.00  0.00    -0.184 A  
HETATM    8  C   UNL     1     -10.543   7.649  71.373  1.00  0.00    -0.236 A  
ENDROOT
BRANCH   6   9
HETATM    9  C   UNL     1      -9.603   9.005  67.895  1.00  0.00    -0.170 C  
HETATM   10  C   UNL     1      -8.188   8.388  67.683  1.00  0.00    -0.126 C  
HETATM   11  N   UNL     1      -7.105   8.861  68.553  1.00  0.00    -0.072 NA 
HETATM   12  C   UNL     1      -6.740  10.257  68.313  1.00  0.00    -0.057 C  
HETATM   13  H   UNL     1      -6.288   8.255  68.477  1.00  0.00     0.000 HD 
HETATM   14  C   UNL     1      -7.821  11.270  68.713  1.00  0.00    -0.139 C  
HETATM   15  C   UNL     1      -8.857  11.474  67.624  1.00  0.00    -0.152 A  
HETATM   16  C   UNL     1      -9.023  12.717  66.974  1.00  0.00    -0.216 A  
HETATM   17  C   UNL     1      -9.944  12.852  65.928  1.00  0.00    -0.268 A  
HETATM   18 CL   UNL     1      -8.113  14.126  67.413  1.00  0.00    -0.198 Cl 
HETATM   19  C   UNL     1     -10.709  11.769  65.526  1.00  0.00    -0.279 A  
HETATM   20  O   UNL     1     -10.136  14.033  65.255  1.00  0.00    -0.420 OA 
HETATM   21  H   UNL     1     -10.761  14.126  64.545  1.00  0.00     0.000 HD 
HETATM   22  O   UNL     1     -11.584  11.894  64.486  1.00  0.00    -0.322 OA 
HETATM   23  C   UNL     1     -10.594  10.549  66.167  1.00  0.00    -0.182 A  
HETATM   24  H   UNL     1     -12.109  11.151  64.210  1.00  0.00     0.000 HD 
HETATM   25  C   UNL     1      -9.677  10.383  67.226  1.00  0.00    -0.195 A  
ENDBRANCH   6   9
TORSDOF 1
ENDMDL
MODEL       87
REMARK 921   NORMALIZED FREE ENERGY PREDICTED BY IDOCK:   -4.90 KCAL/MOL
REMARK 922        TOTAL FREE ENERGY PREDICTED BY IDOCK:   -5.50 KCAL/MOL
REMARK 923 INTER-LIGAND FREE ENERGY PREDICTED BY IDOCK:   -5.07 KCAL/MOL
REMARK 924 INTRA-LIGAND FREE ENERGY PREDICTED BY IDOCK:   -0.44 KCAL/MOL
REMARK 927      BINDING AFFINITY PREDICTED BY RF-SCORE:    0.00 PKD
ROOT
HETATM    1  O   UNL     1     -11.917   7.056  71.899  1.00  0.00    -0.294 OA 
HETATM    2  C   UNL     1     -11.144   7.708  70.985  1.00  0.00    -0.257 A  
HETATM    3  H   UNL     1     -12.042   7.395  72.777  1.00  0.00     0.000 HD 
HETATM    4  C   UNL     1     -10.959   7.213  69.702  1.00  0.00    -0.236 A  
HETATM    5  C   UNL     1     -10.108   7.884  68.817  1.00  0.00    -0.203 A  
HETATM    6  C   UNL     1      -9.444   9.068  69.193  1.00  0.00    -0.153 A  
HETATM    7  C   UNL     1      -9.676   9.555  70.492  1.00  0.00    -0.325 A  
HETATM    8  C   UNL     1     -10.521   8.882  71.381  1.00  0.00    -0.375 A  
ENDROOT
BRANCH   6   9
HETATM    9  C   UNL     1      -8.393   9.730  68.288  1.00  0.00    -0.106 C  
HETATM   10  C   UNL     1      -7.870  11.137  68.708  1.00  0.00    -0.142 C  
HETATM   11  N   UNL     1      -8.865  12.198  68.909  1.00  0.00    -0.372 NA 
HETATM   12  C   UNL     1      -9.530  12.606  67.672  1.00  0.00    -0.189 C  
HETATM   13  H   UNL     1      -8.448  13.001  69.379  1.00  0.00     0.000 HD 
HETATM   14  C   UNL     1     -10.447  11.535  67.066  1.00  0.00    -0.263 C  
HETATM   15  C   UNL     1      -9.692  10.547  66.197  1.00  0.00    -0.259 A  
HETATM   16  C   UNL     1      -9.930  10.437  64.810  1.00  0.00    -0.339 A  
HETATM   17  C   UNL     1      -9.169   9.560  64.027  1.00  0.00    -0.060 A  
HETATM   18 CL   UNL     1     -11.151  11.364  63.998  1.00  0.00    -0.436 Cl 
HETATM   19  C   UNL     1      -8.179   8.785  64.608  1.00  0.00    -0.165 A  
HETATM   20  O   UNL     1      -9.351   9.424  62.673  1.00  0.00    -0.544 OA 
HETATM   21  H   UNL     1      -8.835   8.829  62.142  1.00  0.00     0.000 HD 
HETATM   22  O   UNL     1      -7.416   7.953  63.840  1.00  0.00    -0.095 OA 
HETATM   23  C   UNL     1      -7.946   8.845  65.971  1.00  0.00    -0.106 A  
HETATM   24  H   UNL     1      -6.737   7.421  64.239  1.00  0.00     0.000 HD 
HETATM   25  C   UNL     1      -8.700   9.716  66.786  1.00  0.00    -0.144 A  
ENDBRANCH   6   9
TORSDOF 1
ENDMDL
MODEL       88
REMARK 921   NORMALIZED FREE ENERGY PREDICTED BY IDOCK:   -4.87 KCAL/MOL
REMARK 922        TOTAL FREE ENERGY PREDICTED BY IDOCK:   -5.48 KCAL/MOL
REMARK 923 INTER-LIGAND FREE ENERGY PREDICTED BY IDOCK:   -4.95 KCAL/MOL
REMARK 924 INTRA-LIGAND FREE ENERGY PREDICTED BY IDOCK:   -0.53 KCAL/MOL
REMARK 927      BINDING AFFINITY PREDICTED BY RF-SCORE:    0.00 PKD
ROOT
HETATM    1  O   UNL     1      -6.113   9.195  74.024  1.00  0.00    -0.291 OA 
HETATM    2  C   UNL     1      -7.132   8.462  73.491  1.00  0.00    -0.078 A  
HETATM    3  H   UNL     1      -6.108   9.447  74.940  1.00  0.00     0.000 HD 
HETATM    4  C   UNL     1      -7.139   8.094  72.153  1.00  0.00    -0.095 A  
HETATM    5  C   UNL     1      -8.235   7.394  71.636  1.00  0.00    -0.105 A  
HETATM    6  C   UNL     1      -9.328   7.036  72.447  1.00  0.00    -0.152 A  
HETATM    7  C   UNL     1      -9.273   7.402  73.805  1.00  0.00    -0.305 A  
HETATM    8  C   UNL     1      -8.182   8.108  74.324  1.00  0.00    -0.290 A  
ENDROOT
BRANCH   6   9
HETATM    9  C   UNL     1     -10.601   6.403  71.861  1.00  0.00    -0.247 C  
HETATM   10  C   UNL     1     -11.440   5.484  72.799  1.00  0.00    -0.280 C  
HETATM   11  N   UNL     1     -10.753   4.349  73.428  1.00  0.00    -0.214 NA 
HETATM   12  C   UNL     1     -10.344   3.320  72.471  1.00  0.00    -0.112 C  
HETATM   13  H   UNL     1     -11.324   3.947  74.171  1.00  0.00     0.000 HD 
HETATM   14  C   UNL     1      -9.235   3.761  71.507  1.00  0.00    -0.188 C  
HETATM   15  C   UNL     1      -9.777   4.504  70.300  1.00  0.00    -0.287 A  
HETATM   16  C   UNL     1      -9.652   3.993  68.989  1.00  0.00    -0.153 A  
HETATM   17  C   UNL     1     -10.221   4.673  67.906  1.00  0.00     0.048 A  
HETATM   18 CL   UNL     1      -8.810   2.517  68.642  1.00  0.00    -0.136 Cl 
HETATM   19  C   UNL     1     -10.905   5.861  68.108  1.00  0.00    -0.236 A  
HETATM   20  O   UNL     1     -10.140   4.214  66.615  1.00  0.00    -0.328 OA 
HETATM   21  H   UNL     1     -10.525   4.675  65.879  1.00  0.00     0.000 HD 
HETATM   22  O   UNL     1     -11.486   6.508  67.055  1.00  0.00    -0.752 OA 
HETATM   23  C   UNL     1     -11.014   6.404  69.375  1.00  0.00    -0.421 A  
HETATM   24  H   UNL     1     -11.955   7.322  67.194  1.00  0.00     0.000 HD 
HETATM   25  C   UNL     1     -10.448   5.743  70.486  1.00  0.00    -0.331 A  
ENDBRANCH   6   9
TORSDOF 1
ENDMDL
MODEL       89
REMARK 921   NORMALIZED FREE ENERGY PREDICTED BY IDOCK:   -4.87 KCAL/MOL
REMARK 922        TOTAL FREE ENERGY PREDICTED BY IDOCK:   -5.48 KCAL/MOL
REMARK 923 INTER-LIGAND FREE ENERGY PREDICTED BY IDOCK:   -5.50 KCAL/MOL
REMARK 924 INTRA-LIGAND FREE ENERGY PREDICTED BY IDOCK:    0.03 KCAL/MOL
REMARK 927      BINDING AFFINITY PREDICTED BY RF-SCORE:    0.00 PKD
ROOT
HETATM    1  O   UNL     1     -13.005  10.689  69.586  1.00  0.00    -0.542 OA 
HETATM    2  C   UNL     1     -12.268   9.989  70.495  1.00  0.00    -0.222 A  
HETATM    3  H   UNL     1     -13.954  10.702  69.619  1.00  0.00     0.000 HD 
HETATM    4  C   UNL     1     -10.881   9.970  70.447  1.00  0.00    -0.380 A  
HETATM    5  C   UNL     1     -10.169   9.189  71.364  1.00  0.00    -0.402 A  
HETATM    6  C   UNL     1     -10.828   8.432  72.351  1.00  0.00    -0.416 A  
HETATM    7  C   UNL     1     -12.233   8.498  72.387  1.00  0.00    -0.432 A  
HETATM    8  C   UNL     1     -12.948   9.272  71.468  1.00  0.00    -0.429 A  
ENDROOT
BRANCH   6   9
HETATM    9  C   UNL     1     -10.069   7.455  73.265  1.00  0.00    -0.367 C  
HETATM   10  C   UNL     1      -8.692   7.921  73.826  1.00  0.00    -0.271 C  
HETATM   11  N   UNL     1      -7.674   8.343  72.856  1.00  0.00    -0.303 NA 
HETATM   12  C   UNL     1      -7.177   7.245  72.027  1.00  0.00    -0.071 C  
HETATM   13  H   UNL     1      -6.904   8.820  73.324  1.00  0.00     0.000 HD 
HETATM   14  C   UNL     1      -8.213   6.676  71.047  1.00  0.00    -0.120 C  
HETATM   15  C   UNL     1      -9.108   5.633  71.689  1.00  0.00    -0.150 A  
HETATM   16  C   UNL     1      -9.107   4.286  71.268  1.00  0.00    -0.127 A  
HETATM   17  C   UNL     1      -9.899   3.336  71.926  1.00  0.00    -0.168 A  
HETATM   18 CL   UNL     1      -8.141   3.726  69.941  1.00  0.00    -0.058 Cl 
HETATM   19  C   UNL     1     -10.699   3.712  72.993  1.00  0.00    -0.142 A  
HETATM   20  O   UNL     1      -9.925   2.012  71.565  1.00  0.00    -0.152 OA 
HETATM   21  H   UNL     1     -10.462   1.368  72.011  1.00  0.00     0.000 HD 
HETATM   22  O   UNL     1     -11.447   2.781  73.653  1.00  0.00    -0.227 OA 
HETATM   23  C   UNL     1     -10.748   5.032  73.406  1.00  0.00    -0.330 A  
HETATM   24  H   UNL     1     -11.996   3.039  74.385  1.00  0.00     0.000 HD 
HETATM   25  C   UNL     1      -9.964   6.011  72.760  1.00  0.00    -0.191 A  
ENDBRANCH   6   9
TORSDOF 1
ENDMDL
MODEL       90
REMARK 921   NORMALIZED FREE ENERGY PREDICTED BY IDOCK:   -4.86 KCAL/MOL
REMARK 922        TOTAL FREE ENERGY PREDICTED BY IDOCK:   -5.46 KCAL/MOL
REMARK 923 INTER-LIGAND FREE ENERGY PREDICTED BY IDOCK:   -5.28 KCAL/MOL
REMARK 924 INTRA-LIGAND FREE ENERGY PREDICTED BY IDOCK:   -0.19 KCAL/MOL
REMARK 927      BINDING AFFINITY PREDICTED BY RF-SCORE:    0.00 PKD
ROOT
HETATM    1  O   UNL     1     -13.623  13.213  72.101  1.00  0.00    -0.508 OA 
HETATM    2  C   UNL     1     -13.131  12.017  71.672  1.00  0.00    -0.318 A  
HETATM    3  H   UNL     1     -13.353  14.033  71.704  1.00  0.00     0.000 HD 
HETATM    4  C   UNL     1     -13.525  10.819  72.252  1.00  0.00    -0.076 A  
HETATM    5  C   UNL     1     -12.948   9.620  71.820  1.00  0.00    -0.514 A  
HETATM    6  C   UNL     1     -11.985   9.596  70.793  1.00  0.00    -0.356 A  
HETATM    7  C   UNL     1     -11.630  10.826  70.211  1.00  0.00    -0.427 A  
HETATM    8  C   UNL     1     -12.200  12.027  70.645  1.00  0.00    -0.409 A  
ENDROOT
BRANCH   6   9
HETATM    9  C   UNL     1     -11.235   8.308  70.414  1.00  0.00    -0.222 C  
HETATM   10  C   UNL     1     -11.903   6.952  70.793  1.00  0.00    -0.377 C  
HETATM   11  N   UNL     1     -12.255   6.740  72.202  1.00  0.00    -0.483 NA 
HETATM   12  C   UNL     1     -11.087   6.626  73.077  1.00  0.00    -0.205 C  
HETATM   13  H   UNL     1     -12.866   5.930  72.305  1.00  0.00     0.000 HD 
HETATM   14  C   UNL     1     -10.282   7.924  73.228  1.00  0.00    -0.297 C  
HETATM   15  C   UNL     1      -9.279   8.119  72.107  1.00  0.00    -0.258 A  
HETATM   16  C   UNL     1      -7.887   8.136  72.344  1.00  0.00    -0.126 A  
HETATM   17  C   UNL     1      -6.988   8.253  71.277  1.00  0.00    -0.061 A  
HETATM   18 CL   UNL     1      -7.213   8.009  73.937  1.00  0.00    -0.163 Cl 
HETATM   19  C   UNL     1      -7.455   8.363  69.978  1.00  0.00    -0.063 A  
HETATM   20  O   UNL     1      -5.626   8.262  71.451  1.00  0.00    -0.033 OA 
HETATM   21  H   UNL     1      -5.015   8.342  70.728  1.00  0.00     0.000 HD 
HETATM   22  O   UNL     1      -6.578   8.446  68.936  1.00  0.00    -0.051 OA 
HETATM   23  C   UNL     1      -8.814   8.385  69.718  1.00  0.00    -0.134 A  
HETATM   24  H   UNL     1      -6.898   8.522  68.044  1.00  0.00     0.000 HD 
HETATM   25  C   UNL     1      -9.744   8.272  70.772  1.00  0.00    -0.197 A  
ENDBRANCH   6   9
TORSDOF 1
ENDMDL
MODEL       91
REMARK 921   NORMALIZED FREE ENERGY PREDICTED BY IDOCK:   -4.85 KCAL/MOL
REMARK 922        TOTAL FREE ENERGY PREDICTED BY IDOCK:   -5.45 KCAL/MOL
REMARK 923 INTER-LIGAND FREE ENERGY PREDICTED BY IDOCK:   -5.06 KCAL/MOL
REMARK 924 INTRA-LIGAND FREE ENERGY PREDICTED BY IDOCK:   -0.40 KCAL/MOL
REMARK 927      BINDING AFFINITY PREDICTED BY RF-SCORE:    0.00 PKD
ROOT
HETATM    1  O   UNL     1     -13.365  15.142  72.030  1.00  0.00    -0.338 OA 
HETATM    2  C   UNL     1     -12.542  15.305  70.956  1.00  0.00    -0.406 A  
HETATM    3  H   UNL     1     -13.322  15.720  72.783  1.00  0.00     0.000 HD 
HETATM    4  C   UNL     1     -12.604  14.460  69.857  1.00  0.00    -0.217 A  
HETATM    5  C   UNL     1     -11.698  14.629  68.804  1.00  0.00    -0.357 A  
HETATM    6  C   UNL     1     -10.731  15.653  68.824  1.00  0.00    -0.250 A  
HETATM    7  C   UNL     1     -10.716  16.507  69.941  1.00  0.00    -0.269 A  
HETATM    8  C   UNL     1     -11.616  16.337  70.999  1.00  0.00    -0.343 A  
ENDROOT
BRANCH   6   9
HETATM    9  C   UNL     1      -9.636  15.755  67.749  1.00  0.00    -0.214 C  
HETATM   10  C   UNL     1      -9.027  14.423  67.219  1.00  0.00    -0.212 C  
HETATM   11  N   UNL     1      -8.451  13.501  68.205  1.00  0.00    -0.165 NA 
HETATM   12  C   UNL     1      -7.241  14.021  68.843  1.00  0.00    -0.108 C  
HETATM   13  H   UNL     1      -8.276  12.587  67.788  1.00  0.00     0.000 HD 
HETATM   14  C   UNL     1      -7.481  15.228  69.761  1.00  0.00    -0.122 C  
HETATM   15  C   UNL     1      -7.505  16.540  69.001  1.00  0.00    -0.229 A  
HETATM   16  C   UNL     1      -6.537  17.546  69.214  1.00  0.00    -0.235 A  
HETATM   17  C   UNL     1      -6.552  18.718  68.449  1.00  0.00    -0.233 A  
HETATM   18 CL   UNL     1      -5.289  17.398  70.410  1.00  0.00    -0.243 Cl 
HETATM   19  C   UNL     1      -7.522  18.907  67.478  1.00  0.00    -0.228 A  
HETATM   20  O   UNL     1      -5.627  19.721  68.607  1.00  0.00    -0.203 OA 
HETATM   21  H   UNL     1      -5.637  20.516  68.088  1.00  0.00     0.000 HD 
HETATM   22  O   UNL     1      -7.517  20.036  66.711  1.00  0.00    -0.239 OA 
HETATM   23  C   UNL     1      -8.504  17.955  67.269  1.00  0.00    -0.242 A  
HETATM   24  H   UNL     1      -8.183  20.165  66.045  1.00  0.00     0.000 HD 
HETATM   25  C   UNL     1      -8.517  16.765  68.028  1.00  0.00    -0.205 A  
ENDBRANCH   6   9
TORSDOF 1
ENDMDL
MODEL       92
REMARK 921   NORMALIZED FREE ENERGY PREDICTED BY IDOCK:   -4.84 KCAL/MOL
REMARK 922        TOTAL FREE ENERGY PREDICTED BY IDOCK:   -5.44 KCAL/MOL
REMARK 923 INTER-LIGAND FREE ENERGY PREDICTED BY IDOCK:   -5.02 KCAL/MOL
REMARK 924 INTRA-LIGAND FREE ENERGY PREDICTED BY IDOCK:   -0.42 KCAL/MOL
REMARK 927      BINDING AFFINITY PREDICTED BY RF-SCORE:    0.00 PKD
ROOT
HETATM    1  O   UNL     1      -9.244  14.004  65.850  1.00  0.00    -0.501 OA 
HETATM    2  C   UNL     1      -9.701  12.899  66.503  1.00  0.00    -0.257 A  
HETATM    3  H   UNL     1      -9.149  14.021  64.905  1.00  0.00     0.000 HD 
HETATM    4  C   UNL     1      -9.840  12.874  67.883  1.00  0.00    -0.227 A  
HETATM    5  C   UNL     1     -10.256  11.696  68.515  1.00  0.00    -0.216 A  
HETATM    6  C   UNL     1     -10.555  10.534  67.779  1.00  0.00    -0.285 A  
HETATM    7  C   UNL     1     -10.429  10.605  66.379  1.00  0.00    -0.276 A  
HETATM    8  C   UNL     1     -10.008  11.778  65.745  1.00  0.00    -0.269 A  
ENDROOT
BRANCH   6   9
HETATM    9  C   UNL     1     -10.865   9.195  68.467  1.00  0.00    -0.089 C  
HETATM   10  C   UNL     1     -10.745   9.144  70.020  1.00  0.00    -0.232 C  
HETATM   11  N   UNL     1      -9.464   9.545  70.615  1.00  0.00    -0.273 NA 
HETATM   12  C   UNL     1      -8.372   8.619  70.310  1.00  0.00    -0.129 C  
HETATM   13  H   UNL     1      -9.557   9.677  71.621  1.00  0.00     0.000 HD 
HETATM   14  C   UNL     1      -7.952   8.603  68.835  1.00  0.00    -0.113 C  
HETATM   15  C   UNL     1      -8.814   7.680  67.995  1.00  0.00    -0.127 A  
HETATM   16  C   UNL     1      -8.286   6.534  67.361  1.00  0.00    -0.121 A  
HETATM   17  C   UNL     1      -9.123   5.668  66.647  1.00  0.00    -0.129 A  
HETATM   18 CL   UNL     1      -6.601   6.128  67.426  1.00  0.00    -0.050 Cl 
HETATM   19  C   UNL     1     -10.480   5.932  66.549  1.00  0.00    -0.190 A  
HETATM   20  O   UNL     1      -8.663   4.536  66.023  1.00  0.00    -0.113 OA 
HETATM   21  H   UNL     1      -9.231   3.948  65.538  1.00  0.00     0.000 HD 
HETATM   22  O   UNL     1     -11.301   5.071  65.880  1.00  0.00    -0.769 OA 
HETATM   23  C   UNL     1     -11.021   7.064  67.130  1.00  0.00    -0.393 A  
HETATM   24  H   UNL     1     -12.232   5.252  65.812  1.00  0.00     0.000 HD 
HETATM   25  C   UNL     1     -10.201   7.957  67.853  1.00  0.00    -0.263 A  
ENDBRANCH   6   9
TORSDOF 1
ENDMDL
MODEL       93
REMARK 921   NORMALIZED FREE ENERGY PREDICTED BY IDOCK:   -4.80 KCAL/MOL
REMARK 922        TOTAL FREE ENERGY PREDICTED BY IDOCK:   -5.40 KCAL/MOL
REMARK 923 INTER-LIGAND FREE ENERGY PREDICTED BY IDOCK:   -4.93 KCAL/MOL
REMARK 924 INTRA-LIGAND FREE ENERGY PREDICTED BY IDOCK:   -0.48 KCAL/MOL
REMARK 927      BINDING AFFINITY PREDICTED BY RF-SCORE:    0.00 PKD
ROOT
HETATM    1  O   UNL     1     -12.269  12.227  62.761  1.00  0.00    -0.441 OA 
HETATM    2  C   UNL     1     -11.986  12.227  64.094  1.00  0.00    -0.432 A  
HETATM    3  H   UNL     1     -11.834  11.634  62.159  1.00  0.00     0.000 HD 
HETATM    4  C   UNL     1     -12.621  13.094  64.972  1.00  0.00    -0.499 A  
HETATM    5  C   UNL     1     -12.255  13.100  66.323  1.00  0.00    -0.423 A  
HETATM    6  C   UNL     1     -11.264  12.231  66.819  1.00  0.00    -0.371 A  
HETATM    7  C   UNL     1     -10.662  11.347  65.905  1.00  0.00    -0.311 A  
HETATM    8  C   UNL     1     -11.022  11.343  64.553  1.00  0.00    -0.346 A  
ENDROOT
BRANCH   6   9
HETATM    9  C   UNL     1     -10.747  12.331  68.263  1.00  0.00    -0.244 C  
HETATM   10  C   UNL     1     -10.941  13.690  69.001  1.00  0.00    -0.234 C  
HETATM   11  N   UNL     1     -10.396  14.893  68.359  1.00  0.00    -0.229 NA 
HETATM   12  C   UNL     1      -8.934  14.910  68.312  1.00  0.00    -0.177 C  
HETATM   13  H   UNL     1     -10.754  15.736  68.806  1.00  0.00     0.000 HD 
HETATM   14  C   UNL     1      -8.320  13.851  67.387  1.00  0.00    -0.208 C  
HETATM   15  C   UNL     1      -8.167  12.504  68.066  1.00  0.00    -0.166 A  
HETATM   16  C   UNL     1      -6.901  11.923  68.299  1.00  0.00    -0.066 A  
HETATM   17  C   UNL     1      -6.794  10.708  68.987  1.00  0.00    -0.071 A  
HETATM   18 CL   UNL     1      -5.426  12.661  67.765  1.00  0.00    -0.104 Cl 
HETATM   19  C   UNL     1      -7.931  10.058  69.440  1.00  0.00    -0.145 A  
HETATM   20  O   UNL     1      -5.588  10.107  69.250  1.00  0.00    -0.038 OA 
HETATM   21  H   UNL     1      -5.515   9.282  69.717  1.00  0.00     0.000 HD 
HETATM   22  O   UNL     1      -7.824   8.890  70.138  1.00  0.00    -0.080 OA 
HETATM   23  C   UNL     1      -9.187  10.585  69.197  1.00  0.00    -0.183 A  
HETATM   24  H   UNL     1      -8.604   8.445  70.448  1.00  0.00     0.000 HD 
HETATM   25  C   UNL     1      -9.326  11.806  68.503  1.00  0.00    -0.158 A  
ENDBRANCH   6   9
TORSDOF 1
ENDMDL
MODEL       94
REMARK 921   NORMALIZED FREE ENERGY PREDICTED BY IDOCK:   -4.76 KCAL/MOL
REMARK 922        TOTAL FREE ENERGY PREDICTED BY IDOCK:   -5.36 KCAL/MOL
REMARK 923 INTER-LIGAND FREE ENERGY PREDICTED BY IDOCK:   -5.11 KCAL/MOL
REMARK 924 INTRA-LIGAND FREE ENERGY PREDICTED BY IDOCK:   -0.25 KCAL/MOL
REMARK 927      BINDING AFFINITY PREDICTED BY RF-SCORE:    0.00 PKD
ROOT
HETATM    1  O   UNL     1     -11.805  16.445  71.483  1.00  0.00    -0.639 OA 
HETATM    2  C   UNL     1     -11.258  16.021  70.309  1.00  0.00    -0.389 A  
HETATM    3  H   UNL     1     -11.296  16.483  72.284  1.00  0.00     0.000 HD 
HETATM    4  C   UNL     1     -12.001  15.965  69.138  1.00  0.00    -0.268 A  
HETATM    5  C   UNL     1     -11.414  15.466  67.970  1.00  0.00    -0.333 A  
HETATM    6  C   UNL     1     -10.074  15.033  67.949  1.00  0.00    -0.226 A  
HETATM    7  C   UNL     1      -9.344  15.130  69.147  1.00  0.00    -0.215 A  
HETATM    8  C   UNL     1      -9.930  15.622  70.318  1.00  0.00     0.081 A  
ENDROOT
BRANCH   6   9
HETATM    9  C   UNL     1      -9.464  14.344  66.717  1.00  0.00    -0.280 C  
HETATM   10  C   UNL     1     -10.230  14.482  65.367  1.00  0.00    -0.389 C  
HETATM   11  N   UNL     1     -11.634  14.053  65.337  1.00  0.00    -0.319 NA 
HETATM   12  C   UNL     1     -11.799  12.608  65.502  1.00  0.00    -0.431 C  
HETATM   13  H   UNL     1     -12.093  14.376  64.486  1.00  0.00     0.000 HD 
HETATM   14  C   UNL     1     -11.422  12.085  66.894  1.00  0.00    -0.402 C  
HETATM   15  C   UNL     1      -9.937  11.814  67.031  1.00  0.00    -0.224 A  
HETATM   16  C   UNL     1      -9.431  10.514  67.251  1.00  0.00    -0.158 A  
HETATM   17  C   UNL     1      -8.049  10.290  67.307  1.00  0.00    -0.120 A  
HETATM   18 CL   UNL     1     -10.463   9.136  67.456  1.00  0.00    -0.323 Cl 
HETATM   19  C   UNL     1      -7.164  11.345  67.155  1.00  0.00    -0.134 A  
HETATM   20  O   UNL     1      -7.506   9.045  67.506  1.00  0.00    -0.081 OA 
HETATM   21  H   UNL     1      -6.569   8.893  67.544  1.00  0.00     0.000 HD 
HETATM   22  O   UNL     1      -5.818  11.122  67.179  1.00  0.00    -0.055 OA 
HETATM   23  C   UNL     1      -7.630  12.635  66.973  1.00  0.00     0.006 A  
HETATM   24  H   UNL     1      -5.210  11.845  67.075  1.00  0.00     0.000 HD 
HETATM   25  C   UNL     1      -9.016  12.891  66.916  1.00  0.00    -0.210 A  
ENDBRANCH   6   9
TORSDOF 1
ENDMDL
MODEL       95
REMARK 921   NORMALIZED FREE ENERGY PREDICTED BY IDOCK:   -4.76 KCAL/MOL
REMARK 922        TOTAL FREE ENERGY PREDICTED BY IDOCK:   -5.36 KCAL/MOL
REMARK 923 INTER-LIGAND FREE ENERGY PREDICTED BY IDOCK:   -5.53 KCAL/MOL
REMARK 924 INTRA-LIGAND FREE ENERGY PREDICTED BY IDOCK:    0.17 KCAL/MOL
REMARK 927      BINDING AFFINITY PREDICTED BY RF-SCORE:    0.00 PKD
ROOT
HETATM    1  O   UNL     1      -5.125   7.210  71.295  1.00  0.00    -0.026 OA 
HETATM    2  C   UNL     1      -6.367   7.253  70.734  1.00  0.00    -0.039 A  
HETATM    3  H   UNL     1      -4.641   6.396  71.369  1.00  0.00     0.000 HD 
HETATM    4  C   UNL     1      -7.075   8.442  70.626  1.00  0.00    -0.044 A  
HETATM    5  C   UNL     1      -8.371   8.428  70.098  1.00  0.00    -0.120 A  
HETATM    6  C   UNL     1      -8.971   7.234  69.655  1.00  0.00    -0.141 A  
HETATM    7  C   UNL     1      -8.213   6.053  69.755  1.00  0.00    -0.118 A  
HETATM    8  C   UNL     1      -6.920   6.062  70.288  1.00  0.00    -0.062 A  
ENDROOT
BRANCH   6   9
HETATM    9  C   UNL     1     -10.444   7.181  69.216  1.00  0.00    -0.220 C  
HETATM   10  C   UNL     1     -10.783   7.697  67.785  1.00  0.00    -0.145 C  
HETATM   11  N   UNL     1     -10.374   9.065  67.443  1.00  0.00    -0.250 NA 
HETATM   12  C   UNL     1     -11.104  10.089  68.192  1.00  0.00    -0.193 C  
HETATM   13  H   UNL     1     -10.451   9.226  66.439  1.00  0.00     0.000 HD 
HETATM   14  C   UNL     1     -10.789  10.118  69.693  1.00  0.00    -0.299 C  
HETATM   15  C   UNL     1     -11.616   9.119  70.479  1.00  0.00    -0.238 A  
HETATM   16  C   UNL     1     -12.554   9.526  71.453  1.00  0.00    -0.359 A  
HETATM   17  C   UNL     1     -13.348   8.580  72.113  1.00  0.00    -0.351 A  
HETATM   18 CL   UNL     1     -12.787  11.191  71.881  1.00  0.00    -0.478 Cl 
HETATM   19  C   UNL     1     -13.213   7.232  71.824  1.00  0.00    -0.312 A  
HETATM   20  O   UNL     1     -14.283   8.924  73.058  1.00  0.00    -1.106 OA 
HETATM   21  H   UNL     1     -14.821   8.282  73.506  1.00  0.00     0.000 HD 
HETATM   22  O   UNL     1     -14.008   6.313  72.446  1.00  0.00    -0.526 OA 
HETATM   23  C   UNL     1     -12.278   6.799  70.901  1.00  0.00    -0.386 A  
HETATM   24  H   UNL     1     -13.916   5.387  72.248  1.00  0.00     0.000 HD 
HETATM   25  C   UNL     1     -11.462   7.729  70.222  1.00  0.00    -0.117 A  
ENDBRANCH   6   9
TORSDOF 1
ENDMDL
MODEL       96
REMARK 921   NORMALIZED FREE ENERGY PREDICTED BY IDOCK:   -4.72 KCAL/MOL
REMARK 922        TOTAL FREE ENERGY PREDICTED BY IDOCK:   -5.32 KCAL/MOL
REMARK 923 INTER-LIGAND FREE ENERGY PREDICTED BY IDOCK:   -5.02 KCAL/MOL
REMARK 924 INTRA-LIGAND FREE ENERGY PREDICTED BY IDOCK:   -0.29 KCAL/MOL
REMARK 927      BINDING AFFINITY PREDICTED BY RF-SCORE:    0.00 PKD
ROOT
HETATM    1  O   UNL     1      -7.100  16.930  67.163  1.00  0.00    -0.149 OA 
HETATM    2  C   UNL     1      -7.931  15.875  66.928  1.00  0.00    -0.252 A  
HETATM    3  H   UNL     1      -7.343  17.817  66.925  1.00  0.00     0.000 HD 
HETATM    4  C   UNL     1      -7.577  14.579  67.275  1.00  0.00    -0.150 A  
HETATM    5  C   UNL     1      -8.436  13.521  66.960  1.00  0.00    -0.137 A  
HETATM    6  C   UNL     1      -9.666  13.741  66.311  1.00  0.00    -0.297 A  
HETATM    7  C   UNL     1     -10.004  15.070  66.000  1.00  0.00    -0.334 A  
HETATM    8  C   UNL     1      -9.145  16.130  66.308  1.00  0.00    -0.373 A  
ENDROOT
BRANCH   6   9
HETATM    9  C   UNL     1     -10.547  12.578  65.825  1.00  0.00    -0.299 C  
HETATM   10  C   UNL     1     -12.027  12.549  66.311  1.00  0.00    -0.343 C  
HETATM   11  N   UNL     1     -12.266  12.575  67.760  1.00  0.00    -0.301 NA 
HETATM   12  C   UNL     1     -11.820  11.359  68.440  1.00  0.00    -0.274 C  
HETATM   13  H   UNL     1     -13.247  12.765  67.962  1.00  0.00     0.000 HD 
HETATM   14  C   UNL     1     -10.297  11.167  68.455  1.00  0.00    -0.207 C  
HETATM   15  C   UNL     1      -9.781  10.509  67.190  1.00  0.00    -0.202 A  
HETATM   16  C   UNL     1      -9.169   9.237  67.204  1.00  0.00    -0.130 A  
HETATM   17  C   UNL     1      -8.763   8.632  66.008  1.00  0.00    -0.170 A  
HETATM   18 CL   UNL     1      -8.889   8.355  68.671  1.00  0.00    -0.136 Cl 
HETATM   19  C   UNL     1      -8.951   9.280  64.798  1.00  0.00    -0.168 A  
HETATM   20  O   UNL     1      -8.174   7.393  65.965  1.00  0.00    -0.116 OA 
HETATM   21  H   UNL     1      -7.899   6.982  65.154  1.00  0.00     0.000 HD 
HETATM   22  O   UNL     1      -8.584   8.676  63.630  1.00  0.00    -0.390 OA 
HETATM   23  C   UNL     1      -9.517  10.542  64.755  1.00  0.00    -0.312 A  
HETATM   24  H   UNL     1      -8.713   9.121  62.800  1.00  0.00     0.000 HD 
HETATM   25  C   UNL     1      -9.932  11.178  65.944  1.00  0.00    -0.285 A  
ENDBRANCH   6   9
TORSDOF 1
ENDMDL
MODEL       97
REMARK 921   NORMALIZED FREE ENERGY PREDICTED BY IDOCK:   -4.65 KCAL/MOL
REMARK 922        TOTAL FREE ENERGY PREDICTED BY IDOCK:   -5.25 KCAL/MOL
REMARK 923 INTER-LIGAND FREE ENERGY PREDICTED BY IDOCK:   -4.79 KCAL/MOL
REMARK 924 INTRA-LIGAND FREE ENERGY PREDICTED BY IDOCK:   -0.45 KCAL/MOL
REMARK 927      BINDING AFFINITY PREDICTED BY RF-SCORE:    0.00 PKD
ROOT
HETATM    1  O   UNL     1     -12.392  14.773  71.700  1.00  0.00    -0.315 OA 
HETATM    2  C   UNL     1     -12.384  13.467  71.309  1.00  0.00    -0.194 A  
HETATM    3  H   UNL     1     -12.012  15.456  71.160  1.00  0.00     0.000 HD 
HETATM    4  C   UNL     1     -12.938  12.468  72.098  1.00  0.00    -0.319 A  
HETATM    5  C   UNL     1     -12.852  11.134  71.684  1.00  0.00    -0.524 A  
HETATM    6  C   UNL     1     -12.230  10.779  70.472  1.00  0.00    -0.457 A  
HETATM    7  C   UNL     1     -11.704  11.821  69.686  1.00  0.00    -0.413 A  
HETATM    8  C   UNL     1     -11.782  13.154  70.099  1.00  0.00    -0.250 A  
ENDROOT
BRANCH   6   9
HETATM    9  C   UNL     1     -11.996   9.311  70.080  1.00  0.00     0.164 C  
HETATM   10  C   UNL     1     -12.208   8.233  71.185  1.00  0.00    -0.233 C  
HETATM   11  N   UNL     1     -11.444   8.379  72.430  1.00  0.00    -0.384 NA 
HETATM   12  C   UNL     1     -10.005   8.185  72.251  1.00  0.00    -0.263 C  
HETATM   13  H   UNL     1     -11.806   7.757  73.152  1.00  0.00     0.000 HD 
HETATM   14  C   UNL     1      -9.320   9.282  71.424  1.00  0.00    -0.137 C  
HETATM   15  C   UNL     1      -9.422   9.034  69.932  1.00  0.00    -0.186 A  
HETATM   16  C   UNL     1      -8.282   8.793  69.133  1.00  0.00    -0.119 A  
HETATM   17  C   UNL     1      -8.419   8.503  67.770  1.00  0.00    -0.130 A  
HETATM   18 CL   UNL     1      -6.671   8.834  69.775  1.00  0.00    -0.045 Cl 
HETATM   19  C   UNL     1      -9.675   8.458  67.188  1.00  0.00    -0.190 A  
HETATM   20  O   UNL     1      -7.345   8.250  66.953  1.00  0.00    -0.081 OA 
HETATM   21  H   UNL     1      -7.437   8.054  66.028  1.00  0.00     0.000 HD 
HETATM   22  O   UNL     1      -9.810   8.145  65.866  1.00  0.00    -0.451 OA 
HETATM   23  C   UNL     1     -10.808   8.724  67.936  1.00  0.00    -0.078 A  
HETATM   24  H   UNL     1     -10.672   8.114  65.467  1.00  0.00     0.000 HD 
HETATM   25  C   UNL     1     -10.701   9.022  69.311  1.00  0.00    -0.189 A  
ENDBRANCH   6   9
TORSDOF 1
ENDMDL
MODEL       98
REMARK 921   NORMALIZED FREE ENERGY PREDICTED BY IDOCK:   -4.64 KCAL/MOL
REMARK 922        TOTAL FREE ENERGY PREDICTED BY IDOCK:   -5.24 KCAL/MOL
REMARK 923 INTER-LIGAND FREE ENERGY PREDICTED BY IDOCK:   -4.84 KCAL/MOL
REMARK 924 INTRA-LIGAND FREE ENERGY PREDICTED BY IDOCK:   -0.39 KCAL/MOL
REMARK 927      BINDING AFFINITY PREDICTED BY RF-SCORE:    0.00 PKD
ROOT
HETATM    1  O   UNL     1     -14.006   9.060  72.524  1.00  0.00    -0.531 OA 
HETATM    2  C   UNL     1     -12.899   8.358  72.150  1.00  0.00    -0.346 A  
HETATM    3  H   UNL     1     -14.863   8.868  72.163  1.00  0.00     0.000 HD 
HETATM    4  C   UNL     1     -11.647   8.638  72.678  1.00  0.00    -0.177 A  
HETATM    5  C   UNL     1     -10.530   7.931  72.219  1.00  0.00    -0.322 A  
HETATM    6  C   UNL     1     -10.648   6.924  71.242  1.00  0.00    -0.244 A  
HETATM    7  C   UNL     1     -11.937   6.648  70.750  1.00  0.00    -0.412 A  
HETATM    8  C   UNL     1     -13.055   7.358  71.202  1.00  0.00    -0.276 A  
ENDROOT
BRANCH   6   9
HETATM    9  C   UNL     1      -9.415   6.247  70.621  1.00  0.00    -0.182 C  
HETATM   10  C   UNL     1      -8.015   6.717  71.116  1.00  0.00    -0.103 C  
HETATM   11  N   UNL     1      -7.705   8.149  71.014  1.00  0.00    -0.083 NA 
HETATM   12  C   UNL     1      -7.584   8.615  69.632  1.00  0.00    -0.080 C  
HETATM   13  H   UNL     1      -6.868   8.378  71.549  1.00  0.00     0.000 HD 
HETATM   14  C   UNL     1      -8.901   8.602  68.844  1.00  0.00    -0.138 C  
HETATM   15  C   UNL     1      -9.201   7.245  68.237  1.00  0.00    -0.133 A  
HETATM   16  C   UNL     1      -9.257   7.046  66.841  1.00  0.00    -0.150 A  
HETATM   17  C   UNL     1      -9.472   5.766  66.314  1.00  0.00    -0.148 A  
HETATM   18 CL   UNL     1      -9.061   8.344  65.707  1.00  0.00    -0.220 Cl 
HETATM   19  C   UNL     1      -9.641   4.682  67.160  1.00  0.00    -0.176 A  
HETATM   20  O   UNL     1      -9.523   5.516  64.965  1.00  0.00    -0.356 OA 
HETATM   21  H   UNL     1      -9.669   4.648  64.608  1.00  0.00     0.000 HD 
HETATM   22  O   UNL     1      -9.820   3.430  66.647  1.00  0.00    -0.411 OA 
HETATM   23  C   UNL     1      -9.626   4.851  68.533  1.00  0.00    -0.210 A  
HETATM   24  H   UNL     1      -9.936   2.686  67.227  1.00  0.00     0.000 HD 
HETATM   25  C   UNL     1      -9.415   6.130  69.093  1.00  0.00    -0.144 A  
ENDBRANCH   6   9
TORSDOF 1
ENDMDL
MODEL       99
REMARK 921   NORMALIZED FREE ENERGY PREDICTED BY IDOCK:   -4.64 KCAL/MOL
REMARK 922        TOTAL FREE ENERGY PREDICTED BY IDOCK:   -5.23 KCAL/MOL
REMARK 923 INTER-LIGAND FREE ENERGY PREDICTED BY IDOCK:   -4.89 KCAL/MOL
REMARK 924 INTRA-LIGAND FREE ENERGY PREDICTED BY IDOCK:   -0.34 KCAL/MOL
REMARK 927      BINDING AFFINITY PREDICTED BY RF-SCORE:    0.00 PKD
ROOT
HETATM    1  O   UNL     1     -11.258  12.216  65.861  1.00  0.00    -0.312 OA 
HETATM    2  C   UNL     1     -10.525  11.377  66.645  1.00  0.00    -0.243 A  
HETATM    3  H   UNL     1     -12.069  12.605  66.169  1.00  0.00     0.000 HD 
HETATM    4  C   UNL     1      -9.342  10.809  66.194  1.00  0.00    -0.209 A  
HETATM    5  C   UNL     1      -8.655   9.905  67.012  1.00  0.00    -0.130 A  
HETATM    6  C   UNL     1      -9.127   9.568  68.295  1.00  0.00    -0.127 A  
HETATM    7  C   UNL     1     -10.315  10.185  68.729  1.00  0.00    -0.211 A  
HETATM    8  C   UNL     1     -11.008  11.084  67.911  1.00  0.00    -0.317 A  
ENDROOT
BRANCH   6   9
HETATM    9  C   UNL     1      -8.466   8.467  69.140  1.00  0.00    -0.123 C  
HETATM   10  C   UNL     1      -8.052   7.155  68.409  1.00  0.00    -0.124 C  
HETATM   11  N   UNL     1      -9.093   6.436  67.664  1.00  0.00    -0.116 NA 
HETATM   12  C   UNL     1     -10.121   5.854  68.527  1.00  0.00    -0.167 C  
HETATM   13  H   UNL     1      -8.681   5.725  67.060  1.00  0.00     0.000 HD 
HETATM   14  C   UNL     1     -11.008   6.886  69.235  1.00  0.00    -0.260 C  
HETATM   15  C   UNL     1     -10.388   7.403  70.519  1.00  0.00    -0.220 A  
HETATM   16  C   UNL     1     -10.977   7.171  71.781  1.00  0.00    -0.229 A  
HETATM   17  C   UNL     1     -10.343   7.606  72.951  1.00  0.00    -0.322 A  
HETATM   18 CL   UNL     1     -12.490   6.343  71.964  1.00  0.00    -0.322 Cl 
HETATM   19  C   UNL     1      -9.133   8.278  72.882  1.00  0.00    -0.262 A  
HETATM   20  O   UNL     1     -10.866   7.396  74.203  1.00  0.00    -0.505 OA 
HETATM   21  H   UNL     1     -10.436   7.691  74.997  1.00  0.00     0.000 HD 
HETATM   22  O   UNL     1      -8.500   8.675  74.024  1.00  0.00    -0.294 OA 
HETATM   23  C   UNL     1      -8.548   8.551  71.658  1.00  0.00    -0.247 A  
HETATM   24  H   UNL     1      -7.670   9.136  73.976  1.00  0.00     0.000 HD 
HETATM   25  C   UNL     1      -9.166   8.128  70.462  1.00  0.00    -0.157 A  
ENDBRANCH   6   9
TORSDOF 1
ENDMDL
MODEL      100
REMARK 921   NORMALIZED FREE ENERGY PREDICTED BY IDOCK:   -4.63 KCAL/MOL
REMARK 922        TOTAL FREE ENERGY PREDICTED BY IDOCK:   -5.22 KCAL/MOL
REMARK 923 INTER-LIGAND FREE ENERGY PREDICTED BY IDOCK:   -4.76 KCAL/MOL
REMARK 924 INTRA-LIGAND FREE ENERGY PREDICTED BY IDOCK:   -0.46 KCAL/MOL
REMARK 927      BINDING AFFINITY PREDICTED BY RF-SCORE:    0.00 PKD
ROOT
HETATM    1  O   UNL     1     -10.864   5.749  70.721  1.00  0.00    -0.271 OA 
HETATM    2  C   UNL     1     -10.180   6.468  69.786  1.00  0.00    -0.187 A  
HETATM    3  H   UNL     1     -11.813   5.703  70.717  1.00  0.00     0.000 HD 
HETATM    4  C   UNL     1      -8.794   6.536  69.792  1.00  0.00    -0.143 A  
HETATM    5  C   UNL     1      -8.138   7.335  68.849  1.00  0.00    -0.128 A  
HETATM    6  C   UNL     1      -8.852   8.062  67.878  1.00  0.00    -0.130 A  
HETATM    7  C   UNL     1     -10.254   7.947  67.885  1.00  0.00    -0.263 A  
HETATM    8  C   UNL     1     -10.913   7.155  68.830  1.00  0.00    -0.109 A  
ENDROOT
BRANCH   6   9
HETATM    9  C   UNL     1      -8.156   9.059  66.936  1.00  0.00    -0.112 C  
HETATM   10  C   UNL     1      -6.857   9.746  67.454  1.00  0.00    -0.083 C  
HETATM   11  N   UNL     1      -6.937  10.476  68.725  1.00  0.00    -0.066 NA 
HETATM   12  C   UNL     1      -7.768  11.678  68.649  1.00  0.00    -0.134 C  
HETATM   13  H   UNL     1      -6.005  10.702  69.073  1.00  0.00     0.000 HD 
HETATM   14  C   UNL     1      -9.263  11.399  68.443  1.00  0.00    -0.183 C  
HETATM   15  C   UNL     1      -9.621  11.198  66.983  1.00  0.00    -0.201 A  
HETATM   16  C   UNL     1     -10.480  12.083  66.295  1.00  0.00    -0.238 A  
HETATM   17  C   UNL     1     -10.737  11.905  64.931  1.00  0.00    -0.301 A  
HETATM   18 CL   UNL     1     -11.251  13.426  67.076  1.00  0.00    -0.312 Cl 
HETATM   19  C   UNL     1     -10.158  10.851  64.242  1.00  0.00    -0.351 A  
HETATM   20  O   UNL     1     -11.553  12.743  64.212  1.00  0.00    -0.332 OA 
HETATM   21  H   UNL     1     -11.728  12.622  63.286  1.00  0.00     0.000 HD 
HETATM   22  O   UNL     1     -10.385  10.695  62.905  1.00  0.00    -0.707 OA 
HETATM   23  C   UNL     1      -9.341   9.947  64.897  1.00  0.00    -0.329 A  
HETATM   24  H   UNL     1      -9.988   9.972  62.433  1.00  0.00     0.000 HD 
HETATM   25  C   UNL     1      -9.066  10.099  66.273  1.00  0.00    -0.180 A  
ENDBRANCH   6   9
TORSDOF 1
ENDMDL
MODEL      101
REMARK 921   NORMALIZED FREE ENERGY PREDICTED BY IDOCK:   -4.62 KCAL/MOL
REMARK 922        TOTAL FREE ENERGY PREDICTED BY IDOCK:   -5.21 KCAL/MOL
REMARK 923 INTER-LIGAND FREE ENERGY PREDICTED BY IDOCK:   -4.74 KCAL/MOL
REMARK 924 INTRA-LIGAND FREE ENERGY PREDICTED BY IDOCK:   -0.47 KCAL/MOL
REMARK 927      BINDING AFFINITY PREDICTED BY RF-SCORE:    0.00 PKD
ROOT
HETATM    1  O   UNL     1     -11.548   4.741  65.051  1.00  0.00    -0.995 OA 
HETATM    2  C   UNL     1     -10.655   4.953  66.059  1.00  0.00    -0.261 A  
HETATM    3  H   UNL     1     -12.399   5.164  65.043  1.00  0.00     0.000 HD 
HETATM    4  C   UNL     1      -9.413   4.335  66.071  1.00  0.00    -0.177 A  
HETATM    5  C   UNL     1      -8.553   4.535  67.157  1.00  0.00    -0.104 A  
HETATM    6  C   UNL     1      -8.912   5.366  68.235  1.00  0.00    -0.112 A  
HETATM    7  C   UNL     1     -10.167   5.997  68.175  1.00  0.00    -0.214 A  
HETATM    8  C   UNL     1     -11.032   5.795  67.094  1.00  0.00    -0.205 A  
ENDROOT
BRANCH   6   9
HETATM    9  C   UNL     1      -8.044   5.474  69.500  1.00  0.00    -0.101 C  
HETATM   10  C   UNL     1      -7.086   4.286  69.814  1.00  0.00    -0.049 C  
HETATM   11  N   UNL     1      -7.678   2.947  69.920  1.00  0.00    -0.043 NA 
HETATM   12  C   UNL     1      -8.556   2.795  71.082  1.00  0.00    -0.064 C  
HETATM   13  H   UNL     1      -6.955   2.229  69.916  1.00  0.00     0.000 HD 
HETATM   14  C   UNL     1      -9.848   3.619  71.008  1.00  0.00    -0.186 C  
HETATM   15  C   UNL     1      -9.655   5.045  71.486  1.00  0.00    -0.213 A  
HETATM   16  C   UNL     1     -10.312   5.545  72.632  1.00  0.00    -0.198 A  
HETATM   17  C   UNL     1     -10.061   6.848  73.082  1.00  0.00    -0.215 A  
HETATM   18 CL   UNL     1     -11.445   4.599  73.542  1.00  0.00    -0.362 Cl 
HETATM   19  C   UNL     1      -9.170   7.662  72.402  1.00  0.00    -0.151 A  
HETATM   20  O   UNL     1     -10.663   7.378  74.196  1.00  0.00    -0.540 OA 
HETATM   21  H   UNL     1     -10.493   8.261  74.501  1.00  0.00     0.000 HD 
HETATM   22  O   UNL     1      -8.902   8.920  72.858  1.00  0.00    -0.288 OA 
HETATM   23  C   UNL     1      -8.538   7.212  71.256  1.00  0.00    -0.124 A  
HETATM   24  H   UNL     1      -8.291   9.479  72.392  1.00  0.00     0.000 HD 
HETATM   25  C   UNL     1      -8.774   5.906  70.777  1.00  0.00    -0.134 A  
ENDBRANCH   6   9
TORSDOF 1
ENDMDL
MODEL      102
REMARK 921   NORMALIZED FREE ENERGY PREDICTED BY IDOCK:   -4.59 KCAL/MOL
REMARK 922        TOTAL FREE ENERGY PREDICTED BY IDOCK:   -5.18 KCAL/MOL
REMARK 923 INTER-LIGAND FREE ENERGY PREDICTED BY IDOCK:   -4.79 KCAL/MOL
REMARK 924 INTRA-LIGAND FREE ENERGY PREDICTED BY IDOCK:   -0.39 KCAL/MOL
REMARK 927      BINDING AFFINITY PREDICTED BY RF-SCORE:    0.00 PKD
ROOT
HETATM    1  O   UNL     1     -10.698  11.280  63.603  1.00  0.00    -0.395 OA 
HETATM    2  C   UNL     1     -10.040  10.494  64.501  1.00  0.00    -0.332 A  
HETATM    3  H   UNL     1     -11.353  11.910  63.879  1.00  0.00     0.000 HD 
HETATM    4  C   UNL     1      -9.084   9.573  64.098  1.00  0.00    -0.203 A  
HETATM    5  C   UNL     1      -8.478   8.745  65.050  1.00  0.00    -0.193 A  
HETATM    6  C   UNL     1      -8.804   8.836  66.417  1.00  0.00    -0.175 A  
HETATM    7  C   UNL     1      -9.758   9.799  66.792  1.00  0.00    -0.248 A  
HETATM    8  C   UNL     1     -10.370  10.624  65.842  1.00  0.00    -0.291 A  
ENDROOT
BRANCH   6   9
HETATM    9  C   UNL     1      -8.260   7.834  67.449  1.00  0.00    -0.123 C  
HETATM   10  C   UNL     1      -8.146   6.343  67.009  1.00  0.00    -0.112 C  
HETATM   11  N   UNL     1      -9.360   5.690  66.506  1.00  0.00    -0.145 NA 
HETATM   12  C   UNL     1     -10.384   5.505  67.535  1.00  0.00    -0.214 C  
HETATM   13  H   UNL     1      -9.135   4.804  66.055  1.00  0.00     0.000 HD 
HETATM   14  C   UNL     1     -11.011   6.810  68.042  1.00  0.00    -0.289 C  
HETATM   15  C   UNL     1     -10.191   7.461  69.139  1.00  0.00    -0.196 A  
HETATM   16  C   UNL     1     -10.687   7.614  70.453  1.00  0.00    -0.236 A  
HETATM   17  C   UNL     1      -9.878   8.161  71.457  1.00  0.00    -0.179 A  
HETATM   18 CL   UNL     1     -12.293   7.140  70.903  1.00  0.00    -0.367 Cl 
HETATM   19  C   UNL     1      -8.584   8.566  71.169  1.00  0.00    -0.169 A  
HETATM   20  O   UNL     1     -10.306   8.320  72.751  1.00  0.00    -0.318 OA 
HETATM   21  H   UNL     1      -9.757   8.692  73.433  1.00  0.00     0.000 HD 
HETATM   22  O   UNL     1      -7.786   9.070  72.154  1.00  0.00    -0.351 OA 
HETATM   23  C   UNL     1      -8.083   8.461  69.883  1.00  0.00    -0.119 A  
HETATM   24  H   UNL     1      -6.898   9.348  71.957  1.00  0.00     0.000 HD 
HETATM   25  C   UNL     1      -8.876   7.917  68.851  1.00  0.00    -0.142 A  
ENDBRANCH   6   9
TORSDOF 1
ENDMDL
MODEL      103
REMARK 921   NORMALIZED FREE ENERGY PREDICTED BY IDOCK:   -4.57 KCAL/MOL
REMARK 922        TOTAL FREE ENERGY PREDICTED BY IDOCK:   -5.16 KCAL/MOL
REMARK 923 INTER-LIGAND FREE ENERGY PREDICTED BY IDOCK:   -4.68 KCAL/MOL
REMARK 924 INTRA-LIGAND FREE ENERGY PREDICTED BY IDOCK:   -0.47 KCAL/MOL
REMARK 927      BINDING AFFINITY PREDICTED BY RF-SCORE:    0.00 PKD
ROOT
HETATM    1  O   UNL     1     -13.719  11.154  72.153  1.00  0.00    -0.383 OA 
HETATM    2  C   UNL     1     -12.699  10.313  71.820  1.00  0.00    -0.433 A  
HETATM    3  H   UNL     1     -13.899  11.940  71.651  1.00  0.00     0.000 HD 
HETATM    4  C   UNL     1     -12.435   9.165  72.553  1.00  0.00    -0.260 A  
HETATM    5  C   UNL     1     -11.340   8.364  72.210  1.00  0.00    -0.448 A  
HETATM    6  C   UNL     1     -10.505   8.686  71.123  1.00  0.00    -0.291 A  
HETATM    7  C   UNL     1     -10.820   9.842  70.386  1.00  0.00    -0.380 A  
HETATM    8  C   UNL     1     -11.910  10.649  70.730  1.00  0.00    -0.459 A  
ENDROOT
BRANCH   6   9
HETATM    9  C   UNL     1      -9.216   7.901  70.829  1.00  0.00    -0.159 C  
HETATM   10  C   UNL     1      -8.884   7.603  69.336  1.00  0.00    -0.139 C  
HETATM   11  N   UNL     1      -9.899   6.900  68.543  1.00  0.00    -0.142 NA 
HETATM   12  C   UNL     1     -10.108   5.516  68.970  1.00  0.00    -0.205 C  
HETATM   13  H   UNL     1      -9.676   6.943  67.549  1.00  0.00     0.000 HD 
HETATM   14  C   UNL     1     -10.751   5.374  70.356  1.00  0.00    -0.276 C  
HETATM   15  C   UNL     1      -9.735   5.444  71.479  1.00  0.00    -0.209 A  
HETATM   16  C   UNL     1      -9.485   4.347  72.332  1.00  0.00    -0.139 A  
HETATM   17  C   UNL     1      -8.492   4.427  73.317  1.00  0.00    -0.098 A  
HETATM   18 CL   UNL     1     -10.366   2.858  72.216  1.00  0.00    -0.175 Cl 
HETATM   19  C   UNL     1      -7.751   5.587  73.470  1.00  0.00    -0.099 A  
HETATM   20  O   UNL     1      -8.201   3.386  74.163  1.00  0.00    -0.070 OA 
HETATM   21  H   UNL     1      -7.528   3.439  74.832  1.00  0.00     0.000 HD 
HETATM   22  O   UNL     1      -6.763   5.653  74.410  1.00  0.00    -0.077 OA 
HETATM   23  C   UNL     1      -7.997   6.690  72.673  1.00  0.00    -0.101 A  
HETATM   24  H   UNL     1      -6.254   6.449  74.515  1.00  0.00     0.000 HD 
HETATM   25  C   UNL     1      -8.993   6.641  71.674  1.00  0.00    -0.141 A  
ENDBRANCH   6   9
TORSDOF 1
ENDMDL
MODEL      104
REMARK 921   NORMALIZED FREE ENERGY PREDICTED BY IDOCK:   -4.52 KCAL/MOL
REMARK 922        TOTAL FREE ENERGY PREDICTED BY IDOCK:   -5.11 KCAL/MOL
REMARK 923 INTER-LIGAND FREE ENERGY PREDICTED BY IDOCK:   -5.18 KCAL/MOL
REMARK 924 INTRA-LIGAND FREE ENERGY PREDICTED BY IDOCK:    0.07 KCAL/MOL
REMARK 927      BINDING AFFINITY PREDICTED BY RF-SCORE:    0.00 PKD
ROOT
HETATM    1  O   UNL     1     -12.518  14.274  69.438  1.00  0.00    -0.513 OA 
HETATM    2  C   UNL     1     -11.845  13.089  69.394  1.00  0.00    -0.322 A  
HETATM    3  H   UNL     1     -12.294  14.995  68.861  1.00  0.00     0.000 HD 
HETATM    4  C   UNL     1     -12.172  12.036  70.237  1.00  0.00    -0.348 A  
HETATM    5  C   UNL     1     -11.415  10.860  70.198  1.00  0.00    -0.405 A  
HETATM    6  C   UNL     1     -10.334  10.711  69.308  1.00  0.00    -0.240 A  
HETATM    7  C   UNL     1     -10.050  11.789  68.450  1.00  0.00    -0.201 A  
HETATM    8  C   UNL     1     -10.800  12.968  68.491  1.00  0.00    -0.282 A  
ENDROOT
BRANCH   6   9
HETATM    9  C   UNL     1      -9.403   9.488  69.360  1.00  0.00    -0.185 C  
HETATM   10  C   UNL     1      -9.719   8.307  68.394  1.00  0.00    -0.158 C  
HETATM   11  N   UNL     1     -11.061   7.716  68.461  1.00  0.00    -0.403 NA 
HETATM   12  C   UNL     1     -11.318   7.009  69.716  1.00  0.00    -0.182 C  
HETATM   13  H   UNL     1     -11.230   7.108  67.660  1.00  0.00     0.000 HD 
HETATM   14  C   UNL     1     -11.399   7.919  70.948  1.00  0.00    -0.290 C  
HETATM   15  C   UNL     1     -10.035   8.226  71.535  1.00  0.00    -0.260 A  
HETATM   16  C   UNL     1      -9.665   7.800  72.830  1.00  0.00    -0.232 A  
HETATM   17  C   UNL     1      -8.374   8.044  73.315  1.00  0.00    -0.211 A  
HETATM   18 CL   UNL     1     -10.758   6.958  73.880  1.00  0.00    -0.265 Cl 
HETATM   19  C   UNL     1      -7.449   8.715  72.531  1.00  0.00     0.050 A  
HETATM   20  O   UNL     1      -7.959   7.640  74.559  1.00  0.00    -0.172 OA 
HETATM   21  H   UNL     1      -7.084   7.806  74.889  1.00  0.00     0.000 HD 
HETATM   22  O   UNL     1      -6.181   8.926  72.993  1.00  0.00    -0.233 OA 
HETATM   23  C   UNL     1      -7.793   9.175  71.273  1.00  0.00    -0.067 A  
HETATM   24  H   UNL     1      -5.546   9.386  72.455  1.00  0.00     0.000 HD 
HETATM   25  C   UNL     1      -9.087   8.947  70.759  1.00  0.00    -0.260 A  
ENDBRANCH   6   9
TORSDOF 1
ENDMDL
MODEL      105
REMARK 921   NORMALIZED FREE ENERGY PREDICTED BY IDOCK:   -4.49 KCAL/MOL
REMARK 922        TOTAL FREE ENERGY PREDICTED BY IDOCK:   -5.08 KCAL/MOL
REMARK 923 INTER-LIGAND FREE ENERGY PREDICTED BY IDOCK:   -5.03 KCAL/MOL
REMARK 924 INTRA-LIGAND FREE ENERGY PREDICTED BY IDOCK:   -0.05 KCAL/MOL
REMARK 927      BINDING AFFINITY PREDICTED BY RF-SCORE:    0.00 PKD
ROOT
HETATM    1  O   UNL     1     -11.788   6.534  71.562  1.00  0.00    -0.314 OA 
HETATM    2  C   UNL     1     -11.396   6.960  70.328  1.00  0.00    -0.324 A  
HETATM    3  H   UNL     1     -11.786   7.116  72.313  1.00  0.00     0.000 HD 
HETATM    4  C   UNL     1     -11.399   6.110  69.230  1.00  0.00    -0.361 A  
HETATM    5  C   UNL     1     -10.931   6.575  67.996  1.00  0.00    -0.368 A  
HETATM    6  C   UNL     1     -10.471   7.895  67.834  1.00  0.00    -0.261 A  
HETATM    7  C   UNL     1     -10.509   8.736  68.962  1.00  0.00    -0.220 A  
HETATM    8  C   UNL     1     -10.970   8.273  70.199  1.00  0.00    -0.222 A  
ENDROOT
BRANCH   6   9
HETATM    9  C   UNL     1      -9.815   8.372  66.528  1.00  0.00    -0.338 C  
HETATM   10  C   UNL     1      -8.499   7.664  66.087  1.00  0.00    -0.143 C  
HETATM   11  N   UNL     1      -7.384   7.649  67.043  1.00  0.00    -0.088 NA 
HETATM   12  C   UNL     1      -6.814   8.975  67.284  1.00  0.00    -0.077 C  
HETATM   13  H   UNL     1      -6.663   6.992  66.748  1.00  0.00     0.000 HD 
HETATM   14  C   UNL     1      -7.749   9.939  68.027  1.00  0.00    -0.086 C  
HETATM   15  C   UNL     1      -8.711  10.649  67.095  1.00  0.00    -0.130 A  
HETATM   16  C   UNL     1      -8.677  12.049  66.909  1.00  0.00    -0.193 A  
HETATM   17  C   UNL     1      -9.537  12.664  65.992  1.00  0.00    -0.188 A  
HETATM   18 CL   UNL     1      -7.585  13.076  67.781  1.00  0.00    -0.136 Cl 
HETATM   19  C   UNL     1     -10.439  11.906  65.262  1.00  0.00    -0.275 A  
HETATM   20  O   UNL     1      -9.535  14.018  65.764  1.00  0.00    -0.504 OA 
HETATM   21  H   UNL     1     -10.119  14.436  65.142  1.00  0.00     0.000 HD 
HETATM   22  O   UNL     1     -11.256  12.502  64.346  1.00  0.00    -0.306 OA 
HETATM   23  C   UNL     1     -10.520  10.537  65.448  1.00  0.00    -0.222 A  
HETATM   24  H   UNL     1     -11.874  11.982  63.845  1.00  0.00     0.000 HD 
HETATM   25  C   UNL     1      -9.669   9.890  66.368  1.00  0.00    -0.270 A  
ENDBRANCH   6   9
TORSDOF 1
ENDMDL
MODEL      106
REMARK 921   NORMALIZED FREE ENERGY PREDICTED BY IDOCK:   -4.41 KCAL/MOL
REMARK 922        TOTAL FREE ENERGY PREDICTED BY IDOCK:   -4.99 KCAL/MOL
REMARK 923 INTER-LIGAND FREE ENERGY PREDICTED BY IDOCK:   -4.51 KCAL/MOL
REMARK 924 INTRA-LIGAND FREE ENERGY PREDICTED BY IDOCK:   -0.47 KCAL/MOL
REMARK 927      BINDING AFFINITY PREDICTED BY RF-SCORE:    0.00 PKD
ROOT
HETATM    1  O   UNL     1     -10.139   4.217  64.164  1.00  0.00    -0.334 OA 
HETATM    2  C   UNL     1      -9.809   4.767  65.367  1.00  0.00    -0.107 A  
HETATM    3  H   UNL     1      -9.477   3.994  63.520  1.00  0.00     0.000 HD 
HETATM    4  C   UNL     1     -10.776   5.094  66.307  1.00  0.00    -0.272 A  
HETATM    5  C   UNL     1     -10.395   5.713  67.503  1.00  0.00    -0.277 A  
HETATM    6  C   UNL     1      -9.045   5.997  67.785  1.00  0.00    -0.109 A  
HETATM    7  C   UNL     1      -8.090   5.626  66.821  1.00  0.00    -0.102 A  
HETATM    8  C   UNL     1      -8.468   5.014  65.622  1.00  0.00    -0.127 A  
ENDROOT
BRANCH   6   9
HETATM    9  C   UNL     1      -8.629   6.809  69.023  1.00  0.00    -0.131 C  
HETATM   10  C   UNL     1      -7.353   6.345  69.788  1.00  0.00    -0.080 C  
HETATM   11  N   UNL     1      -7.314   4.957  70.262  1.00  0.00    -0.054 NA 
HETATM   12  C   UNL     1      -8.282   4.684  71.326  1.00  0.00    -0.100 C  
HETATM   13  H   UNL     1      -6.372   4.700  70.555  1.00  0.00     0.000 HD 
HETATM   14  C   UNL     1      -9.747   4.738  70.874  1.00  0.00    -0.260 C  
HETATM   15  C   UNL     1     -10.307   6.147  70.886  1.00  0.00    -0.267 A  
HETATM   16  C   UNL     1     -11.361   6.526  71.745  1.00  0.00    -0.281 A  
HETATM   17  C   UNL     1     -11.810   7.852  71.775  1.00  0.00    -0.293 A  
HETATM   18 CL   UNL     1     -12.150   5.401  72.803  1.00  0.00    -0.138 Cl 
HETATM   19  C   UNL     1     -11.229   8.805  70.955  1.00  0.00    -0.270 A  
HETATM   20  O   UNL     1     -12.822   8.276  72.601  1.00  0.00    -0.591 OA 
HETATM   21  H   UNL     1     -13.127   9.176  72.621  1.00  0.00     0.000 HD 
HETATM   22  O   UNL     1     -11.645  10.104  71.007  1.00  0.00    -0.349 OA 
HETATM   23  C   UNL     1     -10.218   8.457  70.077  1.00  0.00    -0.202 A  
HETATM   24  H   UNL     1     -11.247  10.758  70.444  1.00  0.00     0.000 HD 
HETATM   25  C   UNL     1      -9.748   7.128  70.021  1.00  0.00    -0.171 A  
ENDBRANCH   6   9
TORSDOF 1
ENDMDL
MODEL      107
REMARK 921   NORMALIZED FREE ENERGY PREDICTED BY IDOCK:   -4.38 KCAL/MOL
REMARK 922        TOTAL FREE ENERGY PREDICTED BY IDOCK:   -4.95 KCAL/MOL
REMARK 923 INTER-LIGAND FREE ENERGY PREDICTED BY IDOCK:   -4.49 KCAL/MOL
REMARK 924 INTRA-LIGAND FREE ENERGY PREDICTED BY IDOCK:   -0.46 KCAL/MOL
REMARK 927      BINDING AFFINITY PREDICTED BY RF-SCORE:    0.00 PKD
ROOT
HETATM    1  O   UNL     1      -5.365   7.959  70.632  1.00  0.00    -0.023 OA 
HETATM    2  C   UNL     1      -6.496   8.439  70.041  1.00  0.00    -0.038 A  
HETATM    3  H   UNL     1      -4.989   7.123  70.380  1.00  0.00     0.000 HD 
HETATM    4  C   UNL     1      -7.046   9.659  70.408  1.00  0.00    -0.138 A  
HETATM    5  C   UNL     1      -8.241  10.083  69.817  1.00  0.00    -0.191 A  
HETATM    6  C   UNL     1      -8.895   9.307  68.841  1.00  0.00    -0.135 A  
HETATM    7  C   UNL     1      -8.293   8.089  68.475  1.00  0.00    -0.127 A  
HETATM    8  C   UNL     1      -7.102   7.659  69.068  1.00  0.00    -0.078 A  
ENDROOT
BRANCH   6   9
HETATM    9  C   UNL     1     -10.281   9.687  68.296  1.00  0.00    -0.216 C  
HETATM   10  C   UNL     1     -10.784   8.931  67.030  1.00  0.00    -0.110 C  
HETATM   11  N   UNL     1      -9.929   8.962  65.837  1.00  0.00    -0.445 NA 
HETATM   12  C   UNL     1      -9.826  10.292  65.236  1.00  0.00    -0.306 C  
HETATM   13  H   UNL     1     -10.240   8.276  65.150  1.00  0.00     0.000 HD 
HETATM   14  C   UNL     1      -9.071  11.316  66.094  1.00  0.00    -0.216 C  
HETATM   15  C   UNL     1      -9.963  11.979  67.126  1.00  0.00    -0.208 A  
HETATM   16  C   UNL     1     -10.243  13.363  67.094  1.00  0.00    -0.247 A  
HETATM   17  C   UNL     1     -11.123  13.930  68.025  1.00  0.00    -0.259 A  
HETATM   18 CL   UNL     1      -9.538  14.428  65.922  1.00  0.00    -0.291 Cl 
HETATM   19  C   UNL     1     -11.721  13.139  68.993  1.00  0.00    -0.321 A  
HETATM   20  O   UNL     1     -11.439  15.266  68.029  1.00  0.00    -0.335 OA 
HETATM   21  H   UNL     1     -12.035  15.651  68.661  1.00  0.00     0.000 HD 
HETATM   22  O   UNL     1     -12.601  13.687  69.880  1.00  0.00    -0.221 OA 
HETATM   23  C   UNL     1     -11.438  11.787  69.071  1.00  0.00    -0.358 A  
HETATM   24  H   UNL     1     -13.012  13.145  70.544  1.00  0.00     0.000 HD 
HETATM   25  C   UNL     1     -10.553  11.189  68.150  1.00  0.00    -0.227 A  
ENDBRANCH   6   9
TORSDOF 1
ENDMDL
MODEL      108
REMARK 921   NORMALIZED FREE ENERGY PREDICTED BY IDOCK:   -4.37 KCAL/MOL
REMARK 922        TOTAL FREE ENERGY PREDICTED BY IDOCK:   -4.95 KCAL/MOL
REMARK 923 INTER-LIGAND FREE ENERGY PREDICTED BY IDOCK:   -4.50 KCAL/MOL
REMARK 924 INTRA-LIGAND FREE ENERGY PREDICTED BY IDOCK:   -0.45 KCAL/MOL
REMARK 927      BINDING AFFINITY PREDICTED BY RF-SCORE:    0.00 PKD
ROOT
HETATM    1  O   UNL     1      -8.712   6.553  64.453  1.00  0.00    -0.331 OA 
HETATM    2  C   UNL     1      -9.240   7.179  65.543  1.00  0.00     0.342 A  
HETATM    3  H   UNL     1      -8.683   5.605  64.390  1.00  0.00     0.000 HD 
HETATM    4  C   UNL     1      -9.283   8.563  65.636  1.00  0.00    -0.161 A  
HETATM    5  C   UNL     1      -9.779   9.162  66.799  1.00  0.00    -0.271 A  
HETATM    6  C   UNL     1     -10.255   8.391  67.877  1.00  0.00    -0.273 A  
HETATM    7  C   UNL     1     -10.222   6.992  67.736  1.00  0.00    -0.227 A  
HETATM    8  C   UNL     1      -9.720   6.390  66.577  1.00  0.00    -0.177 A  
ENDROOT
BRANCH   6   9
HETATM    9  C   UNL     1     -10.660   9.030  69.215  1.00  0.00    -0.226 C  
HETATM   10  C   UNL     1      -9.912  10.328  69.645  1.00  0.00    -0.207 C  
HETATM   11  N   UNL     1      -8.447  10.271  69.723  1.00  0.00    -0.354 NA 
HETATM   12  C   UNL     1      -7.961   9.407  70.800  1.00  0.00    -0.116 C  
HETATM   13  H   UNL     1      -8.052  11.207  69.803  1.00  0.00     0.000 HD 
HETATM   14  C   UNL     1      -8.243   7.914  70.587  1.00  0.00    -0.114 C  
HETATM   15  C   UNL     1      -9.631   7.513  71.050  1.00  0.00    -0.162 A  
HETATM   16  C   UNL     1      -9.832   6.611  72.117  1.00  0.00    -0.156 A  
HETATM   17  C   UNL     1     -11.127   6.314  72.560  1.00  0.00    -0.272 A  
HETATM   18 CL   UNL     1      -8.517   5.831  72.936  1.00  0.00    -0.122 Cl 
HETATM   19  C   UNL     1     -12.225   6.897  71.950  1.00  0.00    -0.332 A  
HETATM   20  O   UNL     1     -11.377   5.454  73.600  1.00  0.00    -0.454 OA 
HETATM   21  H   UNL     1     -12.255   5.252  73.901  1.00  0.00     0.000 HD 
HETATM   22  O   UNL     1     -13.485   6.631  72.402  1.00  0.00    -0.456 OA 
HETATM   23  C   UNL     1     -12.062   7.758  70.879  1.00  0.00    -0.199 A  
HETATM   24  H   UNL     1     -14.239   7.030  71.983  1.00  0.00     0.000 HD 
HETATM   25  C   UNL     1     -10.769   8.073  70.408  1.00  0.00    -0.233 A  
ENDBRANCH   6   9
TORSDOF 1
ENDMDL
MODEL      109
REMARK 921   NORMALIZED FREE ENERGY PREDICTED BY IDOCK:   -4.35 KCAL/MOL
REMARK 922        TOTAL FREE ENERGY PREDICTED BY IDOCK:   -4.92 KCAL/MOL
REMARK 923 INTER-LIGAND FREE ENERGY PREDICTED BY IDOCK:   -4.50 KCAL/MOL
REMARK 924 INTRA-LIGAND FREE ENERGY PREDICTED BY IDOCK:   -0.42 KCAL/MOL
REMARK 927      BINDING AFFINITY PREDICTED BY RF-SCORE:    0.00 PKD
ROOT
HETATM    1  O   UNL     1     -12.765  11.202  70.878  1.00  0.00    -0.357 OA 
HETATM    2  C   UNL     1     -12.411   9.889  70.964  1.00  0.00    -0.346 A  
HETATM    3  H   UNL     1     -12.228  11.833  70.412  1.00  0.00     0.000 HD 
HETATM    4  C   UNL     1     -13.195   8.968  71.645  1.00  0.00    -0.427 A  
HETATM    5  C   UNL     1     -12.761   7.642  71.758  1.00  0.00    -0.356 A  
HETATM    6  C   UNL     1     -11.551   7.213  71.180  1.00  0.00    -0.336 A  
HETATM    7  C   UNL     1     -10.797   8.168  70.474  1.00  0.00    -0.247 A  
HETATM    8  C   UNL     1     -11.224   9.495  70.365  1.00  0.00    -0.323 A  
ENDROOT
BRANCH   6   9
HETATM    9  C   UNL     1     -10.991   5.802  71.424  1.00  0.00    -0.304 C  
HETATM   10  C   UNL     1     -11.226   5.172  72.830  1.00  0.00    -0.294 C  
HETATM   11  N   UNL     1     -10.764   5.930  73.999  1.00  0.00    -0.379 NA 
HETATM   12  C   UNL     1      -9.306   6.033  74.080  1.00  0.00    -0.135 C  
HETATM   13  H   UNL     1     -11.148   5.540  74.859  1.00  0.00     0.000 HD 
HETATM   14  C   UNL     1      -8.672   6.891  72.976  1.00  0.00    -0.135 C  
HETATM   15  C   UNL     1      -8.431   6.109  71.700  1.00  0.00    -0.130 A  
HETATM   16  C   UNL     1      -7.131   5.878  71.199  1.00  0.00    -0.073 A  
HETATM   17  C   UNL     1      -6.941   5.097  70.052  1.00  0.00    -0.056 A  
HETATM   18 CL   UNL     1      -5.712   6.526  71.958  1.00  0.00    -0.036 Cl 
HETATM   19  C   UNL     1      -8.029   4.549  69.391  1.00  0.00    -0.061 A  
HETATM   20  O   UNL     1      -5.699   4.831  69.532  1.00  0.00    -0.014 OA 
HETATM   21  H   UNL     1      -5.570   4.301  68.754  1.00  0.00     0.000 HD 
HETATM   22  O   UNL     1      -7.841   3.763  68.292  1.00  0.00    -0.071 OA 
HETATM   23  C   UNL     1      -9.316   4.788  69.837  1.00  0.00    -0.207 A  
HETATM   24  H   UNL     1      -8.587   3.387  67.838  1.00  0.00     0.000 HD 
HETATM   25  C   UNL     1      -9.539   5.574  70.988  1.00  0.00    -0.217 A  
ENDBRANCH   6   9
TORSDOF 1
ENDMDL
MODEL      110
REMARK 921   NORMALIZED FREE ENERGY PREDICTED BY IDOCK:   -4.34 KCAL/MOL
REMARK 922        TOTAL FREE ENERGY PREDICTED BY IDOCK:   -4.92 KCAL/MOL
REMARK 923 INTER-LIGAND FREE ENERGY PREDICTED BY IDOCK:   -4.47 KCAL/MOL
REMARK 924 INTRA-LIGAND FREE ENERGY PREDICTED BY IDOCK:   -0.45 KCAL/MOL
REMARK 927      BINDING AFFINITY PREDICTED BY RF-SCORE:    0.00 PKD
ROOT
HETATM    1  O   UNL     1      -9.241  17.809  67.886  1.00  0.00    -0.256 OA 
HETATM    2  C   UNL     1      -9.378  16.564  67.348  1.00  0.00    -0.222 A  
HETATM    3  H   UNL     1      -8.543  18.013  68.497  1.00  0.00     0.000 HD 
HETATM    4  C   UNL     1     -10.398  16.265  66.455  1.00  0.00    -0.310 A  
HETATM    5  C   UNL     1     -10.534  14.958  65.975  1.00  0.00    -0.326 A  
HETATM    6  C   UNL     1      -9.647  13.936  66.364  1.00  0.00    -0.292 A  
HETATM    7  C   UNL     1      -8.609  14.282  67.248  1.00  0.00    -0.229 A  
HETATM    8  C   UNL     1      -8.474  15.586  67.735  1.00  0.00    -0.159 A  
ENDROOT
BRANCH   6   9
HETATM    9  C   UNL     1      -9.875  12.469  65.965  1.00  0.00    -0.266 C  
HETATM   10  C   UNL     1     -11.350  11.992  65.802  1.00  0.00    -0.331 C  
HETATM   11  N   UNL     1     -12.253  12.179  66.944  1.00  0.00    -0.429 NA 
HETATM   12  C   UNL     1     -11.910  11.343  68.095  1.00  0.00    -0.218 C  
HETATM   13  H   UNL     1     -13.223  12.034  66.667  1.00  0.00     0.000 HD 
HETATM   14  C   UNL     1     -10.587  11.719  68.776  1.00  0.00    -0.234 C  
HETATM   15  C   UNL     1      -9.386  11.084  68.103  1.00  0.00    -0.173 A  
HETATM   16  C   UNL     1      -8.568  10.142  68.764  1.00  0.00    -0.133 A  
HETATM   17  C   UNL     1      -7.506   9.527  68.090  1.00  0.00    -0.079 A  
HETATM   18 CL   UNL     1      -8.824   9.687  70.418  1.00  0.00    -0.269 Cl 
HETATM   19  C   UNL     1      -7.240   9.844  66.768  1.00  0.00    -0.091 A  
HETATM   20  O   UNL     1      -6.689   8.596  68.683  1.00  0.00    -0.057 OA 
HETATM   21  H   UNL     1      -5.968   8.179  68.226  1.00  0.00     0.000 HD 
HETATM   22  O   UNL     1      -6.223   9.223  66.103  1.00  0.00    -0.061 OA 
HETATM   23  C   UNL     1      -8.001  10.790  66.104  1.00  0.00    -0.157 A  
HETATM   24  H   UNL     1      -6.041   9.440  65.195  1.00  0.00     0.000 HD 
HETATM   25  C   UNL     1      -9.076  11.428  66.758  1.00  0.00    -0.181 A  
ENDBRANCH   6   9
TORSDOF 1
ENDMDL
MODEL      111
REMARK 921   NORMALIZED FREE ENERGY PREDICTED BY IDOCK:   -4.34 KCAL/MOL
REMARK 922        TOTAL FREE ENERGY PREDICTED BY IDOCK:   -4.92 KCAL/MOL
REMARK 923 INTER-LIGAND FREE ENERGY PREDICTED BY IDOCK:   -4.56 KCAL/MOL
REMARK 924 INTRA-LIGAND FREE ENERGY PREDICTED BY IDOCK:   -0.36 KCAL/MOL
REMARK 927      BINDING AFFINITY PREDICTED BY RF-SCORE:    0.00 PKD
ROOT
HETATM    1  O   UNL     1      -5.840  15.308  68.879  1.00  0.00    -0.095 OA 
HETATM    2  C   UNL     1      -6.601  14.229  68.539  1.00  0.00    -0.095 A  
HETATM    3  H   UNL     1      -5.265  15.293  69.635  1.00  0.00     0.000 HD 
HETATM    4  C   UNL     1      -7.441  14.250  67.435  1.00  0.00    -0.172 A  
HETATM    5  C   UNL     1      -8.248  13.141  67.160  1.00  0.00    -0.127 A  
HETATM    6  C   UNL     1      -8.217  11.990  67.971  1.00  0.00    -0.156 A  
HETATM    7  C   UNL     1      -7.333  11.995  69.066  1.00  0.00    -0.018 A  
HETATM    8  C   UNL     1      -6.529  13.104  69.347  1.00  0.00    -0.095 A  
ENDROOT
BRANCH   6   9
HETATM    9  C   UNL     1      -9.204  10.829  67.770  1.00  0.00    -0.155 C  
HETATM   10  C   UNL     1     -10.169  10.913  66.550  1.00  0.00    -0.232 C  
HETATM   11  N   UNL     1     -11.018  12.106  66.437  1.00  0.00    -0.274 NA 
HETATM   12  C   UNL     1     -12.033  12.192  67.488  1.00  0.00    -0.105 C  
HETATM   13  H   UNL     1     -11.446  12.160  65.514  1.00  0.00     0.000 HD 
HETATM   14  C   UNL     1     -11.468  12.437  68.893  1.00  0.00    -0.355 C  
HETATM   15  C   UNL     1     -11.036  11.154  69.577  1.00  0.00    -0.311 A  
HETATM   16  C   UNL     1     -11.665  10.684  70.750  1.00  0.00    -0.335 A  
HETATM   17  C   UNL     1     -11.284   9.462  71.319  1.00  0.00    -0.367 A  
HETATM   18 CL   UNL     1     -12.930  11.565  71.545  1.00  0.00    -0.533 Cl 
HETATM   19  C   UNL     1     -10.278   8.706  70.740  1.00  0.00    -0.204 A  
HETATM   20  O   UNL     1     -11.872   8.953  72.450  1.00  0.00    -0.334 OA 
HETATM   21  H   UNL     1     -11.613   8.125  72.836  1.00  0.00     0.000 HD 
HETATM   22  O   UNL     1      -9.928   7.501  71.276  1.00  0.00    -0.186 OA 
HETATM   23  C   UNL     1      -9.619   9.157  69.610  1.00  0.00    -0.182 A  
HETATM   24  H   UNL     1      -9.237   6.982  70.879  1.00  0.00     0.000 HD 
HETATM   25  C   UNL     1      -9.978  10.386  69.017  1.00  0.00    -0.224 A  
ENDBRANCH   6   9
TORSDOF 1
ENDMDL
MODEL      112
REMARK 921   NORMALIZED FREE ENERGY PREDICTED BY IDOCK:   -4.29 KCAL/MOL
REMARK 922        TOTAL FREE ENERGY PREDICTED BY IDOCK:   -4.87 KCAL/MOL
REMARK 923 INTER-LIGAND FREE ENERGY PREDICTED BY IDOCK:   -4.48 KCAL/MOL
REMARK 924 INTRA-LIGAND FREE ENERGY PREDICTED BY IDOCK:   -0.38 KCAL/MOL
REMARK 927      BINDING AFFINITY PREDICTED BY RF-SCORE:    0.00 PKD
ROOT
HETATM    1  O   UNL     1      -6.471   9.974  71.518  1.00  0.00    -0.311 OA 
HETATM    2  C   UNL     1      -7.297   9.637  70.487  1.00  0.00    -0.131 A  
HETATM    3  H   UNL     1      -6.656   9.707  72.411  1.00  0.00     0.000 HD 
HETATM    4  C   UNL     1      -7.028  10.027  69.182  1.00  0.00    -0.059 A  
HETATM    5  C   UNL     1      -7.936   9.710  68.166  1.00  0.00    -0.100 A  
HETATM    6  C   UNL     1      -9.114   8.987  68.432  1.00  0.00    -0.133 A  
HETATM    7  C   UNL     1      -9.340   8.585  69.761  1.00  0.00    -0.161 A  
HETATM    8  C   UNL     1      -8.438   8.905  70.781  1.00  0.00    -0.216 A  
ENDROOT
BRANCH   6   9
HETATM    9  C   UNL     1     -10.190   8.764  67.356  1.00  0.00    -0.318 C  
HETATM   10  C   UNL     1     -10.730   7.314  67.173  1.00  0.00    -0.343 C  
HETATM   11  N   UNL     1      -9.750   6.255  66.900  1.00  0.00    -0.145 NA 
HETATM   12  C   UNL     1      -9.111   6.385  65.590  1.00  0.00     0.064 C  
HETATM   13  H   UNL     1     -10.173   5.334  67.007  1.00  0.00     0.000 HD 
HETATM   14  C   UNL     1      -8.185   7.602  65.459  1.00  0.00    -0.135 C  
HETATM   15  C   UNL     1      -8.936   8.866  65.088  1.00  0.00    -0.189 A  
HETATM   16  C   UNL     1      -8.717   9.535  63.864  1.00  0.00    -0.216 A  
HETATM   17  C   UNL     1      -9.476  10.663  63.526  1.00  0.00    -0.308 A  
HETATM   18 CL   UNL     1      -7.525   9.012  62.718  1.00  0.00    -0.103 Cl 
HETATM   19  C   UNL     1     -10.444  11.140  64.395  1.00  0.00    -0.353 A  
HETATM   20  O   UNL     1      -9.311  11.342  62.344  1.00  0.00    -0.501 OA 
HETATM   21  H   UNL     1      -9.826  12.107  62.115  1.00  0.00     0.000 HD 
HETATM   22  O   UNL     1     -11.203  12.221  64.052  1.00  0.00    -0.330 OA 
HETATM   23  C   UNL     1     -10.657  10.527  65.617  1.00  0.00    -0.132 A  
HETATM   24  H   UNL     1     -11.867  12.548  64.648  1.00  0.00     0.000 HD 
HETATM   25  C   UNL     1      -9.906   9.391  65.986  1.00  0.00    -0.366 A  
ENDBRANCH   6   9
TORSDOF 1
ENDMDL
MODEL      113
REMARK 921   NORMALIZED FREE ENERGY PREDICTED BY IDOCK:   -4.29 KCAL/MOL
REMARK 922        TOTAL FREE ENERGY PREDICTED BY IDOCK:   -4.86 KCAL/MOL
REMARK 923 INTER-LIGAND FREE ENERGY PREDICTED BY IDOCK:   -4.56 KCAL/MOL
REMARK 924 INTRA-LIGAND FREE ENERGY PREDICTED BY IDOCK:   -0.30 KCAL/MOL
REMARK 927      BINDING AFFINITY PREDICTED BY RF-SCORE:    0.00 PKD
ROOT
HETATM    1  O   UNL     1      -6.118   9.447  67.223  1.00  0.00    -0.055 OA 
HETATM    2  C   UNL     1      -7.193  10.262  67.421  1.00  0.00    -0.092 A  
HETATM    3  H   UNL     1      -6.149   8.723  66.609  1.00  0.00     0.000 HD 
HETATM    4  C   UNL     1      -7.148  11.320  68.317  1.00  0.00    -0.074 A  
HETATM    5  C   UNL     1      -8.295  12.092  68.532  1.00  0.00    -0.093 A  
HETATM    6  C   UNL     1      -9.496  11.831  67.845  1.00  0.00    -0.191 A  
HETATM    7  C   UNL     1      -9.496  10.768  66.924  1.00  0.00    -0.192 A  
HETATM    8  C   UNL     1      -8.353   9.990  66.711  1.00  0.00    -0.125 A  
ENDROOT
BRANCH   6   9
HETATM    9  C   UNL     1     -10.801  12.572  68.182  1.00  0.00    -0.248 C  
HETATM   10  C   UNL     1     -12.106  12.071  67.494  1.00  0.00     0.147 C  
HETATM   11  N   UNL     1     -12.118  12.008  66.027  1.00  0.00    -0.502 NA 
HETATM   12  C   UNL     1     -12.064  13.325  65.392  1.00  0.00    -0.422 C  
HETATM   13  H   UNL     1     -12.923  11.478  65.694  1.00  0.00     0.000 HD 
HETATM   14  C   UNL     1     -10.732  14.064  65.585  1.00  0.00    -0.306 C  
HETATM   15  C   UNL     1     -10.673  14.822  66.897  1.00  0.00    -0.308 A  
HETATM   16  C   UNL     1     -10.577  16.230  66.944  1.00  0.00    -0.270 A  
HETATM   17  C   UNL     1     -10.590  16.901  68.173  1.00  0.00    -0.360 A  
HETATM   18 CL   UNL     1     -10.445  17.201  65.514  1.00  0.00    -0.245 Cl 
HETATM   19  C   UNL     1     -10.689  16.189  69.357  1.00  0.00    -0.307 A  
HETATM   20  O   UNL     1     -10.512  18.268  68.273  1.00  0.00    -0.358 OA 
HETATM   21  H   UNL     1     -10.520  18.724  69.107  1.00  0.00     0.000 HD 
HETATM   22  O   UNL     1     -10.733  16.846  70.553  1.00  0.00    -0.063 OA 
HETATM   23  C   UNL     1     -10.750  14.807  69.345  1.00  0.00    -0.250 A  
HETATM   24  H   UNL     1     -10.801  16.357  71.366  1.00  0.00     0.000 HD 
HETATM   25  C   UNL     1     -10.735  14.103  68.122  1.00  0.00    -0.251 A  
ENDBRANCH   6   9
TORSDOF 1
ENDMDL
MODEL      114
REMARK 921   NORMALIZED FREE ENERGY PREDICTED BY IDOCK:   -4.25 KCAL/MOL
REMARK 922        TOTAL FREE ENERGY PREDICTED BY IDOCK:   -4.82 KCAL/MOL
REMARK 923 INTER-LIGAND FREE ENERGY PREDICTED BY IDOCK:   -4.31 KCAL/MOL
REMARK 924 INTRA-LIGAND FREE ENERGY PREDICTED BY IDOCK:   -0.51 KCAL/MOL
REMARK 927      BINDING AFFINITY PREDICTED BY RF-SCORE:    0.00 PKD
ROOT
HETATM    1  O   UNL     1      -5.574   3.027  70.139  1.00  0.00    -0.015 OA 
HETATM    2  C   UNL     1      -6.713   3.691  69.797  1.00  0.00    -0.034 A  
HETATM    3  H   UNL     1      -5.266   2.278  69.642  1.00  0.00     0.000 HD 
HETATM    4  C   UNL     1      -7.163   4.785  70.523  1.00  0.00    -0.049 A  
HETATM    5  C   UNL     1      -8.370   5.398  70.171  1.00  0.00    -0.114 A  
HETATM    6  C   UNL     1      -9.136   4.942  69.081  1.00  0.00    -0.144 A  
HETATM    7  C   UNL     1      -8.635   3.849  68.351  1.00  0.00    -0.115 A  
HETATM    8  C   UNL     1      -7.432   3.229  68.705  1.00  0.00    -0.049 A  
ENDROOT
BRANCH   6   9
HETATM    9  C   UNL     1     -10.533   5.508  68.778  1.00  0.00    -0.261 C  
HETATM   10  C   UNL     1     -10.960   5.597  67.281  1.00  0.00     0.023 C  
HETATM   11  N   UNL     1     -10.084   6.343  66.370  1.00  0.00    -0.397 NA 
HETATM   12  C   UNL     1     -10.056   7.781  66.644  1.00  0.00    -0.224 C  
HETATM   13  H   UNL     1     -10.335   6.165  65.398  1.00  0.00     0.000 HD 
HETATM   14  C   UNL     1      -9.388   8.156  67.974  1.00  0.00    -0.144 C  
HETATM   15  C   UNL     1     -10.342   8.068  69.149  1.00  0.00    -0.226 A  
HETATM   16  C   UNL     1     -10.712   9.205  69.900  1.00  0.00    -0.231 A  
HETATM   17  C   UNL     1     -11.645   9.097  70.938  1.00  0.00    -0.291 A  
HETATM   18 CL   UNL     1     -10.054  10.779  69.589  1.00  0.00    -0.132 Cl 
HETATM   19  C   UNL     1     -12.210   7.870  71.245  1.00  0.00    -0.294 A  
HETATM   20  O   UNL     1     -12.048  10.173  71.689  1.00  0.00    -0.375 OA 
HETATM   21  H   UNL     1     -12.682  10.100  72.394  1.00  0.00     0.000 HD 
HETATM   22  O   UNL     1     -13.143   7.771  72.236  1.00  0.00    -0.501 OA 
HETATM   23  C   UNL     1     -11.841   6.732  70.551  1.00  0.00    -0.418 A  
HETATM   24  H   UNL     1     -13.530   6.929  72.447  1.00  0.00     0.000 HD 
HETATM   25  C   UNL     1     -10.900   6.809  69.502  1.00  0.00    -0.315 A  
ENDBRANCH   6   9
TORSDOF 1
ENDMDL
MODEL      115
REMARK 921   NORMALIZED FREE ENERGY PREDICTED BY IDOCK:   -4.24 KCAL/MOL
REMARK 922        TOTAL FREE ENERGY PREDICTED BY IDOCK:   -4.81 KCAL/MOL
REMARK 923 INTER-LIGAND FREE ENERGY PREDICTED BY IDOCK:   -4.46 KCAL/MOL
REMARK 924 INTRA-LIGAND FREE ENERGY PREDICTED BY IDOCK:   -0.35 KCAL/MOL
REMARK 927      BINDING AFFINITY PREDICTED BY RF-SCORE:    0.00 PKD
ROOT
HETATM    1  O   UNL     1      -6.294  10.152  71.428  1.00  0.00    -0.320 OA 
HETATM    2  C   UNL     1      -7.402   9.405  71.157  1.00  0.00     0.040 A  
HETATM    3  H   UNL     1      -5.801  10.579  70.738  1.00  0.00     0.000 HD 
HETATM    4  C   UNL     1      -8.123   8.780  72.165  1.00  0.00    -0.020 A  
HETATM    5  C   UNL     1      -9.217   7.974  71.833  1.00  0.00    -0.222 A  
HETATM    6  C   UNL     1      -9.619   7.794  70.496  1.00  0.00    -0.167 A  
HETATM    7  C   UNL     1      -8.881   8.465  69.503  1.00  0.00    -0.145 A  
HETATM    8  C   UNL     1      -7.782   9.266  69.830  1.00  0.00    -0.101 A  
ENDROOT
BRANCH   6   9
HETATM    9  C   UNL     1     -10.721   6.795  70.107  1.00  0.00    -0.274 C  
HETATM   10  C   UNL     1     -11.494   6.096  71.265  1.00  0.00    -0.247 C  
HETATM   11  N   UNL     1     -10.705   5.362  72.262  1.00  0.00    -0.225 NA 
HETATM   12  C   UNL     1     -10.058   4.167  71.719  1.00  0.00    -0.142 C  
HETATM   13  H   UNL     1     -11.274   5.128  73.075  1.00  0.00     0.000 HD 
HETATM   14  C   UNL     1      -8.944   4.459  70.704  1.00  0.00    -0.158 C  
HETATM   15  C   UNL     1      -9.477   4.667  69.300  1.00  0.00    -0.231 A  
HETATM   16  C   UNL     1      -9.155   3.791  68.240  1.00  0.00    -0.143 A  
HETATM   17  C   UNL     1      -9.718   3.976  66.971  1.00  0.00    -0.178 A  
HETATM   18 CL   UNL     1      -8.071   2.452  68.437  1.00  0.00    -0.065 Cl 
HETATM   19  C   UNL     1     -10.590   5.028  66.740  1.00  0.00    -0.157 A  
HETATM   20  O   UNL     1      -9.448   3.147  65.911  1.00  0.00    -0.297 OA 
HETATM   21  H   UNL     1      -9.829   3.272  65.050  1.00  0.00     0.000 HD 
HETATM   22  O   UNL     1     -11.161   5.189  65.511  1.00  0.00    -0.775 OA 
HETATM   23  C   UNL     1     -10.896   5.923  67.749  1.00  0.00    -0.326 A  
HETATM   24  H   UNL     1     -11.760   5.911  65.352  1.00  0.00     0.000 HD 
HETATM   25  C   UNL     1     -10.342   5.764  69.037  1.00  0.00    -0.313 A  
ENDBRANCH   6   9
TORSDOF 1
ENDMDL
MODEL      116
REMARK 921   NORMALIZED FREE ENERGY PREDICTED BY IDOCK:   -4.23 KCAL/MOL
REMARK 922        TOTAL FREE ENERGY PREDICTED BY IDOCK:   -4.80 KCAL/MOL
REMARK 923 INTER-LIGAND FREE ENERGY PREDICTED BY IDOCK:   -4.31 KCAL/MOL
REMARK 924 INTRA-LIGAND FREE ENERGY PREDICTED BY IDOCK:   -0.48 KCAL/MOL
REMARK 927      BINDING AFFINITY PREDICTED BY RF-SCORE:    0.00 PKD
ROOT
HETATM    1  O   UNL     1      -7.146   5.695  69.262  1.00  0.00    -0.061 OA 
HETATM    2  C   UNL     1      -7.295   6.904  68.651  1.00  0.00    -0.094 A  
HETATM    3  H   UNL     1      -6.287   5.327  69.434  1.00  0.00     0.000 HD 
HETATM    4  C   UNL     1      -8.549   7.442  68.398  1.00  0.00    -0.124 A  
HETATM    5  C   UNL     1      -8.654   8.658  67.714  1.00  0.00    -0.136 A  
HETATM    6  C   UNL     1      -7.512   9.362  67.288  1.00  0.00    -0.091 A  
HETATM    7  C   UNL     1      -6.257   8.800  67.586  1.00  0.00    -0.052 A  
HETATM    8  C   UNL     1      -6.149   7.582  68.264  1.00  0.00    -0.036 A  
ENDROOT
BRANCH   6   9
HETATM    9  C   UNL     1      -7.615  10.618  66.406  1.00  0.00    -0.138 C  
HETATM   10  C   UNL     1      -6.621  11.781  66.699  1.00  0.00     0.011 C  
HETATM   11  N   UNL     1      -6.594  12.324  68.063  1.00  0.00    -0.068 NA 
HETATM   12  C   UNL     1      -7.823  13.029  68.427  1.00  0.00    -0.134 C  
HETATM   13  H   UNL     1      -5.779  12.921  68.200  1.00  0.00     0.000 HD 
HETATM   14  C   UNL     1      -9.055  12.124  68.558  1.00  0.00    -0.091 C  
HETATM   15  C   UNL     1      -9.734  11.870  67.225  1.00  0.00    -0.191 A  
HETATM   16  C   UNL     1     -11.046  12.316  66.956  1.00  0.00    -0.287 A  
HETATM   17  C   UNL     1     -11.617  12.121  65.693  1.00  0.00    -0.351 A  
HETATM   18 CL   UNL     1     -12.016  13.125  68.146  1.00  0.00    -0.371 Cl 
HETATM   19  C   UNL     1     -10.902  11.479  64.694  1.00  0.00    -0.310 A  
HETATM   20  O   UNL     1     -12.883  12.547  65.376  1.00  0.00    -0.554 OA 
HETATM   21  H   UNL     1     -13.271  12.414  64.518  1.00  0.00     0.000 HD 
HETATM   22  O   UNL     1     -11.447  11.317  63.454  1.00  0.00    -0.741 OA 
HETATM   23  C   UNL     1      -9.628  10.999  64.938  1.00  0.00    -0.289 A  
HETATM   24  H   UNL     1     -10.957  10.876  62.769  1.00  0.00     0.000 HD 
HETATM   25  C   UNL     1      -9.028  11.178  66.203  1.00  0.00    -0.205 A  
ENDBRANCH   6   9
TORSDOF 1
ENDMDL
MODEL      117
REMARK 921   NORMALIZED FREE ENERGY PREDICTED BY IDOCK:   -4.17 KCAL/MOL
REMARK 922        TOTAL FREE ENERGY PREDICTED BY IDOCK:   -4.73 KCAL/MOL
REMARK 923 INTER-LIGAND FREE ENERGY PREDICTED BY IDOCK:   -4.21 KCAL/MOL
REMARK 924 INTRA-LIGAND FREE ENERGY PREDICTED BY IDOCK:   -0.52 KCAL/MOL
REMARK 927      BINDING AFFINITY PREDICTED BY RF-SCORE:    0.00 PKD
ROOT
HETATM    1  O   UNL     1      -9.387  12.192  65.689  1.00  0.00    -0.397 OA 
HETATM    2  C   UNL     1      -9.318  11.017  66.377  1.00  0.00    -0.183 A  
HETATM    3  H   UNL     1      -9.874  12.265  64.876  1.00  0.00     0.000 HD 
HETATM    4  C   UNL     1      -8.607  10.910  67.563  1.00  0.00    -0.127 A  
HETATM    5  C   UNL     1      -8.514   9.669  68.203  1.00  0.00    -0.118 A  
HETATM    6  C   UNL     1      -9.142   8.523  67.679  1.00  0.00    -0.144 A  
HETATM    7  C   UNL     1      -9.878   8.676  66.489  1.00  0.00    -0.348 A  
HETATM    8  C   UNL     1      -9.967   9.913  65.844  1.00  0.00    -0.347 A  
ENDROOT
BRANCH   6   9
HETATM    9  C   UNL     1      -8.923   7.127  68.287  1.00  0.00    -0.125 C  
HETATM   10  C   UNL     1     -10.051   6.072  68.080  1.00  0.00    -0.160 C  
HETATM   11  N   UNL     1     -11.404   6.429  68.524  1.00  0.00    -0.550 NA 
HETATM   12  C   UNL     1     -11.521   6.549  69.978  1.00  0.00    -0.412 C  
HETATM   13  H   UNL     1     -12.091   5.771  68.158  1.00  0.00     0.000 HD 
HETATM   14  C   UNL     1     -10.755   7.736  70.577  1.00  0.00    -0.238 C  
HETATM   15  C   UNL     1      -9.296   7.415  70.837  1.00  0.00    -0.155 A  
HETATM   16  C   UNL     1      -8.755   7.399  72.141  1.00  0.00    -0.116 A  
HETATM   17  C   UNL     1      -7.419   7.035  72.350  1.00  0.00    -0.085 A  
HETATM   18 CL   UNL     1      -9.689   7.816  73.542  1.00  0.00    -0.353 Cl 
HETATM   19  C   UNL     1      -6.612   6.694  71.277  1.00  0.00    -0.050 A  
HETATM   20  O   UNL     1      -6.847   6.992  73.598  1.00  0.00    -0.070 OA 
HETATM   21  H   UNL     1      -5.941   6.745  73.740  1.00  0.00     0.000 HD 
HETATM   22  O   UNL     1      -5.319   6.309  71.485  1.00  0.00    -0.021 OA 
HETATM   23  C   UNL     1      -7.104   6.733  69.985  1.00  0.00    -0.071 A  
HETATM   24  H   UNL     1      -4.765   6.074  70.749  1.00  0.00     0.000 HD 
HETATM   25  C   UNL     1      -8.445   7.100  69.743  1.00  0.00    -0.137 A  
ENDBRANCH   6   9
TORSDOF 1
ENDMDL
MODEL      118
REMARK 921   NORMALIZED FREE ENERGY PREDICTED BY IDOCK:   -4.16 KCAL/MOL
REMARK 922        TOTAL FREE ENERGY PREDICTED BY IDOCK:   -4.73 KCAL/MOL
REMARK 923 INTER-LIGAND FREE ENERGY PREDICTED BY IDOCK:   -4.20 KCAL/MOL
REMARK 924 INTRA-LIGAND FREE ENERGY PREDICTED BY IDOCK:   -0.53 KCAL/MOL
REMARK 927      BINDING AFFINITY PREDICTED BY RF-SCORE:    0.00 PKD
ROOT
HETATM    1  O   UNL     1      -6.222  16.101  67.822  1.00  0.00    -0.114 OA 
HETATM    2  C   UNL     1      -7.072  15.078  67.523  1.00  0.00    -0.197 A  
HETATM    3  H   UNL     1      -6.451  17.006  67.648  1.00  0.00     0.000 HD 
HETATM    4  C   UNL     1      -6.736  13.756  67.778  1.00  0.00    -0.180 A  
HETATM    5  C   UNL     1      -7.615  12.735  67.398  1.00  0.00    -0.152 A  
HETATM    6  C   UNL     1      -8.847  13.019  66.777  1.00  0.00    -0.144 A  
HETATM    7  C   UNL     1      -9.165  14.372  66.560  1.00  0.00    -0.269 A  
HETATM    8  C   UNL     1      -8.286  15.394  66.932  1.00  0.00    -0.281 A  
ENDROOT
BRANCH   6   9
HETATM    9  C   UNL     1      -9.750  11.906  66.220  1.00  0.00    -0.247 C  
HETATM   10  C   UNL     1     -11.278  12.201  66.134  1.00  0.00    -0.338 C  
HETATM   11  N   UNL     1     -11.960  12.609  67.368  1.00  0.00    -0.442 NA 
HETATM   12  C   UNL     1     -12.030  11.543  68.368  1.00  0.00    -0.198 C  
HETATM   13  H   UNL     1     -12.890  12.975  67.164  1.00  0.00     0.000 HD 
HETATM   14  C   UNL     1     -10.672  11.152  68.968  1.00  0.00    -0.265 C  
HETATM   15  C   UNL     1      -9.929  10.144  68.114  1.00  0.00    -0.170 A  
HETATM   16  C   UNL     1      -9.640   8.841  68.576  1.00  0.00    -0.150 A  
HETATM   17  C   UNL     1      -9.009   7.914  67.736  1.00  0.00    -0.128 A  
HETATM   18 CL   UNL     1     -10.046   8.309  70.176  1.00  0.00    -0.188 Cl 
HETATM   19  C   UNL     1      -8.653   8.270  66.446  1.00  0.00    -0.133 A  
HETATM   20  O   UNL     1      -8.718   6.632  68.131  1.00  0.00    -0.119 OA 
HETATM   21  H   UNL     1      -8.290   6.003  67.562  1.00  0.00     0.000 HD 
HETATM   22  O   UNL     1      -8.066   7.357  65.618  1.00  0.00    -0.114 OA 
HETATM   23  C   UNL     1      -8.890   9.550  65.977  1.00  0.00    -0.183 A  
HETATM   24  H   UNL     1      -7.821   7.601  64.732  1.00  0.00     0.000 HD 
HETATM   25  C   UNL     1      -9.521  10.506  66.801  1.00  0.00    -0.190 A  
ENDBRANCH   6   9
TORSDOF 1
ENDMDL
MODEL      119
REMARK 921   NORMALIZED FREE ENERGY PREDICTED BY IDOCK:   -4.16 KCAL/MOL
REMARK 922        TOTAL FREE ENERGY PREDICTED BY IDOCK:   -4.72 KCAL/MOL
REMARK 923 INTER-LIGAND FREE ENERGY PREDICTED BY IDOCK:   -4.21 KCAL/MOL
REMARK 924 INTRA-LIGAND FREE ENERGY PREDICTED BY IDOCK:   -0.51 KCAL/MOL
REMARK 927      BINDING AFFINITY PREDICTED BY RF-SCORE:    0.00 PKD
ROOT
HETATM    1  O   UNL     1      -5.136   7.197  70.844  1.00  0.00    -0.023 OA 
HETATM    2  C   UNL     1      -6.339   7.633  70.372  1.00  0.00    -0.038 A  
HETATM    3  H   UNL     1      -4.617   6.559  70.369  1.00  0.00     0.000 HD 
HETATM    4  C   UNL     1      -7.098   8.565  71.065  1.00  0.00    -0.068 A  
HETATM    5  C   UNL     1      -8.353   8.937  70.572  1.00  0.00    -0.177 A  
HETATM    6  C   UNL     1      -8.861   8.400  69.374  1.00  0.00    -0.142 A  
HETATM    7  C   UNL     1      -8.052   7.478  68.684  1.00  0.00    -0.124 A  
HETATM    8  C   UNL     1      -6.800   7.099  69.178  1.00  0.00    -0.061 A  
ENDROOT
BRANCH   6   9
HETATM    9  C   UNL     1     -10.297   8.684  68.901  1.00  0.00    -0.228 C  
HETATM   10  C   UNL     1     -10.603   8.491  67.386  1.00  0.00    -0.234 C  
HETATM   11  N   UNL     1      -9.775   9.233  66.427  1.00  0.00    -0.236 NA 
HETATM   12  C   UNL     1      -9.988  10.680  66.481  1.00  0.00    -0.215 C  
HETATM   13  H   UNL     1      -9.913   8.882  65.480  1.00  0.00     0.000 HD 
HETATM   14  C   UNL     1      -9.500  11.342  67.776  1.00  0.00    -0.167 C  
HETATM   15  C   UNL     1     -10.526  11.267  68.890  1.00  0.00    -0.232 A  
HETATM   16  C   UNL     1     -11.126  12.423  69.434  1.00  0.00    -0.084 A  
HETATM   17  C   UNL     1     -12.118  12.313  70.417  1.00  0.00    -0.300 A  
HETATM   18 CL   UNL     1     -10.689  14.024  68.928  1.00  0.00    -0.263 Cl 
HETATM   19  C   UNL     1     -12.515  11.066  70.872  1.00  0.00    -0.410 A  
HETATM   20  O   UNL     1     -12.741  13.404  70.969  1.00  0.00    -0.342 OA 
HETATM   21  H   UNL     1     -13.414  13.329  71.636  1.00  0.00     0.000 HD 
HETATM   22  O   UNL     1     -13.503  10.958  71.807  1.00  0.00    -0.317 OA 
HETATM   23  C   UNL     1     -11.920   9.916  70.383  1.00  0.00    -0.271 A  
HETATM   24  H   UNL     1     -13.775  10.102  72.119  1.00  0.00     0.000 HD 
HETATM   25  C   UNL     1     -10.916   9.996  69.395  1.00  0.00    -0.280 A  
ENDBRANCH   6   9
TORSDOF 1
ENDMDL
MODEL      120
REMARK 921   NORMALIZED FREE ENERGY PREDICTED BY IDOCK:   -4.12 KCAL/MOL
REMARK 922        TOTAL FREE ENERGY PREDICTED BY IDOCK:   -4.68 KCAL/MOL
REMARK 923 INTER-LIGAND FREE ENERGY PREDICTED BY IDOCK:   -4.33 KCAL/MOL
REMARK 924 INTRA-LIGAND FREE ENERGY PREDICTED BY IDOCK:   -0.35 KCAL/MOL
REMARK 927      BINDING AFFINITY PREDICTED BY RF-SCORE:    0.00 PKD
ROOT
HETATM    1  O   UNL     1     -14.408   8.722  71.162  1.00  0.00    -0.574 OA 
HETATM    2  C   UNL     1     -13.191   8.284  71.592  1.00  0.00    -0.328 A  
HETATM    3  H   UNL     1     -15.102   8.115  70.931  1.00  0.00     0.000 HD 
HETATM    4  C   UNL     1     -12.177   9.170  71.929  1.00  0.00    -0.449 A  
HETATM    5  C   UNL     1     -10.925   8.674  72.307  1.00  0.00    -0.392 A  
HETATM    6  C   UNL     1     -10.671   7.291  72.373  1.00  0.00    -0.283 A  
HETATM    7  C   UNL     1     -11.731   6.423  72.052  1.00  0.00    -0.376 A  
HETATM    8  C   UNL     1     -12.982   6.915  71.666  1.00  0.00    -0.359 A  
ENDROOT
BRANCH   6   9
HETATM    9  C   UNL     1      -9.262   6.736  72.640  1.00  0.00    -0.151 C  
HETATM   10  C   UNL     1      -8.141   7.764  72.980  1.00  0.00    -0.130 C  
HETATM   11  N   UNL     1      -7.904   8.851  72.022  1.00  0.00    -0.354 NA 
HETATM   12  C   UNL     1      -7.355   8.387  70.748  1.00  0.00    -0.060 C  
HETATM   13  H   UNL     1      -7.311   9.572  72.432  1.00  0.00     0.000 HD 
HETATM   14  C   UNL     1      -8.327   7.544  69.912  1.00  0.00    -0.133 C  
HETATM   15  C   UNL     1      -8.321   6.081  70.314  1.00  0.00    -0.124 A  
HETATM   16  C   UNL     1      -7.893   5.065  69.432  1.00  0.00    -0.075 A  
HETATM   17  C   UNL     1      -7.840   3.732  69.859  1.00  0.00    -0.051 A  
HETATM   18 CL   UNL     1      -7.408   5.392  67.800  1.00  0.00    -0.072 Cl 
HETATM   19  C   UNL     1      -8.216   3.396  71.149  1.00  0.00    -0.066 A  
HETATM   20  O   UNL     1      -7.419   2.708  69.047  1.00  0.00    -0.044 OA 
HETATM   21  H   UNL     1      -7.383   1.804  69.336  1.00  0.00     0.000 HD 
HETATM   22  O   UNL     1      -8.134   2.101  71.574  1.00  0.00    -0.046 OA 
HETATM   23  C   UNL     1      -8.673   4.365  72.024  1.00  0.00    -0.125 A  
HETATM   24  H   UNL     1      -8.393   1.870  72.459  1.00  0.00     0.000 HD 
HETATM   25  C   UNL     1      -8.741   5.715  71.622  1.00  0.00    -0.136 A  
ENDBRANCH   6   9
TORSDOF 1
ENDMDL
MODEL      121
REMARK 921   NORMALIZED FREE ENERGY PREDICTED BY IDOCK:   -4.09 KCAL/MOL
REMARK 922        TOTAL FREE ENERGY PREDICTED BY IDOCK:   -4.65 KCAL/MOL
REMARK 923 INTER-LIGAND FREE ENERGY PREDICTED BY IDOCK:   -4.52 KCAL/MOL
REMARK 924 INTRA-LIGAND FREE ENERGY PREDICTED BY IDOCK:   -0.13 KCAL/MOL
REMARK 927      BINDING AFFINITY PREDICTED BY RF-SCORE:    0.00 PKD
ROOT
HETATM    1  O   UNL     1     -12.766  14.072  62.801  1.00  0.00    -0.631 OA 
HETATM    2  C   UNL     1     -12.202  13.425  63.860  1.00  0.00    -0.415 A  
HETATM    3  H   UNL     1     -13.369  14.796  62.924  1.00  0.00     0.000 HD 
HETATM    4  C   UNL     1     -11.321  12.368  63.681  1.00  0.00    -0.556 A  
HETATM    5  C   UNL     1     -10.814  11.695  64.798  1.00  0.00    -0.367 A  
HETATM    6  C   UNL     1     -11.163  12.076  66.107  1.00  0.00    -0.394 A  
HETATM    7  C   UNL     1     -12.037  13.170  66.251  1.00  0.00    -0.460 A  
HETATM    8  C   UNL     1     -12.551  13.841  65.136  1.00  0.00    -0.471 A  
ENDROOT
BRANCH   6   9
HETATM    9  C   UNL     1     -10.735  11.254  67.334  1.00  0.00    -0.285 C  
HETATM   10  C   UNL     1     -11.588  11.404  68.629  1.00  0.00    -0.320 C  
HETATM   11  N   UNL     1     -11.766  12.757  69.171  1.00  0.00    -0.309 NA 
HETATM   12  C   UNL     1     -10.527  13.337  69.691  1.00  0.00     0.659 C  
HETATM   13  H   UNL     1     -12.498  12.770  69.880  1.00  0.00     0.000 HD 
HETATM   14  C   UNL     1      -9.477  13.649  68.617  1.00  0.00    -0.077 C  
HETATM   15  C   UNL     1      -8.628  12.443  68.267  1.00  0.00    -0.172 A  
HETATM   16  C   UNL     1      -7.239  12.407  68.518  1.00  0.00    -0.103 A  
HETATM   17  C   UNL     1      -6.497  11.251  68.241  1.00  0.00    -0.056 A  
HETATM   18 CL   UNL     1      -6.377  13.759  69.179  1.00  0.00    -0.099 Cl 
HETATM   19  C   UNL     1      -7.118  10.133  67.709  1.00  0.00    -0.086 A  
HETATM   20  O   UNL     1      -5.148  11.160  68.479  1.00  0.00    -0.041 OA 
HETATM   21  H   UNL     1      -4.645  10.376  68.291  1.00  0.00     0.000 HD 
HETATM   22  O   UNL     1      -6.401   8.997  67.468  1.00  0.00    -0.061 OA 
HETATM   23  C   UNL     1      -8.471  10.150  67.419  1.00  0.00    -0.122 A  
HETATM   24  H   UNL     1      -6.827   8.230  67.103  1.00  0.00     0.000 HD 
HETATM   25  C   UNL     1      -9.243  11.301  67.683  1.00  0.00    -0.156 A  
ENDBRANCH   6   9
TORSDOF 1
ENDMDL
MODEL      122
REMARK 921   NORMALIZED FREE ENERGY PREDICTED BY IDOCK:   -4.08 KCAL/MOL
REMARK 922        TOTAL FREE ENERGY PREDICTED BY IDOCK:   -4.64 KCAL/MOL
REMARK 923 INTER-LIGAND FREE ENERGY PREDICTED BY IDOCK:   -4.26 KCAL/MOL
REMARK 924 INTRA-LIGAND FREE ENERGY PREDICTED BY IDOCK:   -0.39 KCAL/MOL
REMARK 927      BINDING AFFINITY PREDICTED BY RF-SCORE:    0.00 PKD
ROOT
HETATM    1  O   UNL     1      -9.618   6.230  73.346  1.00  0.00    -0.145 OA 
HETATM    2  C   UNL     1      -9.778   6.469  72.014  1.00  0.00    -0.149 A  
HETATM    3  H   UNL     1      -9.689   5.353  73.707  1.00  0.00     0.000 HD 
HETATM    4  C   UNL     1      -9.675   7.748  71.487  1.00  0.00    -0.195 A  
HETATM    5  C   UNL     1      -9.907   7.954  70.123  1.00  0.00    -0.184 A  
HETATM    6  C   UNL     1     -10.226   6.887  69.262  1.00  0.00    -0.197 A  
HETATM    7  C   UNL     1     -10.295   5.600  69.827  1.00  0.00    -0.352 A  
HETATM    8  C   UNL     1     -10.070   5.391  71.191  1.00  0.00    -0.276 A  
ENDROOT
BRANCH   6   9
HETATM    9  C   UNL     1     -10.630   7.118  67.797  1.00  0.00    -0.293 C  
HETATM   10  C   UNL     1     -10.904   5.858  66.922  1.00  0.00    -0.296 C  
HETATM   11  N   UNL     1      -9.838   4.853  66.827  1.00  0.00    -0.179 NA 
HETATM   12  C   UNL     1      -8.658   5.331  66.106  1.00  0.00    -0.120 C  
HETATM   13  H   UNL     1     -10.190   3.989  66.416  1.00  0.00     0.000 HD 
HETATM   14  C   UNL     1      -7.878   6.434  66.833  1.00  0.00    -0.104 C  
HETATM   15  C   UNL     1      -8.450   7.815  66.577  1.00  0.00    -0.132 A  
HETATM   16  C   UNL     1      -7.719   8.814  65.897  1.00  0.00    -0.094 A  
HETATM   17  C   UNL     1      -8.303  10.057  65.621  1.00  0.00    -0.145 A  
HETATM   18 CL   UNL     1      -6.087   8.571  65.364  1.00  0.00    -0.048 Cl 
HETATM   19  C   UNL     1      -9.602  10.322  66.021  1.00  0.00    -0.206 A  
HETATM   20  O   UNL     1      -7.641  11.056  64.953  1.00  0.00    -0.332 OA 
HETATM   21  H   UNL     1      -8.036  11.900  64.766  1.00  0.00     0.000 HD 
HETATM   22  O   UNL     1     -10.181  11.522  65.725  1.00  0.00    -0.231 OA 
HETATM   23  C   UNL     1     -10.331   9.377  66.720  1.00  0.00    -0.303 A  
HETATM   24  H   UNL     1     -11.073  11.705  65.999  1.00  0.00     0.000 HD 
HETATM   25  C   UNL     1      -9.769   8.117  67.016  1.00  0.00    -0.275 A  
ENDBRANCH   6   9
TORSDOF 1
ENDMDL
MODEL      123
REMARK 921   NORMALIZED FREE ENERGY PREDICTED BY IDOCK:   -4.08 KCAL/MOL
REMARK 922        TOTAL FREE ENERGY PREDICTED BY IDOCK:   -4.64 KCAL/MOL
REMARK 923 INTER-LIGAND FREE ENERGY PREDICTED BY IDOCK:   -4.12 KCAL/MOL
REMARK 924 INTRA-LIGAND FREE ENERGY PREDICTED BY IDOCK:   -0.52 KCAL/MOL
REMARK 927      BINDING AFFINITY PREDICTED BY RF-SCORE:    0.00 PKD
ROOT
HETATM    1  O   UNL     1      -6.162   7.828  74.052  1.00  0.00    -0.078 OA 
HETATM    2  C   UNL     1      -7.015   8.178  73.048  1.00  0.00    -0.105 A  
HETATM    3  H   UNL     1      -6.480   7.460  74.869  1.00  0.00     0.000 HD 
HETATM    4  C   UNL     1      -6.551   8.717  71.856  1.00  0.00    -0.079 A  
HETATM    5  C   UNL     1      -7.467   9.117  70.876  1.00  0.00    -0.136 A  
HETATM    6  C   UNL     1      -8.855   8.969  71.064  1.00  0.00    -0.291 A  
HETATM    7  C   UNL     1      -9.286   8.394  72.273  1.00  0.00    -0.356 A  
HETATM    8  C   UNL     1      -8.374   7.999  73.257  1.00  0.00    -0.269 A  
ENDROOT
BRANCH   6   9
HETATM    9  C   UNL     1      -9.874   9.541  70.065  1.00  0.00    -0.269 C  
HETATM   10  C   UNL     1     -11.283   8.877  70.020  1.00  0.00    -0.110 C  
HETATM   11  N   UNL     1     -11.343   7.430  69.778  1.00  0.00    -0.469 NA 
HETATM   12  C   UNL     1     -10.912   7.052  68.431  1.00  0.00    -0.076 C  
HETATM   13  H   UNL     1     -12.275   7.068  69.976  1.00  0.00     0.000 HD 
HETATM   14  C   UNL     1      -9.418   7.275  68.161  1.00  0.00    -0.134 C  
HETATM   15  C   UNL     1      -9.111   8.697  67.734  1.00  0.00    -0.143 A  
HETATM   16  C   UNL     1      -8.600   9.001  66.453  1.00  0.00    -0.125 A  
HETATM   17  C   UNL     1      -8.389  10.331  66.071  1.00  0.00    -0.142 A  
HETATM   18 CL   UNL     1      -8.214   7.773  65.291  1.00  0.00    -0.139 Cl 
HETATM   19  C   UNL     1      -8.671  11.365  66.949  1.00  0.00    -0.165 A  
HETATM   20  O   UNL     1      -7.906  10.681  64.834  1.00  0.00    -0.312 OA 
HETATM   21  H   UNL     1      -7.763  11.584  64.574  1.00  0.00     0.000 HD 
HETATM   22  O   UNL     1      -8.494  12.662  66.565  1.00  0.00    -0.408 OA 
HETATM   23  C   UNL     1      -9.139  11.097  68.224  1.00  0.00    -0.162 A  
HETATM   24  H   UNL     1      -8.688  13.371  67.168  1.00  0.00     0.000 HD 
HETATM   25  C   UNL     1      -9.359   9.766  68.639  1.00  0.00    -0.147 A  
ENDBRANCH   6   9
TORSDOF 1
ENDMDL
MODEL      124
REMARK 921   NORMALIZED FREE ENERGY PREDICTED BY IDOCK:   -4.03 KCAL/MOL
REMARK 922        TOTAL FREE ENERGY PREDICTED BY IDOCK:   -4.59 KCAL/MOL
REMARK 923 INTER-LIGAND FREE ENERGY PREDICTED BY IDOCK:   -4.28 KCAL/MOL
REMARK 924 INTRA-LIGAND FREE ENERGY PREDICTED BY IDOCK:   -0.31 KCAL/MOL
REMARK 927      BINDING AFFINITY PREDICTED BY RF-SCORE:    0.00 PKD
ROOT
HETATM    1  O   UNL     1     -12.536  15.197  68.460  1.00  0.00    -0.525 OA 
HETATM    2  C   UNL     1     -11.709  14.114  68.507  1.00  0.00    -0.345 A  
HETATM    3  H   UNL     1     -12.400  15.900  67.835  1.00  0.00     0.000 HD 
HETATM    4  C   UNL     1     -11.906  13.088  69.420  1.00  0.00    -0.380 A  
HETATM    5  C   UNL     1     -10.996  12.026  69.472  1.00  0.00    -0.056 A  
HETATM    6  C   UNL     1      -9.889  11.964  68.605  1.00  0.00    -0.139 A  
HETATM    7  C   UNL     1      -9.737  13.008  67.674  1.00  0.00    -0.212 A  
HETATM    8  C   UNL     1     -10.640  14.074  67.624  1.00  0.00    -0.249 A  
ENDROOT
BRANCH   6   9
HETATM    9  C   UNL     1      -8.802  10.886  68.752  1.00  0.00    -0.162 C  
HETATM   10  C   UNL     1      -7.547  11.004  67.836  1.00  0.00    -0.095 C  
HETATM   11  N   UNL     1      -7.770  11.069  66.386  1.00  0.00    -0.157 NA 
HETATM   12  C   UNL     1      -8.294   9.822  65.827  1.00  0.00    -0.129 C  
HETATM   13  H   UNL     1      -6.919  11.354  65.901  1.00  0.00     0.000 HD 
HETATM   14  C   UNL     1      -9.724   9.485  66.270  1.00  0.00    -0.310 C  
HETATM   15  C   UNL     1      -9.765   8.768  67.606  1.00  0.00    -0.210 A  
HETATM   16  C   UNL     1     -10.238   7.443  67.729  1.00  0.00    -0.196 A  
HETATM   17  C   UNL     1     -10.200   6.789  68.967  1.00  0.00    -0.178 A  
HETATM   18 CL   UNL     1     -10.877   6.554  66.384  1.00  0.00    -0.014 Cl 
HETATM   19  C   UNL     1      -9.706   7.439  70.086  1.00  0.00    -0.175 A  
HETATM   20  O   UNL     1     -10.635   5.498  69.138  1.00  0.00    -0.255 OA 
HETATM   21  H   UNL     1     -10.610   5.054  69.978  1.00  0.00     0.000 HD 
HETATM   22  O   UNL     1      -9.641   6.790  71.285  1.00  0.00    -0.169 OA 
HETATM   23  C   UNL     1      -9.269   8.749  70.004  1.00  0.00    -0.173 A  
HETATM   24  H   UNL     1      -9.303   7.236  72.053  1.00  0.00     0.000 HD 
HETATM   25  C   UNL     1      -9.298   9.435  68.771  1.00  0.00    -0.146 A  
ENDBRANCH   6   9
TORSDOF 1
ENDMDL
MODEL      125
REMARK 921   NORMALIZED FREE ENERGY PREDICTED BY IDOCK:   -4.03 KCAL/MOL
REMARK 922        TOTAL FREE ENERGY PREDICTED BY IDOCK:   -4.59 KCAL/MOL
REMARK 923 INTER-LIGAND FREE ENERGY PREDICTED BY IDOCK:   -4.07 KCAL/MOL
REMARK 924 INTRA-LIGAND FREE ENERGY PREDICTED BY IDOCK:   -0.52 KCAL/MOL
REMARK 927      BINDING AFFINITY PREDICTED BY RF-SCORE:    0.00 PKD
ROOT
HETATM    1  O   UNL     1      -6.951  13.229  67.011  1.00  0.00    -0.401 OA 
HETATM    2  C   UNL     1      -7.121  12.018  67.612  1.00  0.00    -0.118 A  
HETATM    3  H   UNL     1      -6.317  13.355  66.315  1.00  0.00     0.000 HD 
HETATM    4  C   UNL     1      -8.047  11.834  68.630  1.00  0.00    -0.104 A  
HETATM    5  C   UNL     1      -8.144  10.588  69.259  1.00  0.00    -0.152 A  
HETATM    6  C   UNL     1      -7.333   9.504  68.871  1.00  0.00    -0.073 A  
HETATM    7  C   UNL     1      -6.426   9.720  67.817  1.00  0.00    -0.057 A  
HETATM    8  C   UNL     1      -6.322  10.966  67.191  1.00  0.00    -0.074 A  
ENDROOT
BRANCH   6   9
HETATM    9  C   UNL     1      -7.323   8.179  69.650  1.00  0.00    -0.073 C  
HETATM   10  C   UNL     1      -7.094   6.870  68.835  1.00  0.00    -0.089 C  
HETATM   11  N   UNL     1      -8.004   6.601  67.716  1.00  0.00    -0.111 NA 
HETATM   12  C   UNL     1      -9.375   6.319  68.143  1.00  0.00    -0.115 C  
HETATM   13  H   UNL     1      -7.645   5.847  67.130  1.00  0.00     0.000 HD 
HETATM   14  C   UNL     1     -10.105   7.523  68.755  1.00  0.00    -0.191 C  
HETATM   15  C   UNL     1      -9.804   7.695  70.232  1.00  0.00    -0.180 A  
HETATM   16  C   UNL     1     -10.804   7.564  71.220  1.00  0.00    -0.235 A  
HETATM   17  C   UNL     1     -10.478   7.666  72.578  1.00  0.00    -0.268 A  
HETATM   18 CL   UNL     1     -12.467   7.270  70.826  1.00  0.00    -0.248 Cl 
HETATM   19  C   UNL     1      -9.169   7.904  72.966  1.00  0.00    -0.254 A  
HETATM   20  O   UNL     1     -11.409   7.534  73.577  1.00  0.00    -0.620 OA 
HETATM   21  H   UNL     1     -11.188   7.603  74.499  1.00  0.00     0.000 HD 
HETATM   22  O   UNL     1      -8.846   7.972  74.290  1.00  0.00    -0.413 OA 
HETATM   23  C   UNL     1      -8.173   8.071  72.020  1.00  0.00    -0.174 A  
HETATM   24  H   UNL     1      -7.949   8.135  74.557  1.00  0.00     0.000 HD 
HETATM   25  C   UNL     1      -8.473   7.978  70.644  1.00  0.00    -0.125 A  
ENDBRANCH   6   9
TORSDOF 1
ENDMDL
MODEL      126
REMARK 921   NORMALIZED FREE ENERGY PREDICTED BY IDOCK:   -4.01 KCAL/MOL
REMARK 922        TOTAL FREE ENERGY PREDICTED BY IDOCK:   -4.57 KCAL/MOL
REMARK 923 INTER-LIGAND FREE ENERGY PREDICTED BY IDOCK:   -4.06 KCAL/MOL
REMARK 924 INTRA-LIGAND FREE ENERGY PREDICTED BY IDOCK:   -0.51 KCAL/MOL
REMARK 927      BINDING AFFINITY PREDICTED BY RF-SCORE:    0.00 PKD
ROOT
HETATM    1  O   UNL     1     -12.756  14.382  67.280  1.00  0.00    -0.437 OA 
HETATM    2  C   UNL     1     -11.840  13.379  67.390  1.00  0.00    -0.375 A  
HETATM    3  H   UNL     1     -12.985  14.930  68.021  1.00  0.00     0.000 HD 
HETATM    4  C   UNL     1     -11.506  12.578  66.307  1.00  0.00    -0.421 A  
HETATM    5  C   UNL     1     -10.605  11.521  66.482  1.00  0.00    -0.301 A  
HETATM    6  C   UNL     1     -10.013  11.260  67.732  1.00  0.00    -0.193 A  
HETATM    7  C   UNL     1     -10.355  12.109  68.800  1.00  0.00    -0.168 A  
HETATM    8  C   UNL     1     -11.259  13.162  68.630  1.00  0.00    -0.314 A  
ENDROOT
BRANCH   6   9
HETATM    9  C   UNL     1      -9.142  10.015  67.973  1.00  0.00    -0.132 C  
HETATM   10  C   UNL     1      -8.145  10.060  69.170  1.00  0.00    -0.126 C  
HETATM   11  N   UNL     1      -7.179  11.165  69.206  1.00  0.00    -0.170 NA 
HETATM   12  C   UNL     1      -6.185  11.097  68.135  1.00  0.00    -0.049 C  
HETATM   13  H   UNL     1      -6.726  11.220  70.118  1.00  0.00     0.000 HD 
HETATM   14  C   UNL     1      -6.755  11.330  66.729  1.00  0.00    -0.140 C  
HETATM   15  C   UNL     1      -7.329  10.066  66.119  1.00  0.00    -0.109 A  
HETATM   16  C   UNL     1      -6.778   9.478  64.960  1.00  0.00    -0.089 A  
HETATM   17  C   UNL     1      -7.293   8.275  64.461  1.00  0.00    -0.091 A  
HETATM   18 CL   UNL     1      -5.450  10.187  64.098  1.00  0.00    -0.106 Cl 
HETATM   19  C   UNL     1      -8.356   7.653  65.095  1.00  0.00    -0.093 A  
HETATM   20  O   UNL     1      -6.786   7.655  63.346  1.00  0.00    -0.057 OA 
HETATM   21  H   UNL     1      -7.135   6.839  63.007  1.00  0.00     0.000 HD 
HETATM   22  O   UNL     1      -8.838   6.465  64.627  1.00  0.00    -0.335 OA 
HETATM   23  C   UNL     1      -8.940   8.223  66.212  1.00  0.00    -0.221 A  
HETATM   24  H   UNL     1      -9.567   6.039  65.062  1.00  0.00     0.000 HD 
HETATM   25  C   UNL     1      -8.445   9.437  66.736  1.00  0.00    -0.129 A  
ENDBRANCH   6   9
TORSDOF 1
ENDMDL
MODEL      127
REMARK 921   NORMALIZED FREE ENERGY PREDICTED BY IDOCK:   -4.00 KCAL/MOL
REMARK 922        TOTAL FREE ENERGY PREDICTED BY IDOCK:   -4.55 KCAL/MOL
REMARK 923 INTER-LIGAND FREE ENERGY PREDICTED BY IDOCK:   -4.25 KCAL/MOL
REMARK 924 INTRA-LIGAND FREE ENERGY PREDICTED BY IDOCK:   -0.30 KCAL/MOL
REMARK 927      BINDING AFFINITY PREDICTED BY RF-SCORE:    0.00 PKD
ROOT
HETATM    1  O   UNL     1      -7.159  19.103  65.289  1.00  0.00    -0.467 OA 
HETATM    2  C   UNL     1      -7.406  18.024  66.084  1.00  0.00    -0.282 A  
HETATM    3  H   UNL     1      -6.278  19.323  65.009  1.00  0.00     0.000 HD 
HETATM    4  C   UNL     1      -8.693  17.701  66.493  1.00  0.00    -0.289 A  
HETATM    5  C   UNL     1      -8.892  16.620  67.359  1.00  0.00    -0.198 A  
HETATM    6  C   UNL     1      -7.815  15.835  67.814  1.00  0.00    -0.155 A  
HETATM    7  C   UNL     1      -6.529  16.175  67.356  1.00  0.00    -0.215 A  
HETATM    8  C   UNL     1      -6.325  17.259  66.496  1.00  0.00    -0.263 A  
ENDROOT
BRANCH   6   9
HETATM    9  C   UNL     1      -8.001  14.743  68.880  1.00  0.00    -0.160 C  
HETATM   10  C   UNL     1      -6.715  14.063  69.439  1.00  0.00    -0.107 C  
HETATM   11  N   UNL     1      -5.801  13.443  68.472  1.00  0.00    -0.082 NA 
HETATM   12  C   UNL     1      -6.367  12.265  67.815  1.00  0.00    -0.101 C  
HETATM   13  H   UNL     1      -4.907  13.220  68.910  1.00  0.00     0.000 HD 
HETATM   14  C   UNL     1      -7.537  12.572  66.870  1.00  0.00     0.073 C  
HETATM   15  C   UNL     1      -8.864  12.661  67.598  1.00  0.00    -0.184 A  
HETATM   16  C   UNL     1      -9.914  11.748  67.355  1.00  0.00    -0.184 A  
HETATM   17  C   UNL     1     -11.102  11.820  68.093  1.00  0.00    -0.243 A  
HETATM   18 CL   UNL     1      -9.802  10.499  66.157  1.00  0.00    -0.258 Cl 
HETATM   19  C   UNL     1     -11.264  12.795  69.064  1.00  0.00    -0.264 A  
HETATM   20  O   UNL     1     -12.147  10.950  67.905  1.00  0.00    -0.736 OA 
HETATM   21  H   UNL     1     -12.954  10.999  68.405  1.00  0.00     0.000 HD 
HETATM   22  O   UNL     1     -12.410  12.845  69.803  1.00  0.00    -0.188 OA 
HETATM   23  C   UNL     1     -10.267  13.725  69.300  1.00  0.00     0.167 A  
HETATM   24  H   UNL     1     -12.521  13.514  70.470  1.00  0.00     0.000 HD 
HETATM   25  C   UNL     1      -9.061  13.679  68.570  1.00  0.00    -0.112 A  
ENDBRANCH   6   9
TORSDOF 1
ENDMDL
MODEL      128
REMARK 921   NORMALIZED FREE ENERGY PREDICTED BY IDOCK:   -3.95 KCAL/MOL
REMARK 922        TOTAL FREE ENERGY PREDICTED BY IDOCK:   -4.50 KCAL/MOL
REMARK 923 INTER-LIGAND FREE ENERGY PREDICTED BY IDOCK:   -4.21 KCAL/MOL
REMARK 924 INTRA-LIGAND FREE ENERGY PREDICTED BY IDOCK:   -0.29 KCAL/MOL
REMARK 927      BINDING AFFINITY PREDICTED BY RF-SCORE:    0.00 PKD
ROOT
HETATM    1  O   UNL     1      -5.228  12.483  69.431  1.00  0.00    -0.069 OA 
HETATM    2  C   UNL     1      -6.308  13.279  69.191  1.00  0.00    -0.103 A  
HETATM    3  H   UNL     1      -5.096  11.669  68.960  1.00  0.00     0.000 HD 
HETATM    4  C   UNL     1      -6.502  14.469  69.878  1.00  0.00    -0.161 A  
HETATM    5  C   UNL     1      -7.657  15.223  69.642  1.00  0.00    -0.176 A  
HETATM    6  C   UNL     1      -8.625  14.811  68.707  1.00  0.00    -0.170 A  
HETATM    7  C   UNL     1      -8.382  13.613  68.010  1.00  0.00    -0.170 A  
HETATM    8  C   UNL     1      -7.232  12.854  68.248  1.00  0.00    -0.112 A  
ENDROOT
BRANCH   6   9
HETATM    9  C   UNL     1      -9.965  15.548  68.548  1.00  0.00    -0.208 C  
HETATM   10  C   UNL     1     -11.044  14.884  67.640  1.00  0.00    -0.311 C  
HETATM   11  N   UNL     1     -10.663  14.566  66.258  1.00  0.00    -0.303 NA 
HETATM   12  C   UNL     1     -10.429  15.754  65.436  1.00  0.00    -0.414 C  
HETATM   13  H   UNL     1     -11.354  13.956  65.823  1.00  0.00     0.000 HD 
HETATM   14  C   UNL     1      -9.191  16.566  65.841  1.00  0.00    -0.209 C  
HETATM   15  C   UNL     1      -9.478  17.543  66.965  1.00  0.00    -0.268 A  
HETATM   16  C   UNL     1      -9.385  18.940  66.784  1.00  0.00    -0.322 A  
HETATM   17  C   UNL     1      -9.720  19.814  67.826  1.00  0.00    -0.378 A  
HETATM   18 CL   UNL     1      -8.865  19.653  65.291  1.00  0.00     0.859 Cl 
HETATM   19  C   UNL     1     -10.140  19.315  69.049  1.00  0.00    -0.313 A  
HETATM   20  O   UNL     1      -9.659  21.179  67.699  1.00  0.00    -0.348 OA 
HETATM   21  H   UNL     1      -9.886  21.773  68.406  1.00  0.00     0.000 HD 
HETATM   22  O   UNL     1     -10.496  20.168  70.053  1.00  0.00    -0.673 OA 
HETATM   23  C   UNL     1     -10.207  17.951  69.267  1.00  0.00    -0.078 A  
HETATM   24  H   UNL     1     -10.783  19.826  70.892  1.00  0.00     0.000 HD 
HETATM   25  C   UNL     1      -9.872  17.046  68.237  1.00  0.00    -0.278 A  
ENDBRANCH   6   9
TORSDOF 1
ENDMDL
MODEL      129
REMARK 921   NORMALIZED FREE ENERGY PREDICTED BY IDOCK:   -3.93 KCAL/MOL
REMARK 922        TOTAL FREE ENERGY PREDICTED BY IDOCK:   -4.48 KCAL/MOL
REMARK 923 INTER-LIGAND FREE ENERGY PREDICTED BY IDOCK:   -4.16 KCAL/MOL
REMARK 924 INTRA-LIGAND FREE ENERGY PREDICTED BY IDOCK:   -0.33 KCAL/MOL
REMARK 927      BINDING AFFINITY PREDICTED BY RF-SCORE:    0.00 PKD
ROOT
HETATM    1  O   UNL     1     -10.882   5.823  72.303  1.00  0.00    -0.226 OA 
HETATM    2  C   UNL     1     -10.253   6.578  71.358  1.00  0.00    -0.197 A  
HETATM    3  H   UNL     1     -10.865   6.061  73.222  1.00  0.00     0.000 HD 
HETATM    4  C   UNL     1     -10.277   6.230  70.015  1.00  0.00    -0.237 A  
HETATM    5  C   UNL     1      -9.566   7.001  69.089  1.00  0.00    -0.149 A  
HETATM    6  C   UNL     1      -8.836   8.139  69.486  1.00  0.00    -0.143 A  
HETATM    7  C   UNL     1      -8.858   8.476  70.852  1.00  0.00    -0.203 A  
HETATM    8  C   UNL     1      -9.562   7.704  71.781  1.00  0.00    -0.183 A  
ENDROOT
BRANCH   6   9
HETATM    9  C   UNL     1      -7.931   8.904  68.507  1.00  0.00    -0.104 C  
HETATM   10  C   UNL     1      -7.077  10.072  69.086  1.00  0.00    -0.069 C  
HETATM   11  N   UNL     1      -7.786  11.140  69.802  1.00  0.00    -0.307 NA 
HETATM   12  C   UNL     1      -8.644  11.946  68.933  1.00  0.00     0.159 C  
HETATM   13  H   UNL     1      -7.130  11.731  70.313  1.00  0.00     0.000 HD 
HETATM   14  C   UNL     1      -9.857  11.194  68.371  1.00  0.00    -0.188 C  
HETATM   15  C   UNL     1      -9.524  10.407  67.118  1.00  0.00    -0.183 A  
HETATM   16  C   UNL     1     -10.104  10.712  65.867  1.00  0.00    -0.261 A  
HETATM   17  C   UNL     1      -9.724  10.007  64.719  1.00  0.00    -0.293 A  
HETATM   18 CL   UNL     1     -11.295  11.957  65.672  1.00  0.00    -0.365 Cl 
HETATM   19  C   UNL     1      -8.780   8.995  64.800  1.00  0.00    -0.153 A  
HETATM   20  O   UNL     1     -10.247  10.271  63.477  1.00  0.00    -0.470 OA 
HETATM   21  H   UNL     1      -9.990   9.793  62.698  1.00  0.00     0.000 HD 
HETATM   22  O   UNL     1      -8.388   8.329  63.675  1.00  0.00    -0.332 OA 
HETATM   23  C   UNL     1      -8.221   8.650  66.017  1.00  0.00    -0.127 A  
HETATM   24  H   UNL     1      -7.741   7.635  63.730  1.00  0.00     0.000 HD 
HETATM   25  C   UNL     1      -8.586   9.341  67.192  1.00  0.00    -0.130 A  
ENDBRANCH   6   9
TORSDOF 1
ENDMDL
MODEL      130
REMARK 921   NORMALIZED FREE ENERGY PREDICTED BY IDOCK:   -3.91 KCAL/MOL
REMARK 922        TOTAL FREE ENERGY PREDICTED BY IDOCK:   -4.46 KCAL/MOL
REMARK 923 INTER-LIGAND FREE ENERGY PREDICTED BY IDOCK:   -4.54 KCAL/MOL
REMARK 924 INTRA-LIGAND FREE ENERGY PREDICTED BY IDOCK:    0.08 KCAL/MOL
REMARK 927      BINDING AFFINITY PREDICTED BY RF-SCORE:    0.00 PKD
ROOT
HETATM    1  O   UNL     1      -7.366   4.787  66.270  1.00  0.00    -0.075 OA 
HETATM    2  C   UNL     1      -7.564   5.826  67.129  1.00  0.00    -0.099 A  
HETATM    3  H   UNL     1      -7.200   4.930  65.345  1.00  0.00     0.000 HD 
HETATM    4  C   UNL     1      -7.806   5.617  68.480  1.00  0.00    -0.096 A  
HETATM    5  C   UNL     1      -8.064   6.711  69.313  1.00  0.00    -0.116 A  
HETATM    6  C   UNL     1      -8.066   8.029  68.816  1.00  0.00    -0.125 A  
HETATM    7  C   UNL     1      -7.789   8.204  67.447  1.00  0.00    -0.106 A  
HETATM    8  C   UNL     1      -7.538   7.112  66.611  1.00  0.00    -0.093 A  
ENDROOT
BRANCH   6   9
HETATM    9  C   UNL     1      -8.495   9.223  69.684  1.00  0.00    -0.140 C  
HETATM   10  C   UNL     1      -7.372  10.011  70.423  1.00  0.00    -0.080 C  
HETATM   11  N   UNL     1      -6.478   9.251  71.305  1.00  0.00    -0.149 NA 
HETATM   12  C   UNL     1      -7.152   8.724  72.493  1.00  0.00     0.109 C  
HETATM   13  H   UNL     1      -5.666   9.809  71.567  1.00  0.00     0.000 HD 
HETATM   14  C   UNL     1      -8.182   7.626  72.198  1.00  0.00    -0.127 C  
HETATM   15  C   UNL     1      -9.539   8.189  71.821  1.00  0.00    -0.249 A  
HETATM   16  C   UNL     1     -10.685   7.978  72.619  1.00  0.00    -0.358 A  
HETATM   17  C   UNL     1     -11.908   8.567  72.274  1.00  0.00    -0.383 A  
HETATM   18 CL   UNL     1     -10.654   7.002  74.052  1.00  0.00    -0.275 Cl 
HETATM   19  C   UNL     1     -12.008   9.356  71.139  1.00  0.00    -0.337 A  
HETATM   20  O   UNL     1     -13.048   8.404  73.021  1.00  0.00    -0.672 OA 
HETATM   21  H   UNL     1     -13.878   8.804  72.787  1.00  0.00     0.000 HD 
HETATM   22  O   UNL     1     -13.192   9.955  70.821  1.00  0.00    -0.570 OA 
HETATM   23  C   UNL     1     -10.911   9.552  70.319  1.00  0.00    -0.317 A  
HETATM   24  H   UNL     1     -13.261  10.497  70.042  1.00  0.00     0.000 HD 
HETATM   25  C   UNL     1      -9.667   8.969  70.639  1.00  0.00    -0.287 A  
ENDBRANCH   6   9
TORSDOF 1
ENDMDL
MODEL      131
REMARK 921   NORMALIZED FREE ENERGY PREDICTED BY IDOCK:   -3.88 KCAL/MOL
REMARK 922        TOTAL FREE ENERGY PREDICTED BY IDOCK:   -4.43 KCAL/MOL
REMARK 923 INTER-LIGAND FREE ENERGY PREDICTED BY IDOCK:   -4.01 KCAL/MOL
REMARK 924 INTRA-LIGAND FREE ENERGY PREDICTED BY IDOCK:   -0.42 KCAL/MOL
REMARK 927      BINDING AFFINITY PREDICTED BY RF-SCORE:    0.00 PKD
ROOT
HETATM    1  O   UNL     1      -9.879   4.729  64.296  1.00  0.00    -0.360 OA 
HETATM    2  C   UNL     1      -9.621   5.486  65.400  1.00  0.00     0.203 A  
HETATM    3  H   UNL     1      -9.183   4.429  63.724  1.00  0.00     0.000 HD 
HETATM    4  C   UNL     1     -10.638   5.924  66.236  1.00  0.00    -0.071 A  
HETATM    5  C   UNL     1     -10.331   6.749  67.323  1.00  0.00    -0.311 A  
HETATM    6  C   UNL     1      -9.006   7.134  67.603  1.00  0.00    -0.125 A  
HETATM    7  C   UNL     1      -7.998   6.648  66.750  1.00  0.00    -0.108 A  
HETATM    8  C   UNL     1      -8.302   5.829  65.658  1.00  0.00    -0.138 A  
ENDROOT
BRANCH   6   9
HETATM    9  C   UNL     1      -8.673   8.159  68.700  1.00  0.00    -0.134 C  
HETATM   10  C   UNL     1      -7.496   7.819  69.663  1.00  0.00    -0.090 C  
HETATM   11  N   UNL     1      -7.563   6.547  70.393  1.00  0.00    -0.094 NA 
HETATM   12  C   UNL     1      -8.638   6.508  71.386  1.00  0.00    -0.126 C  
HETATM   13  H   UNL     1      -6.665   6.327  70.822  1.00  0.00     0.000 HD 
HETATM   14  C   UNL     1     -10.050   6.511  70.787  1.00  0.00    -0.211 C  
HETATM   15  C   UNL     1     -10.547   7.910  70.475  1.00  0.00    -0.223 A  
HETATM   16  C   UNL     1     -11.659   8.474  71.137  1.00  0.00    -0.281 A  
HETATM   17  C   UNL     1     -12.050   9.792  70.870  1.00  0.00    -0.321 A  
HETATM   18 CL   UNL     1     -12.593   7.593  72.303  1.00  0.00    -0.202 Cl 
HETATM   19  C   UNL     1     -11.353  10.554  69.947  1.00  0.00    -0.309 A  
HETATM   20  O   UNL     1     -13.115  10.392  71.494  1.00  0.00    -0.390 OA 
HETATM   21  H   UNL     1     -13.381  11.286  71.313  1.00  0.00     0.000 HD 
HETATM   22  O   UNL     1     -11.715  11.849  69.710  1.00  0.00    -0.308 OA 
HETATM   23  C   UNL     1     -10.280  10.018  69.257  1.00  0.00    -0.229 A  
HETATM   24  H   UNL     1     -11.237  12.372  69.077  1.00  0.00     0.000 HD 
HETATM   25  C   UNL     1      -9.866   8.691  69.502  1.00  0.00    -0.187 A  
ENDBRANCH   6   9
TORSDOF 1
ENDMDL
MODEL      132
REMARK 921   NORMALIZED FREE ENERGY PREDICTED BY IDOCK:   -3.84 KCAL/MOL
REMARK 922        TOTAL FREE ENERGY PREDICTED BY IDOCK:   -4.39 KCAL/MOL
REMARK 923 INTER-LIGAND FREE ENERGY PREDICTED BY IDOCK:   -4.20 KCAL/MOL
REMARK 924 INTRA-LIGAND FREE ENERGY PREDICTED BY IDOCK:   -0.18 KCAL/MOL
REMARK 927      BINDING AFFINITY PREDICTED BY RF-SCORE:    0.00 PKD
ROOT
HETATM    1  O   UNL     1      -5.372  13.978  67.775  1.00  0.00    -0.247 OA 
HETATM    2  C   UNL     1      -6.564  13.410  67.437  1.00  0.00    -0.023 A  
HETATM    3  H   UNL     1      -4.574  13.466  67.827  1.00  0.00     0.000 HD 
HETATM    4  C   UNL     1      -7.731  14.158  67.360  1.00  0.00    -0.189 A  
HETATM    5  C   UNL     1      -8.942  13.521  67.069  1.00  0.00    -0.237 A  
HETATM    6  C   UNL     1      -9.005  12.134  66.834  1.00  0.00    -0.201 A  
HETATM    7  C   UNL     1      -7.798  11.413  66.894  1.00  0.00    -0.158 A  
HETATM    8  C   UNL     1      -6.587  12.045  67.191  1.00  0.00    -0.143 A  
ENDROOT
BRANCH   6   9
HETATM    9  C   UNL     1     -10.345  11.399  66.664  1.00  0.00    -0.272 C  
HETATM   10  C   UNL     1     -11.576  12.249  66.228  1.00  0.00    -0.385 C  
HETATM   11  N   UNL     1     -11.926  13.410  67.056  1.00  0.00    -0.389 NA 
HETATM   12  C   UNL     1     -12.411  13.044  68.387  1.00  0.00     0.218 C  
HETATM   13  H   UNL     1     -12.599  14.007  66.576  1.00  0.00     0.000 HD 
HETATM   14  C   UNL     1     -11.344  12.420  69.297  1.00  0.00    -0.315 C  
HETATM   15  C   UNL     1     -11.189  10.928  69.071  1.00  0.00    -0.327 A  
HETATM   16  C   UNL     1     -11.495   9.984  70.075  1.00  0.00    -0.248 A  
HETATM   17  C   UNL     1     -11.402   8.612  69.810  1.00  0.00     0.122 A  
HETATM   18 CL   UNL     1     -12.002  10.449  71.667  1.00  0.00    -0.297 Cl 
HETATM   19  C   UNL     1     -11.000   8.167  68.561  1.00  0.00     0.227 A  
HETATM   20  O   UNL     1     -11.700   7.652  70.746  1.00  0.00    -0.316 OA 
HETATM   21  H   UNL     1     -11.637   6.722  70.566  1.00  0.00     0.000 HD 
HETATM   22  O   UNL     1     -10.940   6.830  68.294  1.00  0.00    -0.389 OA 
HETATM   23  C   UNL     1     -10.660   9.068  67.568  1.00  0.00    -0.306 A  
HETATM   24  H   UNL     1     -10.664   6.524  67.437  1.00  0.00     0.000 HD 
HETATM   25  C   UNL     1     -10.741  10.457  67.807  1.00  0.00    -0.327 A  
ENDBRANCH   6   9
TORSDOF 1
ENDMDL
MODEL      133
REMARK 921   NORMALIZED FREE ENERGY PREDICTED BY IDOCK:   -3.81 KCAL/MOL
REMARK 922        TOTAL FREE ENERGY PREDICTED BY IDOCK:   -4.36 KCAL/MOL
REMARK 923 INTER-LIGAND FREE ENERGY PREDICTED BY IDOCK:   -4.03 KCAL/MOL
REMARK 924 INTRA-LIGAND FREE ENERGY PREDICTED BY IDOCK:   -0.33 KCAL/MOL
REMARK 927      BINDING AFFINITY PREDICTED BY RF-SCORE:    0.00 PKD
ROOT
HETATM    1  O   UNL     1     -10.478  17.063  69.113  1.00  0.00    -0.320 OA 
HETATM    2  C   UNL     1     -10.353  15.735  68.833  1.00  0.00    -0.224 A  
HETATM    3  H   UNL     1     -11.325  17.459  69.283  1.00  0.00     0.000 HD 
HETATM    4  C   UNL     1      -9.116  15.157  68.584  1.00  0.00    -0.195 A  
HETATM    5  C   UNL     1      -9.042  13.803  68.242  1.00  0.00    -0.195 A  
HETATM    6  C   UNL     1     -10.198  13.002  68.160  1.00  0.00    -0.239 A  
HETATM    7  C   UNL     1     -11.431  13.615  68.446  1.00  0.00    -0.346 A  
HETATM    8  C   UNL     1     -11.509  14.971  68.782  1.00  0.00    -0.337 A  
ENDROOT
BRANCH   6   9
HETATM    9  C   UNL     1     -10.148  11.556  67.640  1.00  0.00    -0.202 C  
HETATM   10  C   UNL     1     -11.503  10.803  67.487  1.00  0.00    -0.090 C  
HETATM   11  N   UNL     1     -12.364  10.709  68.672  1.00  0.00    -0.765 NA 
HETATM   12  C   UNL     1     -11.800   9.870  69.730  1.00  0.00     0.048 C  
HETATM   13  H   UNL     1     -13.299  10.391  68.417  1.00  0.00     0.000 HD 
HETATM   14  C   UNL     1     -10.545  10.452  70.395  1.00  0.00    -0.107 C  
HETATM   15  C   UNL     1      -9.278  10.132  69.626  1.00  0.00    -0.206 A  
HETATM   16  C   UNL     1      -8.255   9.327  70.171  1.00  0.00    -0.167 A  
HETATM   17  C   UNL     1      -7.128   8.999  69.408  1.00  0.00    -0.056 A  
HETATM   18 CL   UNL     1      -8.327   8.697  71.785  1.00  0.00    -0.213 Cl 
HETATM   19  C   UNL     1      -7.001   9.469  68.111  1.00  0.00    -0.078 A  
HETATM   20  O   UNL     1      -6.111   8.209  69.885  1.00  0.00    -0.028 OA 
HETATM   21  H   UNL     1      -5.346   7.987  69.368  1.00  0.00     0.000 HD 
HETATM   22  O   UNL     1      -5.917   9.124  67.357  1.00  0.00    -0.049 OA 
HETATM   23  C   UNL     1      -7.970  10.290  67.561  1.00  0.00    -0.106 A  
HETATM   24  H   UNL     1      -5.830   9.447  66.467  1.00  0.00     0.000 HD 
HETATM   25  C   UNL     1      -9.115  10.640  68.308  1.00  0.00    -0.153 A  
ENDBRANCH   6   9
TORSDOF 1
ENDMDL
MODEL      134
REMARK 921   NORMALIZED FREE ENERGY PREDICTED BY IDOCK:   -3.81 KCAL/MOL
REMARK 922        TOTAL FREE ENERGY PREDICTED BY IDOCK:   -4.35 KCAL/MOL
REMARK 923 INTER-LIGAND FREE ENERGY PREDICTED BY IDOCK:   -3.90 KCAL/MOL
REMARK 924 INTRA-LIGAND FREE ENERGY PREDICTED BY IDOCK:   -0.46 KCAL/MOL
REMARK 927      BINDING AFFINITY PREDICTED BY RF-SCORE:    0.00 PKD
ROOT
HETATM    1  O   UNL     1      -9.798  13.475  64.227  1.00  0.00    -0.713 OA 
HETATM    2  C   UNL     1      -9.712  12.797  65.406  1.00  0.00    -0.046 A  
HETATM    3  H   UNL     1     -10.241  13.105  63.472  1.00  0.00     0.000 HD 
HETATM    4  C   UNL     1      -9.064  13.337  66.509  1.00  0.00    -0.130 A  
HETATM    5  C   UNL     1      -8.948  12.580  67.680  1.00  0.00    -0.185 A  
HETATM    6  C   UNL     1      -9.490  11.284  67.774  1.00  0.00    -0.173 A  
HETATM    7  C   UNL     1     -10.163  10.781  66.646  1.00  0.00    -0.283 A  
HETATM    8  C   UNL     1     -10.275  11.532  65.471  1.00  0.00    -0.303 A  
ENDROOT
BRANCH   6   9
HETATM    9  C   UNL     1      -9.239  10.386  68.997  1.00  0.00    -0.194 C  
HETATM   10  C   UNL     1      -7.899  10.584  69.767  1.00  0.00    -0.034 C  
HETATM   11  N   UNL     1      -6.652  10.472  69.000  1.00  0.00    -0.056 NA 
HETATM   12  C   UNL     1      -6.393   9.115  68.516  1.00  0.00    -0.053 C  
HETATM   13  H   UNL     1      -5.861  10.822  69.540  1.00  0.00     0.000 HD 
HETATM   14  C   UNL     1      -7.375   8.630  67.442  1.00  0.00    -0.089 C  
HETATM   15  C   UNL     1      -8.646   8.052  68.035  1.00  0.00    -0.129 A  
HETATM   16  C   UNL     1      -8.996   6.693  67.873  1.00  0.00    -0.112 A  
HETATM   17  C   UNL     1     -10.143   6.178  68.489  1.00  0.00    -0.162 A  
HETATM   18 CL   UNL     1      -8.046   5.594  66.925  1.00  0.00    -0.102 Cl 
HETATM   19  C   UNL     1     -10.952   6.999  69.258  1.00  0.00    -0.178 A  
HETATM   20  O   UNL     1     -10.521   4.863  68.373  1.00  0.00    -0.027 OA 
HETATM   21  H   UNL     1     -11.300   4.513  68.791  1.00  0.00     0.000 HD 
HETATM   22  O   UNL     1     -12.053   6.489  69.883  1.00  0.00    -0.584 OA 
HETATM   23  C   UNL     1     -10.654   8.341  69.406  1.00  0.00    -0.203 A  
HETATM   24  H   UNL     1     -12.608   7.052  70.411  1.00  0.00     0.000 HD 
HETATM   25  C   UNL     1      -9.507   8.890  68.795  1.00  0.00    -0.144 A  
ENDBRANCH   6   9
TORSDOF 1
ENDMDL
MODEL      135
REMARK 921   NORMALIZED FREE ENERGY PREDICTED BY IDOCK:   -3.77 KCAL/MOL
REMARK 922        TOTAL FREE ENERGY PREDICTED BY IDOCK:   -4.31 KCAL/MOL
REMARK 923 INTER-LIGAND FREE ENERGY PREDICTED BY IDOCK:   -3.86 KCAL/MOL
REMARK 924 INTRA-LIGAND FREE ENERGY PREDICTED BY IDOCK:   -0.45 KCAL/MOL
REMARK 927      BINDING AFFINITY PREDICTED BY RF-SCORE:    0.00 PKD
ROOT
HETATM    1  O   UNL     1      -8.580   8.218  63.670  1.00  0.00    -0.406 OA 
HETATM    2  C   UNL     1      -8.974   8.908  64.777  1.00  0.00    -0.036 A  
HETATM    3  H   UNL     1      -8.635   7.271  63.628  1.00  0.00     0.000 HD 
HETATM    4  C   UNL     1      -8.894  10.292  64.839  1.00  0.00    -0.213 A  
HETATM    5  C   UNL     1      -9.253  10.953  66.018  1.00  0.00    -0.210 A  
HETATM    6  C   UNL     1      -9.714  10.246  67.146  1.00  0.00    -0.210 A  
HETATM    7  C   UNL     1      -9.808   8.847  67.037  1.00  0.00    -0.277 A  
HETATM    8  C   UNL     1      -9.443   8.182  65.862  1.00  0.00    -0.082 A  
ENDROOT
BRANCH   6   9
HETATM    9  C   UNL     1      -9.967  10.943  68.493  1.00  0.00    -0.188 C  
HETATM   10  C   UNL     1      -9.430  12.397  68.659  1.00  0.00    -0.011 C  
HETATM   11  N   UNL     1      -7.999  12.623  68.421  1.00  0.00    -0.167 NA 
HETATM   12  C   UNL     1      -7.141  11.989  69.423  1.00  0.00     0.085 C  
HETATM   13  H   UNL     1      -7.797  13.619  68.348  1.00  0.00     0.000 HD 
HETATM   14  C   UNL     1      -7.148  10.455  69.380  1.00  0.00    -0.102 C  
HETATM   15  C   UNL     1      -8.303   9.857  70.160  1.00  0.00    -0.156 A  
HETATM   16  C   UNL     1      -8.098   9.057  71.305  1.00  0.00    -0.094 A  
HETATM   17  C   UNL     1      -9.189   8.575  72.038  1.00  0.00    -0.256 A  
HETATM   18 CL   UNL     1      -6.515   8.631  71.872  1.00  0.00    -0.072 Cl 
HETATM   19  C   UNL     1     -10.483   8.872  71.642  1.00  0.00    -0.338 A  
HETATM   20  O   UNL     1      -9.045   7.804  73.165  1.00  0.00    -0.172 OA 
HETATM   21  H   UNL     1      -9.785   7.477  73.663  1.00  0.00     0.000 HD 
HETATM   22  O   UNL     1     -11.546   8.428  72.375  1.00  0.00    -0.367 OA 
HETATM   23  C   UNL     1     -10.717   9.624  70.505  1.00  0.00    -0.374 A  
HETATM   24  H   UNL     1     -12.434   8.631  72.103  1.00  0.00     0.000 HD 
HETATM   25  C   UNL     1      -9.637  10.121  69.744  1.00  0.00    -0.213 A  
ENDBRANCH   6   9
TORSDOF 1
ENDMDL
MODEL      136
REMARK 921   NORMALIZED FREE ENERGY PREDICTED BY IDOCK:   -3.74 KCAL/MOL
REMARK 922        TOTAL FREE ENERGY PREDICTED BY IDOCK:   -4.28 KCAL/MOL
REMARK 923 INTER-LIGAND FREE ENERGY PREDICTED BY IDOCK:   -3.86 KCAL/MOL
REMARK 924 INTRA-LIGAND FREE ENERGY PREDICTED BY IDOCK:   -0.43 KCAL/MOL
REMARK 927      BINDING AFFINITY PREDICTED BY RF-SCORE:    0.00 PKD
ROOT
HETATM    1  O   UNL     1     -13.978   9.461  72.501  1.00  0.00    -0.635 OA 
HETATM    2  C   UNL     1     -12.812   9.093  71.898  1.00  0.00    -0.393 A  
HETATM    3  H   UNL     1     -14.713   8.863  72.571  1.00  0.00     0.000 HD 
HETATM    4  C   UNL     1     -11.739   9.967  71.795  1.00  0.00    -0.183 A  
HETATM    5  C   UNL     1     -10.584   9.565  71.115  1.00  0.00    -0.388 A  
HETATM    6  C   UNL     1     -10.476   8.283  70.544  1.00  0.00    -0.225 A  
HETATM    7  C   UNL     1     -11.573   7.414  70.693  1.00  0.00    -0.295 A  
HETATM    8  C   UNL     1     -12.731   7.815  71.366  1.00  0.00    -0.333 A  
ENDROOT
BRANCH   6   9
HETATM    9  C   UNL     1      -9.278   7.883  69.667  1.00  0.00    -0.153 C  
HETATM   10  C   UNL     1      -8.640   6.484  69.921  1.00  0.00    -0.139 C  
HETATM   11  N   UNL     1      -8.181   6.185  71.283  1.00  0.00    -0.121 NA 
HETATM   12  C   UNL     1      -7.033   6.994  71.694  1.00  0.00    -0.069 C  
HETATM   13  H   UNL     1      -7.980   5.191  71.388  1.00  0.00     0.000 HD 
HETATM   14  C   UNL     1      -7.344   8.486  71.873  1.00  0.00    -0.119 C  
HETATM   15  C   UNL     1      -7.270   9.255  70.568  1.00  0.00    -0.111 A  
HETATM   16  C   UNL     1      -6.312  10.270  70.350  1.00  0.00    -0.127 A  
HETATM   17  C   UNL     1      -6.231  10.914  69.110  1.00  0.00    -0.047 A  
HETATM   18 CL   UNL     1      -5.192  10.770  71.576  1.00  0.00    -0.063 Cl 
HETATM   19  C   UNL     1      -7.096  10.568  68.084  1.00  0.00    -0.082 A  
HETATM   20  O   UNL     1      -5.310  11.897  68.842  1.00  0.00    -0.050 OA 
HETATM   21  H   UNL     1      -5.255  12.335  68.001  1.00  0.00     0.000 HD 
HETATM   22  O   UNL     1      -6.996  11.175  66.866  1.00  0.00    -0.113 OA 
HETATM   23  C   UNL     1      -8.068   9.603  68.278  1.00  0.00    -0.105 A  
HETATM   24  H   UNL     1      -7.589  10.938  66.162  1.00  0.00     0.000 HD 
HETATM   25  C   UNL     1      -8.176   8.939  69.519  1.00  0.00    -0.107 A  
ENDBRANCH   6   9
TORSDOF 1
ENDMDL
MODEL      137
REMARK 921   NORMALIZED FREE ENERGY PREDICTED BY IDOCK:   -3.73 KCAL/MOL
REMARK 922        TOTAL FREE ENERGY PREDICTED BY IDOCK:   -4.27 KCAL/MOL
REMARK 923 INTER-LIGAND FREE ENERGY PREDICTED BY IDOCK:   -3.84 KCAL/MOL
REMARK 924 INTRA-LIGAND FREE ENERGY PREDICTED BY IDOCK:   -0.43 KCAL/MOL
REMARK 927      BINDING AFFINITY PREDICTED BY RF-SCORE:    0.00 PKD
ROOT
HETATM    1  O   UNL     1     -11.294   5.131  74.058  1.00  0.00    -0.394 OA 
HETATM    2  C   UNL     1     -10.669   5.472  72.895  1.00  0.00    -0.249 A  
HETATM    3  H   UNL     1     -11.778   5.769  74.569  1.00  0.00     0.000 HD 
HETATM    4  C   UNL     1      -9.962   4.540  72.149  1.00  0.00    -0.246 A  
HETATM    5  C   UNL     1      -9.286   4.949  70.994  1.00  0.00    -0.209 A  
HETATM    6  C   UNL     1      -9.320   6.288  70.559  1.00  0.00    -0.171 A  
HETATM    7  C   UNL     1     -10.069   7.199  71.325  1.00  0.00    -0.196 A  
HETATM    8  C   UNL     1     -10.741   6.794  72.484  1.00  0.00    -0.261 A  
ENDROOT
BRANCH   6   9
HETATM    9  C   UNL     1      -8.461   6.780  69.382  1.00  0.00    -0.132 C  
HETATM   10  C   UNL     1      -8.713   8.230  68.869  1.00  0.00    -0.137 C  
HETATM   11  N   UNL     1     -10.080   8.578  68.463  1.00  0.00    -0.189 NA 
HETATM   12  C   UNL     1     -10.521   7.873  67.259  1.00  0.00    -0.320 C  
HETATM   13  H   UNL     1     -10.178   9.586  68.350  1.00  0.00     0.000 HD 
HETATM   14  C   UNL     1     -10.709   6.361  67.447  1.00  0.00    -0.411 C  
HETATM   15  C   UNL     1      -9.413   5.590  67.283  1.00  0.00    -0.119 A  
HETATM   16  C   UNL     1      -9.224   4.659  66.239  1.00  0.00    -0.135 A  
HETATM   17  C   UNL     1      -7.992   4.013  66.079  1.00  0.00    -0.094 A  
HETATM   18 CL   UNL     1     -10.476   4.265  65.105  1.00  0.00    -0.247 Cl 
HETATM   19  C   UNL     1      -6.947   4.275  66.950  1.00  0.00    -0.059 A  
HETATM   20  O   UNL     1      -7.752   3.109  65.074  1.00  0.00    -0.079 OA 
HETATM   21  H   UNL     1      -6.916   2.670  64.966  1.00  0.00     0.000 HD 
HETATM   22  O   UNL     1      -5.737   3.669  66.776  1.00  0.00    -0.021 OA 
HETATM   23  C   UNL     1      -7.113   5.157  68.004  1.00  0.00    -0.063 A  
HETATM   24  H   UNL     1      -5.020   3.849  67.373  1.00  0.00     0.000 HD 
HETATM   25  C   UNL     1      -8.344   5.820  68.192  1.00  0.00    -0.107 A  
ENDBRANCH   6   9
TORSDOF 1
ENDMDL
MODEL      138
REMARK 921   NORMALIZED FREE ENERGY PREDICTED BY IDOCK:   -3.73 KCAL/MOL
REMARK 922        TOTAL FREE ENERGY PREDICTED BY IDOCK:   -4.27 KCAL/MOL
REMARK 923 INTER-LIGAND FREE ENERGY PREDICTED BY IDOCK:   -3.94 KCAL/MOL
REMARK 924 INTRA-LIGAND FREE ENERGY PREDICTED BY IDOCK:   -0.33 KCAL/MOL
REMARK 927      BINDING AFFINITY PREDICTED BY RF-SCORE:    0.00 PKD
ROOT
HETATM    1  O   UNL     1     -13.500   9.507  70.833  1.00  0.00    -0.586 OA 
HETATM    2  C   UNL     1     -12.197   9.272  71.154  1.00  0.00    -0.301 A  
HETATM    3  H   UNL     1     -14.212   9.098  71.311  1.00  0.00     0.000 HD 
HETATM    4  C   UNL     1     -11.157   9.869  70.456  1.00  0.00    -0.398 A  
HETATM    5  C   UNL     1      -9.834   9.550  70.781  1.00  0.00    -0.309 A  
HETATM    6  C   UNL     1      -9.529   8.647  71.818  1.00  0.00    -0.354 A  
HETATM    7  C   UNL     1     -10.609   8.083  72.522  1.00  0.00    -0.397 A  
HETATM    8  C   UNL     1     -11.932   8.394  72.194  1.00  0.00    -0.438 A  
ENDROOT
BRANCH   6   9
HETATM    9  C   UNL     1      -8.091   8.174  72.085  1.00  0.00    -0.182 C  
HETATM   10  C   UNL     1      -6.945   8.890  71.308  1.00  0.00    -0.091 C  
HETATM   11  N   UNL     1      -7.030   8.912  69.843  1.00  0.00    -0.048 NA 
HETATM   12  C   UNL     1      -6.872   7.590  69.236  1.00  0.00    -0.056 C  
HETATM   13  H   UNL     1      -6.361   9.573  69.451  1.00  0.00     0.000 HD 
HETATM   14  C   UNL     1      -8.027   6.621  69.525  1.00  0.00    -0.117 C  
HETATM   15  C   UNL     1      -7.866   5.904  70.851  1.00  0.00    -0.102 A  
HETATM   16  C   UNL     1      -7.692   4.505  70.929  1.00  0.00    -0.064 A  
HETATM   17  C   UNL     1      -7.481   3.883  72.166  1.00  0.00    -0.065 A  
HETATM   18 CL   UNL     1      -7.721   3.484  69.527  1.00  0.00    -0.051 Cl 
HETATM   19  C   UNL     1      -7.449   4.636  73.329  1.00  0.00    -0.083 A  
HETATM   20  O   UNL     1      -7.294   2.530  72.296  1.00  0.00    -0.040 OA 
HETATM   21  H   UNL     1      -7.151   2.108  73.135  1.00  0.00     0.000 HD 
HETATM   22  O   UNL     1      -7.213   4.034  74.531  1.00  0.00    -0.066 OA 
HETATM   23  C   UNL     1      -7.651   6.004  73.289  1.00  0.00    -0.097 A  
HETATM   24  H   UNL     1      -7.191   4.550  75.330  1.00  0.00     0.000 HD 
HETATM   25  C   UNL     1      -7.870   6.657  72.057  1.00  0.00    -0.097 A  
ENDBRANCH   6   9
TORSDOF 1
ENDMDL
MODEL      139
REMARK 921   NORMALIZED FREE ENERGY PREDICTED BY IDOCK:   -3.71 KCAL/MOL
REMARK 922        TOTAL FREE ENERGY PREDICTED BY IDOCK:   -4.25 KCAL/MOL
REMARK 923 INTER-LIGAND FREE ENERGY PREDICTED BY IDOCK:   -3.79 KCAL/MOL
REMARK 924 INTRA-LIGAND FREE ENERGY PREDICTED BY IDOCK:   -0.47 KCAL/MOL
REMARK 927      BINDING AFFINITY PREDICTED BY RF-SCORE:    0.00 PKD
ROOT
HETATM    1  O   UNL     1      -8.777  17.336  67.729  1.00  0.00    -0.220 OA 
HETATM    2  C   UNL     1      -8.334  16.048  67.780  1.00  0.00    -0.150 A  
HETATM    3  H   UNL     1      -8.194  18.055  67.516  1.00  0.00     0.000 HD 
HETATM    4  C   UNL     1      -9.185  14.997  68.093  1.00  0.00    -0.183 A  
HETATM    5  C   UNL     1      -8.672  13.699  68.193  1.00  0.00    -0.177 A  
HETATM    6  C   UNL     1      -7.310  13.428  67.966  1.00  0.00    -0.129 A  
HETATM    7  C   UNL     1      -6.482  14.513  67.625  1.00  0.00    -0.153 A  
HETATM    8  C   UNL     1      -6.990  15.813  67.530  1.00  0.00    -0.216 A  
ENDROOT
BRANCH   6   9
HETATM    9  C   UNL     1      -6.706  12.037  68.220  1.00  0.00    -0.061 C  
HETATM   10  C   UNL     1      -5.669  11.506  67.185  1.00  0.00    -0.108 C  
HETATM   11  N   UNL     1      -6.085  11.446  65.779  1.00  0.00    -0.452 NA 
HETATM   12  C   UNL     1      -7.128  10.451  65.528  1.00  0.00    -0.133 C  
HETATM   13  H   UNL     1      -5.282  11.291  65.169  1.00  0.00     0.000 HD 
HETATM   14  C   UNL     1      -8.485  10.787  66.161  1.00  0.00    -0.167 C  
HETATM   15  C   UNL     1      -8.576  10.346  67.609  1.00  0.00    -0.118 A  
HETATM   16  C   UNL     1      -9.489   9.358  68.035  1.00  0.00    -0.133 A  
HETATM   17  C   UNL     1      -9.500   8.929  69.368  1.00  0.00    -0.161 A  
HETATM   18 CL   UNL     1     -10.630   8.619  66.958  1.00  0.00    -0.347 Cl 
HETATM   19  C   UNL     1      -8.620   9.478  70.286  1.00  0.00    -0.226 A  
HETATM   20  O   UNL     1     -10.359   7.963  69.831  1.00  0.00    -0.213 OA 
HETATM   21  H   UNL     1     -10.367   7.672  70.735  1.00  0.00     0.000 HD 
HETATM   22  O   UNL     1      -8.610   9.038  71.578  1.00  0.00    -0.303 OA 
HETATM   23  C   UNL     1      -7.737  10.474  69.907  1.00  0.00    -0.017 A  
HETATM   24  H   UNL     1      -8.006   9.415  72.208  1.00  0.00     0.000 HD 
HETATM   25  C   UNL     1      -7.705  10.928  68.571  1.00  0.00    -0.119 A  
ENDBRANCH   6   9
TORSDOF 1
ENDMDL
MODEL      140
REMARK 921   NORMALIZED FREE ENERGY PREDICTED BY IDOCK:   -3.71 KCAL/MOL
REMARK 922        TOTAL FREE ENERGY PREDICTED BY IDOCK:   -4.24 KCAL/MOL
REMARK 923 INTER-LIGAND FREE ENERGY PREDICTED BY IDOCK:   -3.72 KCAL/MOL
REMARK 924 INTRA-LIGAND FREE ENERGY PREDICTED BY IDOCK:   -0.52 KCAL/MOL
REMARK 927      BINDING AFFINITY PREDICTED BY RF-SCORE:    0.00 PKD
ROOT
HETATM    1  O   UNL     1      -7.813   2.297  65.128  1.00  0.00    -0.075 OA 
HETATM    2  C   UNL     1      -7.924   3.181  66.159  1.00  0.00    -0.085 A  
HETATM    3  H   UNL     1      -7.013   2.221  64.620  1.00  0.00     0.000 HD 
HETATM    4  C   UNL     1      -9.092   3.291  66.901  1.00  0.00    -0.191 A  
HETATM    5  C   UNL     1      -9.180   4.255  67.911  1.00  0.00    -0.179 A  
HETATM    6  C   UNL     1      -8.100   5.109  68.209  1.00  0.00    -0.087 A  
HETATM    7  C   UNL     1      -6.923   4.949  67.455  1.00  0.00    -0.061 A  
HETATM    8  C   UNL     1      -6.834   3.991  66.440  1.00  0.00    -0.058 A  
ENDROOT
BRANCH   6   9
HETATM    9  C   UNL     1      -8.235   6.268  69.209  1.00  0.00    -0.114 C  
HETATM   10  C   UNL     1      -6.962   6.670  70.015  1.00  0.00    -0.062 C  
HETATM   11  N   UNL     1      -6.295   5.621  70.795  1.00  0.00    -0.030 NA 
HETATM   12  C   UNL     1      -7.094   5.148  71.927  1.00  0.00    -0.075 C  
HETATM   13  H   UNL     1      -5.374   5.930  71.106  1.00  0.00     0.000 HD 
HETATM   14  C   UNL     1      -8.358   4.376  71.528  1.00  0.00    -0.100 C  
HETATM   15  C   UNL     1      -9.530   5.292  71.233  1.00  0.00    -0.197 A  
HETATM   16  C   UNL     1     -10.703   5.283  72.019  1.00  0.00    -0.196 A  
HETATM   17  C   UNL     1     -11.739   6.188  71.758  1.00  0.00    -0.253 A  
HETATM   18 CL   UNL     1     -10.932   4.177  73.335  1.00  0.00    -0.323 Cl 
HETATM   19  C   UNL     1     -11.627   7.098  70.720  1.00  0.00    -0.318 A  
HETATM   20  O   UNL     1     -12.894   6.229  72.499  1.00  0.00    -0.521 OA 
HETATM   21  H   UNL     1     -13.597   6.843  72.322  1.00  0.00     0.000 HD 
HETATM   22  O   UNL     1     -12.624   8.001  70.486  1.00  0.00    -0.386 OA 
HETATM   23  C   UNL     1     -10.505   7.108  69.911  1.00  0.00    -0.237 A  
HETATM   24  H   UNL     1     -12.547   8.625  69.773  1.00  0.00     0.000 HD 
HETATM   25  C   UNL     1      -9.446   6.206  70.147  1.00  0.00    -0.177 A  
ENDBRANCH   6   9
TORSDOF 1
ENDMDL
MODEL      141
REMARK 921   NORMALIZED FREE ENERGY PREDICTED BY IDOCK:   -3.70 KCAL/MOL
REMARK 922        TOTAL FREE ENERGY PREDICTED BY IDOCK:   -4.24 KCAL/MOL
REMARK 923 INTER-LIGAND FREE ENERGY PREDICTED BY IDOCK:   -4.38 KCAL/MOL
REMARK 924 INTRA-LIGAND FREE ENERGY PREDICTED BY IDOCK:    0.14 KCAL/MOL
REMARK 927      BINDING AFFINITY PREDICTED BY RF-SCORE:    0.00 PKD
ROOT
HETATM    1  O   UNL     1     -13.203  12.431  64.296  1.00  0.00    -0.769 OA 
HETATM    2  C   UNL     1     -11.981  11.970  64.685  1.00  0.00    -0.249 A  
HETATM    3  H   UNL     1     -13.859  12.700  64.930  1.00  0.00     0.000 HD 
HETATM    4  C   UNL     1     -11.024  11.577  63.760  1.00  0.00    -0.485 A  
HETATM    5  C   UNL     1      -9.806  11.053  64.207  1.00  0.00    -0.355 A  
HETATM    6  C   UNL     1      -9.518  10.930  65.579  1.00  0.00    -0.249 A  
HETATM    7  C   UNL     1     -10.501  11.364  66.488  1.00  0.00    -0.292 A  
HETATM    8  C   UNL     1     -11.722  11.882  66.045  1.00  0.00    -0.209 A  
ENDROOT
BRANCH   6   9
HETATM    9  C   UNL     1      -8.251  10.219  66.082  1.00  0.00    -0.138 C  
HETATM   10  C   UNL     1      -6.882  10.726  65.538  1.00  0.00     0.015 C  
HETATM   11  N   UNL     1      -6.700  10.757  64.082  1.00  0.00    -0.328 NA 
HETATM   12  C   UNL     1      -6.662   9.425  63.477  1.00  0.00    -0.095 C  
HETATM   13  H   UNL     1      -5.870  11.293  63.831  1.00  0.00     0.000 HD 
HETATM   14  C   UNL     1      -7.996   8.669  63.532  1.00  0.00    -0.160 C  
HETATM   15  C   UNL     1      -8.197   7.939  64.846  1.00  0.00    -0.128 A  
HETATM   16  C   UNL     1      -8.278   6.531  64.915  1.00  0.00    -0.097 A  
HETATM   17  C   UNL     1      -8.398   5.888  66.153  1.00  0.00    -0.124 A  
HETATM   18 CL   UNL     1      -8.230   5.526  63.503  1.00  0.00    -0.120 Cl 
HETATM   19  C   UNL     1      -8.447   6.627  67.324  1.00  0.00    -0.120 A  
HETATM   20  O   UNL     1      -8.468   4.522  66.277  1.00  0.00    -0.113 OA 
HETATM   21  H   UNL     1      -8.550   4.085  67.116  1.00  0.00     0.000 HD 
HETATM   22  O   UNL     1      -8.533   5.998  68.532  1.00  0.00    -0.112 OA 
HETATM   23  C   UNL     1      -8.405   8.010  67.285  1.00  0.00    -0.122 A  
HETATM   24  H   UNL     1      -8.566   6.505  69.335  1.00  0.00     0.000 HD 
HETATM   25  C   UNL     1      -8.288   8.686  66.053  1.00  0.00    -0.135 A  
ENDBRANCH   6   9
TORSDOF 1
ENDMDL
MODEL      142
REMARK 921   NORMALIZED FREE ENERGY PREDICTED BY IDOCK:   -3.70 KCAL/MOL
REMARK 922        TOTAL FREE ENERGY PREDICTED BY IDOCK:   -4.23 KCAL/MOL
REMARK 923 INTER-LIGAND FREE ENERGY PREDICTED BY IDOCK:   -3.72 KCAL/MOL
REMARK 924 INTRA-LIGAND FREE ENERGY PREDICTED BY IDOCK:   -0.52 KCAL/MOL
REMARK 927      BINDING AFFINITY PREDICTED BY RF-SCORE:    0.00 PKD
ROOT
HETATM    1  O   UNL     1      -8.332   3.752  66.676  1.00  0.00    -0.102 OA 
HETATM    2  C   UNL     1      -8.157   5.034  66.246  1.00  0.00    -0.108 A  
HETATM    3  H   UNL     1      -7.611   3.133  66.703  1.00  0.00     0.000 HD 
HETATM    4  C   UNL     1      -9.210   5.937  66.206  1.00  0.00    -0.171 A  
HETATM    5  C   UNL     1      -8.996   7.224  65.701  1.00  0.00     0.009 A  
HETATM    6  C   UNL     1      -7.728   7.634  65.245  1.00  0.00    -0.110 A  
HETATM    7  C   UNL     1      -6.679   6.700  65.327  1.00  0.00    -0.050 A  
HETATM    8  C   UNL     1      -6.891   5.411  65.825  1.00  0.00    -0.061 A  
ENDROOT
BRANCH   6   9
HETATM    9  C   UNL     1      -7.514   8.989  64.550  1.00  0.00    -0.104 C  
HETATM   10  C   UNL     1      -6.073   9.581  64.565  1.00  0.00    -0.082 C  
HETATM   11  N   UNL     1      -5.428   9.763  65.871  1.00  0.00    -0.043 NA 
HETATM   12  C   UNL     1      -6.065  10.794  66.691  1.00  0.00    -0.090 C  
HETATM   13  H   UNL     1      -4.432   9.951  65.761  1.00  0.00     0.000 HD 
HETATM   14  C   UNL     1      -7.477  10.434  67.173  1.00  0.00    -0.092 C  
HETATM   15  C   UNL     1      -8.543  10.757  66.144  1.00  0.00    -0.171 A  
HETATM   16  C   UNL     1      -9.543  11.726  66.381  1.00  0.00    -0.218 A  
HETATM   17  C   UNL     1     -10.472  12.045  65.383  1.00  0.00    -0.275 A  
HETATM   18 CL   UNL     1      -9.681  12.570  67.889  1.00  0.00    -0.199 Cl 
HETATM   19  C   UNL     1     -10.424  11.408  64.154  1.00  0.00    -0.363 A  
HETATM   20  O   UNL     1     -11.455  12.987  65.558  1.00  0.00    -0.305 OA 
HETATM   21  H   UNL     1     -12.086  13.204  64.881  1.00  0.00     0.000 HD 
HETATM   22  O   UNL     1     -11.311  11.741  63.172  1.00  0.00    -0.656 OA 
HETATM   23  C   UNL     1      -9.478  10.430  63.904  1.00  0.00    -0.354 A  
HETATM   24  H   UNL     1     -11.278  11.304  62.328  1.00  0.00     0.000 HD 
HETATM   25  C   UNL     1      -8.531  10.084  64.892  1.00  0.00    -0.173 A  
ENDBRANCH   6   9
TORSDOF 1
ENDMDL
MODEL      143
REMARK 921   NORMALIZED FREE ENERGY PREDICTED BY IDOCK:   -3.68 KCAL/MOL
REMARK 922        TOTAL FREE ENERGY PREDICTED BY IDOCK:   -4.21 KCAL/MOL
REMARK 923 INTER-LIGAND FREE ENERGY PREDICTED BY IDOCK:   -4.08 KCAL/MOL
REMARK 924 INTRA-LIGAND FREE ENERGY PREDICTED BY IDOCK:   -0.14 KCAL/MOL
REMARK 927      BINDING AFFINITY PREDICTED BY RF-SCORE:    0.00 PKD
ROOT
HETATM    1  O   UNL     1     -11.968  15.605  68.439  1.00  0.00    -0.481 OA 
HETATM    2  C   UNL     1     -11.231  14.465  68.325  1.00  0.00    -0.275 A  
HETATM    3  H   UNL     1     -11.818  16.354  67.873  1.00  0.00     0.000 HD 
HETATM    4  C   UNL     1     -11.450  13.372  69.152  1.00  0.00    -0.351 A  
HETATM    5  C   UNL     1     -10.628  12.245  69.039  1.00  0.00    -0.104 A  
HETATM    6  C   UNL     1      -9.589  12.185  68.091  1.00  0.00    -0.208 A  
HETATM    7  C   UNL     1      -9.414  13.301  67.252  1.00  0.00    -0.233 A  
HETATM    8  C   UNL     1     -10.229  14.431  67.366  1.00  0.00    -0.247 A  
ENDROOT
BRANCH   6   9
HETATM    9  C   UNL     1      -8.586  11.020  68.058  1.00  0.00    -0.134 C  
HETATM   10  C   UNL     1      -8.604  10.095  66.804  1.00  0.00    -0.126 C  
HETATM   11  N   UNL     1      -9.878   9.459  66.449  1.00  0.00    -0.247 NA 
HETATM   12  C   UNL     1     -10.316   8.461  67.425  1.00  0.00    -0.285 C  
HETATM   13  H   UNL     1      -9.834   9.055  65.513  1.00  0.00     0.000 HD 
HETATM   14  C   UNL     1     -10.716   9.044  68.787  1.00  0.00    -0.140 C  
HETATM   15  C   UNL     1      -9.526   9.249  69.704  1.00  0.00    -0.188 A  
HETATM   16  C   UNL     1      -9.383   8.538  70.915  1.00  0.00    -0.174 A  
HETATM   17  C   UNL     1      -8.238   8.704  71.705  1.00  0.00    -0.144 A  
HETATM   18 CL   UNL     1     -10.586   7.429  71.490  1.00  0.00    -0.219 Cl 
HETATM   19  C   UNL     1      -7.237   9.576  71.309  1.00  0.00     0.197 A  
HETATM   20  O   UNL     1      -8.045   8.027  72.884  1.00  0.00    -0.134 OA 
HETATM   21  H   UNL     1      -7.268   8.140  73.420  1.00  0.00     0.000 HD 
HETATM   22  O   UNL     1      -6.108   9.714  72.064  1.00  0.00    -0.290 OA 
HETATM   23  C   UNL     1      -7.364  10.313  70.146  1.00  0.00    -0.115 A  
HETATM   24  H   UNL     1      -5.421  10.313  71.793  1.00  0.00     0.000 HD 
HETATM   25  C   UNL     1      -8.508  10.169  69.331  1.00  0.00    -0.179 A  
ENDBRANCH   6   9
TORSDOF 1
ENDMDL
MODEL      144
REMARK 921   NORMALIZED FREE ENERGY PREDICTED BY IDOCK:   -3.66 KCAL/MOL
REMARK 922        TOTAL FREE ENERGY PREDICTED BY IDOCK:   -4.19 KCAL/MOL
REMARK 923 INTER-LIGAND FREE ENERGY PREDICTED BY IDOCK:   -4.36 KCAL/MOL
REMARK 924 INTRA-LIGAND FREE ENERGY PREDICTED BY IDOCK:    0.17 KCAL/MOL
REMARK 927      BINDING AFFINITY PREDICTED BY RF-SCORE:    0.00 PKD
ROOT
HETATM    1  O   UNL     1     -11.286  16.346  65.749  1.00  0.00     0.026 OA 
HETATM    2  C   UNL     1     -10.847  15.188  66.320  1.00  0.00    -0.333 A  
HETATM    3  H   UNL     1     -10.739  16.846  65.155  1.00  0.00     0.000 HD 
HETATM    4  C   UNL     1     -11.645  14.457  67.189  1.00  0.00    -0.406 A  
HETATM    5  C   UNL     1     -11.130  13.307  67.797  1.00  0.00    -0.289 A  
HETATM    6  C   UNL     1      -9.821  12.861  67.536  1.00  0.00    -0.208 A  
HETATM    7  C   UNL     1      -9.051  13.612  66.629  1.00  0.00    -0.189 A  
HETATM    8  C   UNL     1      -9.560  14.765  66.023  1.00  0.00    -0.334 A  
ENDROOT
BRANCH   6   9
HETATM    9  C   UNL     1      -9.192  11.690  68.310  1.00  0.00    -0.187 C  
HETATM   10  C   UNL     1      -7.758  11.898  68.882  1.00  0.00    -0.016 C  
HETATM   11  N   UNL     1      -6.702  12.289  67.940  1.00  0.00    -0.083 NA 
HETATM   12  C   UNL     1      -6.371  11.239  66.976  1.00  0.00    -0.111 C  
HETATM   13  H   UNL     1      -5.869  12.600  68.438  1.00  0.00     0.000 HD 
HETATM   14  C   UNL     1      -7.487  10.935  65.967  1.00  0.00    -0.086 C  
HETATM   15  C   UNL     1      -8.508   9.954  66.509  1.00  0.00    -0.127 A  
HETATM   16  C   UNL     1      -8.697   8.677  65.936  1.00  0.00    -0.172 A  
HETATM   17  C   UNL     1      -9.604   7.772  66.503  1.00  0.00    -0.201 A  
HETATM   18 CL   UNL     1      -7.833   8.153  64.527  1.00  0.00    -0.131 Cl 
HETATM   19  C   UNL     1     -10.332   8.125  67.627  1.00  0.00    -0.247 A  
HETATM   20  O   UNL     1      -9.815   6.515  65.993  1.00  0.00    -0.399 OA 
HETATM   21  H   UNL     1     -10.431   5.902  66.377  1.00  0.00     0.000 HD 
HETATM   22  O   UNL     1     -11.192   7.232  68.197  1.00  0.00    -0.469 OA 
HETATM   23  C   UNL     1     -10.195   9.381  68.190  1.00  0.00    -0.239 A  
HETATM   24  H   UNL     1     -11.692   7.473  68.969  1.00  0.00     0.000 HD 
HETATM   25  C   UNL     1      -9.292  10.315  67.639  1.00  0.00    -0.158 A  
ENDBRANCH   6   9
TORSDOF 1
ENDMDL
MODEL      145
REMARK 921   NORMALIZED FREE ENERGY PREDICTED BY IDOCK:   -3.65 KCAL/MOL
REMARK 922        TOTAL FREE ENERGY PREDICTED BY IDOCK:   -4.18 KCAL/MOL
REMARK 923 INTER-LIGAND FREE ENERGY PREDICTED BY IDOCK:   -3.71 KCAL/MOL
REMARK 924 INTRA-LIGAND FREE ENERGY PREDICTED BY IDOCK:   -0.47 KCAL/MOL
REMARK 927      BINDING AFFINITY PREDICTED BY RF-SCORE:    0.00 PKD
ROOT
HETATM    1  O   UNL     1      -7.216   4.695  66.426  1.00  0.00    -0.073 OA 
HETATM    2  C   UNL     1      -7.357   5.853  67.132  1.00  0.00    -0.077 A  
HETATM    3  H   UNL     1      -6.969   4.699  65.509  1.00  0.00     0.000 HD 
HETATM    4  C   UNL     1      -7.718   5.848  68.472  1.00  0.00    -0.094 A  
HETATM    5  C   UNL     1      -7.909   7.062  69.140  1.00  0.00    -0.114 A  
HETATM    6  C   UNL     1      -7.727   8.297  68.487  1.00  0.00    -0.112 A  
HETATM    7  C   UNL     1      -7.335   8.262  67.136  1.00  0.00    -0.088 A  
HETATM    8  C   UNL     1      -7.148   7.050  66.464  1.00  0.00    -0.077 A  
ENDROOT
BRANCH   6   9
HETATM    9  C   UNL     1      -8.080   9.632  69.163  1.00  0.00    -0.104 C  
HETATM   10  C   UNL     1      -9.001   9.577  70.418  1.00  0.00    -0.243 C  
HETATM   11  N   UNL     1     -10.302   8.913  70.276  1.00  0.00    -0.198 NA 
HETATM   12  C   UNL     1     -11.224   9.632  69.397  1.00  0.00    -0.077 C  
HETATM   13  H   UNL     1     -10.727   8.747  71.189  1.00  0.00     0.000 HD 
HETATM   14  C   UNL     1     -10.805   9.647  67.921  1.00  0.00    -0.272 C  
HETATM   15  C   UNL     1      -9.823  10.759  67.607  1.00  0.00    -0.193 A  
HETATM   16  C   UNL     1     -10.145  11.817  66.729  1.00  0.00    -0.209 A  
HETATM   17  C   UNL     1      -9.237  12.861  66.513  1.00  0.00    -0.182 A  
HETATM   18 CL   UNL     1     -11.656  11.896  65.882  1.00  0.00    -0.360 Cl 
HETATM   19  C   UNL     1      -8.008  12.862  67.154  1.00  0.00    -0.099 A  
HETATM   20  O   UNL     1      -9.505  13.919  65.680  1.00  0.00    -0.513 OA 
HETATM   21  H   UNL     1      -8.889  14.627  65.534  1.00  0.00     0.000 HD 
HETATM   22  O   UNL     1      -7.136  13.896  66.967  1.00  0.00    -0.378 OA 
HETATM   23  C   UNL     1      -7.650  11.822  67.992  1.00  0.00    -0.116 A  
HETATM   24  H   UNL     1      -6.293  13.897  67.406  1.00  0.00     0.000 HD 
HETATM   25  C   UNL     1      -8.542  10.754  68.226  1.00  0.00    -0.135 A  
ENDBRANCH   6   9
TORSDOF 1
ENDMDL
MODEL      146
REMARK 921   NORMALIZED FREE ENERGY PREDICTED BY IDOCK:   -3.61 KCAL/MOL
REMARK 922        TOTAL FREE ENERGY PREDICTED BY IDOCK:   -4.14 KCAL/MOL
REMARK 923 INTER-LIGAND FREE ENERGY PREDICTED BY IDOCK:   -3.84 KCAL/MOL
REMARK 924 INTRA-LIGAND FREE ENERGY PREDICTED BY IDOCK:   -0.30 KCAL/MOL
REMARK 927      BINDING AFFINITY PREDICTED BY RF-SCORE:    0.00 PKD
ROOT
HETATM    1  O   UNL     1     -11.617  15.991  72.834  1.00  0.00    -0.374 OA 
HETATM    2  C   UNL     1     -11.844  14.924  72.017  1.00  0.00    -0.327 A  
HETATM    3  H   UNL     1     -10.938  16.628  72.644  1.00  0.00     0.000 HD 
HETATM    4  C   UNL     1     -12.835  13.992  72.295  1.00  0.00    -0.403 A  
HETATM    5  C   UNL     1     -12.991  12.881  71.460  1.00  0.00    -0.388 A  
HETATM    6  C   UNL     1     -12.175  12.690  70.328  1.00  0.00    -0.347 A  
HETATM    7  C   UNL     1     -11.200  13.669  70.063  1.00  0.00     0.054 A  
HETATM    8  C   UNL     1     -11.036  14.778  70.899  1.00  0.00    -0.051 A  
ENDROOT
BRANCH   6   9
HETATM    9  C   UNL     1     -12.235  11.402  69.492  1.00  0.00    -0.303 C  
HETATM   10  C   UNL     1     -12.254  10.048  70.263  1.00  0.00    -0.112 C  
HETATM   11  N   UNL     1     -11.160   9.791  71.208  1.00  0.00    -0.350 NA 
HETATM   12  C   UNL     1      -9.862   9.618  70.554  1.00  0.00    -0.231 C  
HETATM   13  H   UNL     1     -11.375   8.991  71.803  1.00  0.00     0.000 HD 
HETATM   14  C   UNL     1      -9.312  10.892  69.898  1.00  0.00     0.745 C  
HETATM   15  C   UNL     1      -9.857  11.106  68.499  1.00  0.00    -0.199 A  
HETATM   16  C   UNL     1      -9.024  11.084  67.360  1.00  0.00    -0.141 A  
HETATM   17  C   UNL     1      -9.571  11.221  66.078  1.00  0.00    -0.218 A  
HETATM   18 CL   UNL     1      -7.305  10.882  67.468  1.00  0.00    -0.094 Cl 
HETATM   19  C   UNL     1     -10.937  11.389  65.915  1.00  0.00    -0.207 A  
HETATM   20  O   UNL     1      -8.808  11.193  64.937  1.00  0.00    -0.350 OA 
HETATM   21  H   UNL     1      -9.179  11.286  64.067  1.00  0.00     0.000 HD 
HETATM   22  O   UNL     1     -11.473  11.492  64.665  1.00  0.00    -0.222 OA 
HETATM   23  C   UNL     1     -11.775  11.451  67.015  1.00  0.00     0.001 A  
HETATM   24  H   UNL     1     -12.410  11.608  64.553  1.00  0.00     0.000 HD 
HETATM   25  C   UNL     1     -11.252  11.319  68.319  1.00  0.00    -0.331 A  
ENDBRANCH   6   9
TORSDOF 1
ENDMDL
MODEL      147
REMARK 921   NORMALIZED FREE ENERGY PREDICTED BY IDOCK:   -3.59 KCAL/MOL
REMARK 922        TOTAL FREE ENERGY PREDICTED BY IDOCK:   -4.12 KCAL/MOL
REMARK 923 INTER-LIGAND FREE ENERGY PREDICTED BY IDOCK:   -3.65 KCAL/MOL
REMARK 924 INTRA-LIGAND FREE ENERGY PREDICTED BY IDOCK:   -0.47 KCAL/MOL
REMARK 927      BINDING AFFINITY PREDICTED BY RF-SCORE:    0.00 PKD
ROOT
HETATM    1  O   UNL     1      -7.768   2.037  66.881  1.00  0.00    -0.064 OA 
HETATM    2  C   UNL     1      -7.889   3.037  67.798  1.00  0.00    -0.067 A  
HETATM    3  H   UNL     1      -7.025   1.444  66.885  1.00  0.00     0.000 HD 
HETATM    4  C   UNL     1      -8.974   3.903  67.792  1.00  0.00    -0.155 A  
HETATM    5  C   UNL     1      -9.026   4.953  68.715  1.00  0.00    -0.132 A  
HETATM    6  C   UNL     1      -8.007   5.144  69.668  1.00  0.00    -0.079 A  
HETATM    7  C   UNL     1      -6.937   4.230  69.663  1.00  0.00    -0.045 A  
HETATM    8  C   UNL     1      -6.879   3.184  68.737  1.00  0.00    -0.044 A  
ENDROOT
BRANCH   6   9
HETATM    9  C   UNL     1      -7.975   6.377  70.586  1.00  0.00    -0.112 C  
HETATM   10  C   UNL     1      -7.559   6.154  72.071  1.00  0.00    -0.096 C  
HETATM   11  N   UNL     1      -8.322   5.169  72.848  1.00  0.00    -0.108 NA 
HETATM   12  C   UNL     1      -9.704   5.579  73.099  1.00  0.00    -0.150 C  
HETATM   13  H   UNL     1      -7.845   4.949  73.722  1.00  0.00     0.000 HD 
HETATM   14  C   UNL     1     -10.586   5.623  71.844  1.00  0.00    -0.287 C  
HETATM   15  C   UNL     1     -10.458   6.932  71.089  1.00  0.00    -0.234 A  
HETATM   16  C   UNL     1     -11.544   7.823  70.946  1.00  0.00    -0.274 A  
HETATM   17  C   UNL     1     -11.372   9.053  70.299  1.00  0.00    -0.178 A  
HETATM   18 CL   UNL     1     -13.128   7.465  71.555  1.00  0.00    -0.416 Cl 
HETATM   19  C   UNL     1     -10.135   9.405  69.784  1.00  0.00    -0.211 A  
HETATM   20  O   UNL     1     -12.391   9.960  70.144  1.00  0.00    -0.484 OA 
HETATM   21  H   UNL     1     -12.275  10.794  69.705  1.00  0.00     0.000 HD 
HETATM   22  O   UNL     1      -9.960  10.617  69.180  1.00  0.00    -0.208 OA 
HETATM   23  C   UNL     1      -9.061   8.538  69.878  1.00  0.00    -0.150 A  
HETATM   24  H   UNL     1      -9.112  10.858  68.827  1.00  0.00     0.000 HD 
HETATM   25  C   UNL     1      -9.204   7.291  70.521  1.00  0.00    -0.158 A  
ENDBRANCH   6   9
TORSDOF 1
ENDMDL
MODEL      148
REMARK 921   NORMALIZED FREE ENERGY PREDICTED BY IDOCK:   -3.58 KCAL/MOL
REMARK 922        TOTAL FREE ENERGY PREDICTED BY IDOCK:   -4.11 KCAL/MOL
REMARK 923 INTER-LIGAND FREE ENERGY PREDICTED BY IDOCK:   -3.79 KCAL/MOL
REMARK 924 INTRA-LIGAND FREE ENERGY PREDICTED BY IDOCK:   -0.32 KCAL/MOL
REMARK 927      BINDING AFFINITY PREDICTED BY RF-SCORE:    0.00 PKD
ROOT
HETATM    1  O   UNL     1     -13.128  11.701  70.769  1.00  0.00    -0.070 OA 
HETATM    2  C   UNL     1     -11.957  11.045  70.530  1.00  0.00    -0.379 A  
HETATM    3  H   UNL     1     -13.717  11.430  71.464  1.00  0.00     0.000 HD 
HETATM    4  C   UNL     1     -11.096  11.440  69.516  1.00  0.00    -0.274 A  
HETATM    5  C   UNL     1      -9.935  10.699  69.268  1.00  0.00    -0.215 A  
HETATM    6  C   UNL     1      -9.607   9.567  70.038  1.00  0.00    -0.272 A  
HETATM    7  C   UNL     1     -10.490   9.213  71.075  1.00  0.00    -0.368 A  
HETATM    8  C   UNL     1     -11.654   9.946  71.321  1.00  0.00    -0.456 A  
ENDROOT
BRANCH   6   9
HETATM    9  C   UNL     1      -8.418   8.659  69.681  1.00  0.00    -0.129 C  
HETATM   10  C   UNL     1      -7.440   9.163  68.578  1.00  0.00    -0.081 C  
HETATM   11  N   UNL     1      -8.011   9.506  67.270  1.00  0.00    -0.106 NA 
HETATM   12  C   UNL     1      -8.532   8.347  66.546  1.00  0.00    -0.113 C  
HETATM   13  H   UNL     1      -7.335  10.015  66.701  1.00  0.00     0.000 HD 
HETATM   14  C   UNL     1      -9.773   7.709  67.185  1.00  0.00    -0.239 C  
HETATM   15  C   UNL     1      -9.420   6.721  68.279  1.00  0.00    -0.125 A  
HETATM   16  C   UNL     1      -9.719   5.345  68.170  1.00  0.00    -0.137 A  
HETATM   17  C   UNL     1      -9.320   4.451  69.171  1.00  0.00    -0.155 A  
HETATM   18 CL   UNL     1     -10.575   4.684  66.814  1.00  0.00    -0.099 Cl 
HETATM   19  C   UNL     1      -8.636   4.909  70.285  1.00  0.00    -0.094 A  
HETATM   20  O   UNL     1      -9.574   3.103  69.107  1.00  0.00    -0.149 OA 
HETATM   21  H   UNL     1      -9.304   2.496  69.787  1.00  0.00     0.000 HD 
HETATM   22  O   UNL     1      -8.221   4.033  71.245  1.00  0.00    -0.070 OA 
HETATM   23  C   UNL     1      -8.360   6.256  70.437  1.00  0.00    -0.126 A  
HETATM   24  H   UNL     1      -7.751   4.347  72.010  1.00  0.00     0.000 HD 
HETATM   25  C   UNL     1      -8.752   7.181  69.447  1.00  0.00    -0.134 A  
ENDBRANCH   6   9
TORSDOF 1
ENDMDL
MODEL      149
REMARK 921   NORMALIZED FREE ENERGY PREDICTED BY IDOCK:   -3.56 KCAL/MOL
REMARK 922        TOTAL FREE ENERGY PREDICTED BY IDOCK:   -4.09 KCAL/MOL
REMARK 923 INTER-LIGAND FREE ENERGY PREDICTED BY IDOCK:   -4.10 KCAL/MOL
REMARK 924 INTRA-LIGAND FREE ENERGY PREDICTED BY IDOCK:    0.01 KCAL/MOL
REMARK 927      BINDING AFFINITY PREDICTED BY RF-SCORE:    0.00 PKD
ROOT
HETATM    1  O   UNL     1      -6.099   7.357  64.753  1.00  0.00    -0.037 OA 
HETATM    2  C   UNL     1      -6.742   8.286  65.515  1.00  0.00    -0.055 A  
HETATM    3  H   UNL     1      -5.263   6.989  65.017  1.00  0.00     0.000 HD 
HETATM    4  C   UNL     1      -7.962   8.825  65.130  1.00  0.00    -0.125 A  
HETATM    5  C   UNL     1      -8.555   9.820  65.914  1.00  0.00    -0.149 A  
HETATM    6  C   UNL     1      -7.951  10.281  67.099  1.00  0.00    -0.114 A  
HETATM    7  C   UNL     1      -6.728   9.692  67.472  1.00  0.00    -0.070 A  
HETATM    8  C   UNL     1      -6.129   8.702  66.688  1.00  0.00    -0.057 A  
ENDROOT
BRANCH   6   9
HETATM    9  C   UNL     1      -8.514  11.475  67.887  1.00  0.00    -0.142 C  
HETATM   10  C   UNL     1      -9.332  11.162  69.175  1.00  0.00     0.039 C  
HETATM   11  N   UNL     1     -10.487  10.266  69.043  1.00  0.00    -0.203 NA 
HETATM   12  C   UNL     1     -11.580  10.845  68.261  1.00  0.00    -0.262 C  
HETATM   13  H   UNL     1     -10.817   9.963  69.959  1.00  0.00     0.000 HD 
HETATM   14  C   UNL     1     -11.259  11.035  66.773  1.00  0.00    -0.163 C  
HETATM   15  C   UNL     1     -10.528  12.335  66.498  1.00  0.00    -0.254 A  
HETATM   16  C   UNL     1     -11.098  13.363  65.715  1.00  0.00    -0.282 A  
HETATM   17  C   UNL     1     -10.423  14.576  65.536  1.00  0.00    -0.356 A  
HETATM   18 CL   UNL     1     -12.644  13.197  64.945  1.00  0.00    -0.485 Cl 
HETATM   19  C   UNL     1      -9.182  14.777  66.118  1.00  0.00    -0.202 A  
HETATM   20  O   UNL     1     -10.938  15.611  64.795  1.00  0.00    -0.520 OA 
HETATM   21  H   UNL     1     -10.479  16.434  64.673  1.00  0.00     0.000 HD 
HETATM   22  O   UNL     1      -8.538  15.971  65.968  1.00  0.00    -0.322 OA 
HETATM   23  C   UNL     1      -8.582  13.777  66.861  1.00  0.00    -0.128 A  
HETATM   24  H   UNL     1      -7.686  16.110  66.368  1.00  0.00     0.000 HD 
HETATM   25  C   UNL     1      -9.237  12.542  67.056  1.00  0.00    -0.214 A  
ENDBRANCH   6   9
TORSDOF 1
ENDMDL
MODEL      150
REMARK 921   NORMALIZED FREE ENERGY PREDICTED BY IDOCK:   -3.54 KCAL/MOL
REMARK 922        TOTAL FREE ENERGY PREDICTED BY IDOCK:   -4.07 KCAL/MOL
REMARK 923 INTER-LIGAND FREE ENERGY PREDICTED BY IDOCK:   -4.21 KCAL/MOL
REMARK 924 INTRA-LIGAND FREE ENERGY PREDICTED BY IDOCK:    0.14 KCAL/MOL
REMARK 927      BINDING AFFINITY PREDICTED BY RF-SCORE:    0.00 PKD
ROOT
HETATM    1  O   UNL     1      -9.757  18.282  68.295  1.00  0.00    -0.302 OA 
HETATM    2  C   UNL     1      -9.560  16.948  68.099  1.00  0.00    -0.255 A  
HETATM    3  H   UNL     1     -10.602  18.688  68.145  1.00  0.00     0.000 HD 
HETATM    4  C   UNL     1      -8.324  16.355  68.318  1.00  0.00    -0.189 A  
HETATM    5  C   UNL     1      -8.154  14.993  68.045  1.00  0.00    -0.132 A  
HETATM    6  C   UNL     1      -9.215  14.201  67.566  1.00  0.00    -0.192 A  
HETATM    7  C   UNL     1     -10.460  14.830  67.383  1.00  0.00    -0.256 A  
HETATM    8  C   UNL     1     -10.632  16.193  67.648  1.00  0.00    -0.315 A  
ENDROOT
BRANCH   6   9
HETATM    9  C   UNL     1      -9.004  12.745  67.120  1.00  0.00    -0.214 C  
HETATM   10  C   UNL     1      -9.661  12.305  65.777  1.00  0.00    -0.216 C  
HETATM   11  N   UNL     1     -11.110  12.498  65.636  1.00  0.00    -0.292 NA 
HETATM   12  C   UNL     1     -11.895  11.638  66.522  1.00  0.00     0.217 C  
HETATM   13  H   UNL     1     -11.398  12.380  64.666  1.00  0.00     0.000 HD 
HETATM   14  C   UNL     1     -11.756  11.973  68.013  1.00  0.00    -0.398 C  
HETATM   15  C   UNL     1     -10.543  11.320  68.645  1.00  0.00    -0.231 A  
HETATM   16  C   UNL     1     -10.661  10.350  69.664  1.00  0.00    -0.265 A  
HETATM   17  C   UNL     1      -9.522   9.720  70.180  1.00  0.00    -0.229 A  
HETATM   18 CL   UNL     1     -12.193   9.879  70.327  1.00  0.00    -0.177 Cl 
HETATM   19  C   UNL     1      -8.264  10.049  69.701  1.00  0.00    -0.175 A  
HETATM   20  O   UNL     1      -9.582   8.762  71.161  1.00  0.00    -0.196 OA 
HETATM   21  H   UNL     1      -8.809   8.334  71.512  1.00  0.00     0.000 HD 
HETATM   22  O   UNL     1      -7.157   9.412  70.182  1.00  0.00    -0.059 OA 
HETATM   23  C   UNL     1      -8.113  11.021  68.728  1.00  0.00    -0.145 A  
HETATM   24  H   UNL     1      -6.294   9.638  69.853  1.00  0.00     0.000 HD 
HETATM   25  C   UNL     1      -9.243  11.675  68.192  1.00  0.00    -0.184 A  
ENDBRANCH   6   9
TORSDOF 1
ENDMDL
MODEL      151
REMARK 921   NORMALIZED FREE ENERGY PREDICTED BY IDOCK:   -3.52 KCAL/MOL
REMARK 922        TOTAL FREE ENERGY PREDICTED BY IDOCK:   -4.05 KCAL/MOL
REMARK 923 INTER-LIGAND FREE ENERGY PREDICTED BY IDOCK:   -3.53 KCAL/MOL
REMARK 924 INTRA-LIGAND FREE ENERGY PREDICTED BY IDOCK:   -0.52 KCAL/MOL
REMARK 927      BINDING AFFINITY PREDICTED BY RF-SCORE:    0.00 PKD
ROOT
HETATM    1  O   UNL     1      -6.226   5.119  63.255  1.00  0.00    -0.021 OA 
HETATM    2  C   UNL     1      -6.887   6.079  63.962  1.00  0.00    -0.038 A  
HETATM    3  H   UNL     1      -6.112   5.183  62.314  1.00  0.00     0.000 HD 
HETATM    4  C   UNL     1      -7.054   5.986  65.336  1.00  0.00    -0.065 A  
HETATM    5  C   UNL     1      -7.792   6.965  66.010  1.00  0.00    -0.104 A  
HETATM    6  C   UNL     1      -8.357   8.059  65.328  1.00  0.00    -0.151 A  
HETATM    7  C   UNL     1      -8.143   8.136  63.939  1.00  0.00    -0.114 A  
HETATM    8  C   UNL     1      -7.412   7.155  63.261  1.00  0.00    -0.092 A  
ENDROOT
BRANCH   6   9
HETATM    9  C   UNL     1      -9.293   9.057  66.029  1.00  0.00    -0.305 C  
HETATM   10  C   UNL     1      -9.265  10.535  65.534  1.00  0.00    -0.188 C  
HETATM   11  N   UNL     1      -7.969  11.225  65.534  1.00  0.00    -0.354 NA 
HETATM   12  C   UNL     1      -7.444  11.466  66.878  1.00  0.00    -0.147 C  
HETATM   13  H   UNL     1      -8.022  12.094  65.004  1.00  0.00     0.000 HD 
HETATM   14  C   UNL     1      -7.033  10.194  67.632  1.00  0.00    -0.085 C  
HETATM   15  C   UNL     1      -8.203   9.531  68.334  1.00  0.00    -0.113 A  
HETATM   16  C   UNL     1      -8.266   9.419  69.740  1.00  0.00    -0.143 A  
HETATM   17  C   UNL     1      -9.391   8.859  70.358  1.00  0.00    -0.193 A  
HETATM   18 CL   UNL     1      -6.984   9.961  70.775  1.00  0.00    -0.070 Cl 
HETATM   19  C   UNL     1     -10.452   8.402  69.593  1.00  0.00    -0.221 A  
HETATM   20  O   UNL     1      -9.508   8.738  71.720  1.00  0.00    -0.260 OA 
HETATM   21  H   UNL     1     -10.271   8.358  72.139  1.00  0.00     0.000 HD 
HETATM   22  O   UNL     1     -11.562   7.884  70.197  1.00  0.00    -0.473 OA 
HETATM   23  C   UNL     1     -10.405   8.466  68.212  1.00  0.00    -0.244 A  
HETATM   24  H   UNL     1     -12.290   7.570  69.673  1.00  0.00     0.000 HD 
HETATM   25  C   UNL     1      -9.282   9.021  67.562  1.00  0.00    -0.152 A  
ENDBRANCH   6   9
TORSDOF 1
ENDMDL
MODEL      152
REMARK 921   NORMALIZED FREE ENERGY PREDICTED BY IDOCK:   -3.49 KCAL/MOL
REMARK 922        TOTAL FREE ENERGY PREDICTED BY IDOCK:   -4.02 KCAL/MOL
REMARK 923 INTER-LIGAND FREE ENERGY PREDICTED BY IDOCK:   -3.50 KCAL/MOL
REMARK 924 INTRA-LIGAND FREE ENERGY PREDICTED BY IDOCK:   -0.51 KCAL/MOL
REMARK 927      BINDING AFFINITY PREDICTED BY RF-SCORE:    0.00 PKD
ROOT
HETATM    1  O   UNL     1      -5.779   4.833  69.437  1.00  0.00    -0.015 OA 
HETATM    2  C   UNL     1      -6.542   5.730  68.751  1.00  0.00    -0.051 A  
HETATM    3  H   UNL     1      -5.447   4.044  69.024  1.00  0.00     0.000 HD 
HETATM    4  C   UNL     1      -7.029   6.882  69.354  1.00  0.00    -0.066 A  
HETATM    5  C   UNL     1      -7.858   7.744  68.628  1.00  0.00    -0.120 A  
HETATM    6  C   UNL     1      -8.201   7.479  67.289  1.00  0.00    -0.115 A  
HETATM    7  C   UNL     1      -7.667   6.317  66.702  1.00  0.00    -0.100 A  
HETATM    8  C   UNL     1      -6.843   5.450  67.427  1.00  0.00    -0.060 A  
ENDROOT
BRANCH   6   9
HETATM    9  C   UNL     1      -9.229   8.334  66.530  1.00  0.00    -0.236 C  
HETATM   10  C   UNL     1      -8.995   8.549  65.004  1.00  0.00     0.050 C  
HETATM   11  N   UNL     1      -7.707   9.117  64.589  1.00  0.00    -0.109 NA 
HETATM   12  C   UNL     1      -7.529  10.509  65.005  1.00  0.00    -0.011 C  
HETATM   13  H   UNL     1      -7.575   9.020  63.583  1.00  0.00     0.000 HD 
HETATM   14  C   UNL     1      -7.394  10.701  66.522  1.00  0.00    -0.134 C  
HETATM   15  C   UNL     1      -8.739  10.785  67.219  1.00  0.00    -0.130 A  
HETATM   16  C   UNL     1      -9.164  11.956  67.885  1.00  0.00    -0.187 A  
HETATM   17  C   UNL     1     -10.438  12.020  68.461  1.00  0.00    -0.229 A  
HETATM   18 CL   UNL     1      -8.161  13.364  68.024  1.00  0.00    -0.149 Cl 
HETATM   19  C   UNL     1     -11.293  10.932  68.392  1.00  0.00    -0.304 A  
HETATM   20  O   UNL     1     -10.905  13.137  69.109  1.00  0.00    -0.389 OA 
HETATM   21  H   UNL     1     -11.770  13.181  69.500  1.00  0.00     0.000 HD 
HETATM   22  O   UNL     1     -12.546  11.006  68.928  1.00  0.00    -0.633 OA 
HETATM   23  C   UNL     1     -10.891   9.759  67.777  1.00  0.00    -0.306 A  
HETATM   24  H   UNL     1     -13.132  10.259  68.880  1.00  0.00     0.000 HD 
HETATM   25  C   UNL     1      -9.611   9.663  67.190  1.00  0.00    -0.210 A  
ENDBRANCH   6   9
TORSDOF 1
ENDMDL
MODEL      153
REMARK 921   NORMALIZED FREE ENERGY PREDICTED BY IDOCK:   -3.46 KCAL/MOL
REMARK 922        TOTAL FREE ENERGY PREDICTED BY IDOCK:   -3.99 KCAL/MOL
REMARK 923 INTER-LIGAND FREE ENERGY PREDICTED BY IDOCK:   -3.51 KCAL/MOL
REMARK 924 INTRA-LIGAND FREE ENERGY PREDICTED BY IDOCK:   -0.47 KCAL/MOL
REMARK 927      BINDING AFFINITY PREDICTED BY RF-SCORE:    0.00 PKD
ROOT
HETATM    1  O   UNL     1      -9.677  10.961  69.269  1.00  0.00    -0.361 OA 
HETATM    2  C   UNL     1      -9.215  12.055  68.599  1.00  0.00    -0.037 A  
HETATM    3  H   UNL     1     -10.597  10.860  69.483  1.00  0.00     0.000 HD 
HETATM    4  C   UNL     1      -7.870  12.202  68.288  1.00  0.00    -0.153 A  
HETATM    5  C   UNL     1      -7.433  13.369  67.653  1.00  0.00    -0.182 A  
HETATM    6  C   UNL     1      -8.330  14.397  67.305  1.00  0.00    -0.228 A  
HETATM    7  C   UNL     1      -9.689  14.201  67.612  1.00  0.00    -0.228 A  
HETATM    8  C   UNL     1     -10.129  13.038  68.252  1.00  0.00    -0.239 A  
ENDROOT
BRANCH   6   9
HETATM    9  C   UNL     1      -7.843  15.745  66.747  1.00  0.00    -0.248 C  
HETATM   10  C   UNL     1      -6.357  16.133  67.008  1.00  0.00    -0.040 C  
HETATM   11  N   UNL     1      -5.897  16.155  68.402  1.00  0.00    -0.104 NA 
HETATM   12  C   UNL     1      -6.513  17.219  69.196  1.00  0.00    -0.235 C  
HETATM   13  H   UNL     1      -4.880  16.211  68.448  1.00  0.00     0.000 HD 
HETATM   14  C   UNL     1      -8.015  17.031  69.446  1.00  0.00     0.220 C  
HETATM   15  C   UNL     1      -8.864  17.551  68.302  1.00  0.00    -0.274 A  
HETATM   16  C   UNL     1      -9.757  18.633  68.465  1.00  0.00    -0.370 A  
HETATM   17  C   UNL     1     -10.477  19.129  67.372  1.00  0.00    -0.458 A  
HETATM   18 CL   UNL     1     -10.010  19.408  69.996  1.00  0.00     0.279 Cl 
HETATM   19  C   UNL     1     -10.328  18.557  66.119  1.00  0.00    -0.426 A  
HETATM   20  O   UNL     1     -11.347  20.186  67.473  1.00  0.00     0.237 OA 
HETATM   21  H   UNL     1     -11.837  20.523  66.732  1.00  0.00     0.000 HD 
HETATM   22  O   UNL     1     -11.007  19.060  65.048  1.00  0.00    -0.440 OA 
HETATM   23  C   UNL     1      -9.488  17.473  65.935  1.00  0.00     0.003 A  
HETATM   24  H   UNL     1     -10.905  18.668  64.188  1.00  0.00     0.000 HD 
HETATM   25  C   UNL     1      -8.752  16.949  67.019  1.00  0.00    -0.230 A  
ENDBRANCH   6   9
TORSDOF 1
ENDMDL
MODEL      154
REMARK 921   NORMALIZED FREE ENERGY PREDICTED BY IDOCK:   -3.43 KCAL/MOL
REMARK 922        TOTAL FREE ENERGY PREDICTED BY IDOCK:   -3.96 KCAL/MOL
REMARK 923 INTER-LIGAND FREE ENERGY PREDICTED BY IDOCK:   -3.57 KCAL/MOL
REMARK 924 INTRA-LIGAND FREE ENERGY PREDICTED BY IDOCK:   -0.38 KCAL/MOL
REMARK 927      BINDING AFFINITY PREDICTED BY RF-SCORE:    0.00 PKD
ROOT
HETATM    1  O   UNL     1      -5.633  19.938  64.332  1.00  0.00    -0.184 OA 
HETATM    2  C   UNL     1      -6.141  19.326  65.439  1.00  0.00    -0.237 A  
HETATM    3  H   UNL     1      -5.882  19.668  63.456  1.00  0.00     0.000 HD 
HETATM    4  C   UNL     1      -5.778  19.719  66.719  1.00  0.00    -0.172 A  
HETATM    5  C   UNL     1      -6.279  19.022  67.824  1.00  0.00    -0.217 A  
HETATM    6  C   UNL     1      -7.161  17.935  67.669  1.00  0.00    -0.202 A  
HETATM    7  C   UNL     1      -7.528  17.583  66.358  1.00  0.00    -0.334 A  
HETATM    8  C   UNL     1      -7.024  18.273  65.251  1.00  0.00     0.210 A  
ENDROOT
BRANCH   6   9
HETATM    9  C   UNL     1      -7.597  17.068  68.862  1.00  0.00    -0.233 C  
HETATM   10  C   UNL     1      -6.521  16.743  69.941  1.00  0.00    -0.009 C  
HETATM   11  N   UNL     1      -5.280  16.102  69.490  1.00  0.00    -0.113 NA 
HETATM   12  C   UNL     1      -5.479  14.736  69.004  1.00  0.00    -0.093 C  
HETATM   13  H   UNL     1      -4.572  16.126  70.223  1.00  0.00     0.000 HD 
HETATM   14  C   UNL     1      -6.281  14.642  67.699  1.00  0.00    -0.106 C  
HETATM   15  C   UNL     1      -7.779  14.653  67.935  1.00  0.00    -0.149 A  
HETATM   16  C   UNL     1      -8.595  13.547  67.614  1.00  0.00    -0.185 A  
HETATM   17  C   UNL     1      -9.965  13.567  67.906  1.00  0.00    -0.245 A  
HETATM   18 CL   UNL     1      -7.969  12.117  66.859  1.00  0.00    -0.132 Cl 
HETATM   19  C   UNL     1     -10.535  14.678  68.505  1.00  0.00    -0.247 A  
HETATM   20  O   UNL     1     -10.799  12.513  67.626  1.00  0.00    -0.215 OA 
HETATM   21  H   UNL     1     -11.729  12.527  67.824  1.00  0.00     0.000 HD 
HETATM   22  O   UNL     1     -11.864  14.685  68.818  1.00  0.00    -0.322 OA 
HETATM   23  C   UNL     1      -9.768  15.791  68.800  1.00  0.00    -0.213 A  
HETATM   24  H   UNL     1     -12.255  15.447  69.229  1.00  0.00     0.000 HD 
HETATM   25  C   UNL     1      -8.386  15.801  68.514  1.00  0.00    -0.175 A  
ENDBRANCH   6   9
TORSDOF 1
ENDMDL
MODEL      155
REMARK 921   NORMALIZED FREE ENERGY PREDICTED BY IDOCK:   -3.38 KCAL/MOL
REMARK 922        TOTAL FREE ENERGY PREDICTED BY IDOCK:   -3.90 KCAL/MOL
REMARK 923 INTER-LIGAND FREE ENERGY PREDICTED BY IDOCK:   -3.92 KCAL/MOL
REMARK 924 INTRA-LIGAND FREE ENERGY PREDICTED BY IDOCK:    0.02 KCAL/MOL
REMARK 927      BINDING AFFINITY PREDICTED BY RF-SCORE:    0.00 PKD
ROOT
HETATM    1  O   UNL     1      -5.184  11.477  68.402  1.00  0.00    -0.040 OA 
HETATM    2  C   UNL     1      -6.325  10.736  68.467  1.00  0.00    -0.050 A  
HETATM    3  H   UNL     1      -4.341  11.079  68.216  1.00  0.00     0.000 HD 
HETATM    4  C   UNL     1      -7.556  11.318  68.738  1.00  0.00    -0.130 A  
HETATM    5  C   UNL     1      -8.691  10.509  68.855  1.00  0.00    -0.154 A  
HETATM    6  C   UNL     1      -8.620   9.113  68.685  1.00  0.00    -0.128 A  
HETATM    7  C   UNL     1      -7.361   8.562  68.384  1.00  0.00    -0.094 A  
HETATM    8  C   UNL     1      -6.223   9.367  68.273  1.00  0.00    -0.053 A  
ENDROOT
BRANCH   6   9
HETATM    9  C   UNL     1      -9.826   8.199  68.959  1.00  0.00    -0.176 C  
HETATM   10  C   UNL     1     -10.323   8.092  70.432  1.00  0.00    -0.206 C  
HETATM   11  N   UNL     1      -9.347   7.682  71.449  1.00  0.00    -0.140 NA 
HETATM   12  C   UNL     1      -8.904   6.295  71.297  1.00  0.00    -0.139 C  
HETATM   13  H   UNL     1      -9.710   7.846  72.387  1.00  0.00     0.000 HD 
HETATM   14  C   UNL     1      -8.060   6.036  70.042  1.00  0.00    -0.114 C  
HETATM   15  C   UNL     1      -8.910   5.777  68.813  1.00  0.00    -0.110 A  
HETATM   16  C   UNL     1      -8.895   4.536  68.141  1.00  0.00    -0.107 A  
HETATM   17  C   UNL     1      -9.742   4.310  67.049  1.00  0.00    -0.206 A  
HETATM   18 CL   UNL     1      -7.855   3.232  68.617  1.00  0.00    -0.058 Cl 
HETATM   19  C   UNL     1     -10.598   5.307  66.610  1.00  0.00    -0.270 A  
HETATM   20  O   UNL     1      -9.776   3.118  66.369  1.00  0.00    -0.407 OA 
HETATM   21  H   UNL     1     -10.350   2.964  65.627  1.00  0.00     0.000 HD 
HETATM   22  O   UNL     1     -11.444   5.076  65.565  1.00  0.00    -0.830 OA 
HETATM   23  C   UNL     1     -10.610   6.546  67.226  1.00  0.00    -0.383 A  
HETATM   24  H   UNL     1     -12.031   5.761  65.263  1.00  0.00     0.000 HD 
HETATM   25  C   UNL     1      -9.765   6.804  68.327  1.00  0.00    -0.126 A  
ENDBRANCH   6   9
TORSDOF 1
ENDMDL
MODEL      156
REMARK 921   NORMALIZED FREE ENERGY PREDICTED BY IDOCK:   -3.38 KCAL/MOL
REMARK 922        TOTAL FREE ENERGY PREDICTED BY IDOCK:   -3.89 KCAL/MOL
REMARK 923 INTER-LIGAND FREE ENERGY PREDICTED BY IDOCK:   -3.65 KCAL/MOL
REMARK 924 INTRA-LIGAND FREE ENERGY PREDICTED BY IDOCK:   -0.25 KCAL/MOL
REMARK 927      BINDING AFFINITY PREDICTED BY RF-SCORE:    0.00 PKD
ROOT
HETATM    1  O   UNL     1     -11.497  10.124  70.891  1.00  0.00    -0.327 OA 
HETATM    2  C   UNL     1     -10.612   9.105  70.700  1.00  0.00    -0.246 A  
HETATM    3  H   UNL     1     -12.419   9.959  71.047  1.00  0.00     0.000 HD 
HETATM    4  C   UNL     1      -9.264   9.345  70.473  1.00  0.00    -0.314 A  
HETATM    5  C   UNL     1      -8.404   8.270  70.221  1.00  0.00    -0.123 A  
HETATM    6  C   UNL     1      -8.871   6.942  70.210  1.00  0.00    -0.148 A  
HETATM    7  C   UNL     1     -10.238   6.735  70.472  1.00  0.00    -0.212 A  
HETATM    8  C   UNL     1     -11.102   7.807  70.717  1.00  0.00    -0.265 A  
ENDROOT
BRANCH   6   9
HETATM    9  C   UNL     1      -7.971   5.769  69.787  1.00  0.00    -0.100 C  
HETATM   10  C   UNL     1      -6.434   6.022  69.754  1.00  0.00    -0.042 C  
HETATM   11  N   UNL     1      -5.948   7.138  68.933  1.00  0.00    -0.022 NA 
HETATM   12  C   UNL     1      -6.135   6.922  67.498  1.00  0.00    -0.032 C  
HETATM   13  H   UNL     1      -4.972   7.345  69.144  1.00  0.00     0.000 HD 
HETATM   14  C   UNL     1      -7.602   6.919  67.046  1.00  0.00    -0.102 C  
HETATM   15  C   UNL     1      -8.260   5.563  67.218  1.00  0.00    -0.101 A  
HETATM   16  C   UNL     1      -8.722   4.811  66.116  1.00  0.00    -0.116 A  
HETATM   17  C   UNL     1      -9.265   3.534  66.307  1.00  0.00    -0.171 A  
HETATM   18 CL   UNL     1      -8.643   5.402  64.488  1.00  0.00    -0.116 Cl 
HETATM   19  C   UNL     1      -9.363   2.999  67.581  1.00  0.00    -0.195 A  
HETATM   20  O   UNL     1      -9.717   2.757  65.269  1.00  0.00    -0.353 OA 
HETATM   21  H   UNL     1     -10.086   1.891  65.398  1.00  0.00     0.000 HD 
HETATM   22  O   UNL     1      -9.864   1.743  67.763  1.00  0.00    -0.397 OA 
HETATM   23  C   UNL     1      -8.951   3.727  68.683  1.00  0.00    -0.176 A  
HETATM   24  H   UNL     1      -9.931   1.376  68.637  1.00  0.00     0.000 HD 
HETATM   25  C   UNL     1      -8.403   5.017  68.523  1.00  0.00    -0.088 A  
ENDBRANCH   6   9
TORSDOF 1
ENDMDL
MODEL      157
REMARK 921   NORMALIZED FREE ENERGY PREDICTED BY IDOCK:   -3.37 KCAL/MOL
REMARK 922        TOTAL FREE ENERGY PREDICTED BY IDOCK:   -3.89 KCAL/MOL
REMARK 923 INTER-LIGAND FREE ENERGY PREDICTED BY IDOCK:   -3.94 KCAL/MOL
REMARK 924 INTRA-LIGAND FREE ENERGY PREDICTED BY IDOCK:    0.05 KCAL/MOL
REMARK 927      BINDING AFFINITY PREDICTED BY RF-SCORE:    0.00 PKD
ROOT
HETATM    1  O   UNL     1     -11.329  13.212  68.114  1.00  0.00    -0.258 OA 
HETATM    2  C   UNL     1     -10.638  12.049  67.947  1.00  0.00    -0.202 A  
HETATM    3  H   UNL     1     -10.901  14.007  68.408  1.00  0.00     0.000 HD 
HETATM    4  C   UNL     1     -11.263  10.887  67.517  1.00  0.00    -0.364 A  
HETATM    5  C   UNL     1     -10.526   9.702  67.419  1.00  0.00    -0.319 A  
HETATM    6  C   UNL     1      -9.153   9.662  67.731  1.00  0.00    -0.132 A  
HETATM    7  C   UNL     1      -8.548  10.865  68.136  1.00  0.00    -0.133 A  
HETATM    8  C   UNL     1      -9.283  12.050  68.242  1.00  0.00    -0.192 A  
ENDROOT
BRANCH   6   9
HETATM    9  C   UNL     1      -8.369   8.341  67.773  1.00  0.00    -0.128 C  
HETATM   10  C   UNL     1      -8.625   7.319  66.625  1.00  0.00    -0.128 C  
HETATM   11  N   UNL     1     -10.010   6.886  66.399  1.00  0.00    -0.414 NA 
HETATM   12  C   UNL     1     -10.548   6.079  67.494  1.00  0.00    -0.273 C  
HETATM   13  H   UNL     1     -10.095   6.395  65.509  1.00  0.00     0.000 HD 
HETATM   14  C   UNL     1     -10.753   6.850  68.804  1.00  0.00    -0.255 C  
HETATM   15  C   UNL     1      -9.488   6.927  69.637  1.00  0.00    -0.147 A  
HETATM   16  C   UNL     1      -9.390   6.320  70.908  1.00  0.00    -0.161 A  
HETATM   17  C   UNL     1      -8.186   6.356  71.621  1.00  0.00    -0.117 A  
HETATM   18 CL   UNL     1     -10.726   5.501  71.653  1.00  0.00    -0.307 Cl 
HETATM   19  C   UNL     1      -7.078   6.996  71.090  1.00  0.00    -0.074 A  
HETATM   20  O   UNL     1      -8.034   5.771  72.854  1.00  0.00    -0.106 OA 
HETATM   21  H   UNL     1      -7.217   5.795  73.338  1.00  0.00     0.000 HD 
HETATM   22  O   UNL     1      -5.896   7.004  71.772  1.00  0.00    -0.037 OA 
HETATM   23  C   UNL     1      -7.153   7.630  69.863  1.00  0.00    -0.063 A  
HETATM   24  H   UNL     1      -5.136   7.443  71.407  1.00  0.00     0.000 HD 
HETATM   25  C   UNL     1      -8.354   7.614  69.123  1.00  0.00    -0.131 A  
ENDBRANCH   6   9
TORSDOF 1
ENDMDL
MODEL      158
REMARK 921   NORMALIZED FREE ENERGY PREDICTED BY IDOCK:   -3.36 KCAL/MOL
REMARK 922        TOTAL FREE ENERGY PREDICTED BY IDOCK:   -3.88 KCAL/MOL
REMARK 923 INTER-LIGAND FREE ENERGY PREDICTED BY IDOCK:   -3.43 KCAL/MOL
REMARK 924 INTRA-LIGAND FREE ENERGY PREDICTED BY IDOCK:   -0.44 KCAL/MOL
REMARK 927      BINDING AFFINITY PREDICTED BY RF-SCORE:    0.00 PKD
ROOT
HETATM    1  O   UNL     1      -7.301   3.958  64.642  1.00  0.00    -0.065 OA 
HETATM    2  C   UNL     1      -7.463   4.503  65.880  1.00  0.00    -0.082 A  
HETATM    3  H   UNL     1      -6.880   4.437  63.938  1.00  0.00     0.000 HD 
HETATM    4  C   UNL     1      -8.077   3.803  66.909  1.00  0.00    -0.095 A  
HETATM    5  C   UNL     1      -8.276   4.426  68.146  1.00  0.00    -0.090 A  
HETATM    6  C   UNL     1      -7.851   5.748  68.380  1.00  0.00    -0.101 A  
HETATM    7  C   UNL     1      -7.208   6.417  67.323  1.00  0.00    -0.078 A  
HETATM    8  C   UNL     1      -7.013   5.799  66.083  1.00  0.00    -0.059 A  
ENDROOT
BRANCH   6   9
HETATM    9  C   UNL     1      -8.197   6.494  69.679  1.00  0.00    -0.126 C  
HETATM   10  C   UNL     1      -9.230   5.825  70.635  1.00  0.00    -0.152 C  
HETATM   11  N   UNL     1     -10.544   5.480  70.079  1.00  0.00    -0.316 NA 
HETATM   12  C   UNL     1     -11.346   6.652  69.725  1.00  0.00    -0.354 C  
HETATM   13  H   UNL     1     -11.057   4.868  70.713  1.00  0.00     0.000 HD 
HETATM   14  C   UNL     1     -10.794   7.460  68.542  1.00  0.00    -0.071 C  
HETATM   15  C   UNL     1      -9.733   8.457  68.965  1.00  0.00    -0.171 A  
HETATM   16  C   UNL     1      -9.922   9.851  68.833  1.00  0.00    -0.181 A  
HETATM   17  C   UNL     1      -8.947  10.745  69.293  1.00  0.00    -0.030 A  
HETATM   18 CL   UNL     1     -11.344  10.533  68.113  1.00  0.00    -0.357 Cl 
HETATM   19  C   UNL     1      -7.783  10.271  69.876  1.00  0.00    -0.126 A  
HETATM   20  O   UNL     1      -9.087  12.108  69.201  1.00  0.00    -0.294 OA 
HETATM   21  H   UNL     1      -8.426  12.715  69.513  1.00  0.00     0.000 HD 
HETATM   22  O   UNL     1      -6.848  11.143  70.353  1.00  0.00    -0.490 OA 
HETATM   23  C   UNL     1      -7.555   8.911  69.987  1.00  0.00    -0.066 A  
HETATM   24  H   UNL     1      -6.049  10.818  70.753  1.00  0.00     0.000 HD 
HETATM   25  C   UNL     1      -8.516   7.986  69.529  1.00  0.00    -0.131 A  
ENDBRANCH   6   9
TORSDOF 1
ENDMDL
MODEL      159
REMARK 921   NORMALIZED FREE ENERGY PREDICTED BY IDOCK:   -3.36 KCAL/MOL
REMARK 922        TOTAL FREE ENERGY PREDICTED BY IDOCK:   -3.88 KCAL/MOL
REMARK 923 INTER-LIGAND FREE ENERGY PREDICTED BY IDOCK:   -3.40 KCAL/MOL
REMARK 924 INTRA-LIGAND FREE ENERGY PREDICTED BY IDOCK:   -0.48 KCAL/MOL
REMARK 927      BINDING AFFINITY PREDICTED BY RF-SCORE:    0.00 PKD
ROOT
HETATM    1  O   UNL     1      -5.498   3.353  64.832  1.00  0.00    -0.009 OA 
HETATM    2  C   UNL     1      -6.636   3.769  65.458  1.00  0.00    -0.040 A  
HETATM    3  H   UNL     1      -4.754   3.022  65.322  1.00  0.00     0.000 HD 
HETATM    4  C   UNL     1      -7.723   4.252  64.743  1.00  0.00    -0.078 A  
HETATM    5  C   UNL     1      -8.846   4.725  65.431  1.00  0.00    -0.146 A  
HETATM    6  C   UNL     1      -8.908   4.706  66.838  1.00  0.00    -0.111 A  
HETATM    7  C   UNL     1      -7.799   4.183  67.527  1.00  0.00    -0.091 A  
HETATM    8  C   UNL     1      -6.672   3.716  66.843  1.00  0.00    -0.046 A  
ENDROOT
BRANCH   6   9
HETATM    9  C   UNL     1     -10.068   5.358  67.608  1.00  0.00    -0.217 C  
HETATM   10  C   UNL     1     -10.890   6.457  66.868  1.00  0.00    -0.357 C  
HETATM   11  N   UNL     1     -10.153   7.604  66.324  1.00  0.00    -0.464 NA 
HETATM   12  C   UNL     1      -9.578   8.463  67.360  1.00  0.00    -0.157 C  
HETATM   13  H   UNL     1     -10.740   8.144  65.690  1.00  0.00     0.000 HD 
HETATM   14  C   UNL     1      -8.443   7.812  68.161  1.00  0.00    -0.124 C  
HETATM   15  C   UNL     1      -8.954   6.966  69.311  1.00  0.00    -0.137 A  
HETATM   16  C   UNL     1      -8.682   7.290  70.658  1.00  0.00    -0.147 A  
HETATM   17  C   UNL     1      -9.225   6.523  71.696  1.00  0.00    -0.143 A  
HETATM   18 CL   UNL     1      -7.684   8.635  71.107  1.00  0.00    -0.113 Cl 
HETATM   19  C   UNL     1     -10.028   5.431  71.411  1.00  0.00    -0.184 A  
HETATM   20  O   UNL     1      -9.001   6.803  73.021  1.00  0.00    -0.127 OA 
HETATM   21  H   UNL     1      -9.369   6.282  73.726  1.00  0.00     0.000 HD 
HETATM   22  O   UNL     1     -10.582   4.703  72.424  1.00  0.00    -0.201 OA 
HETATM   23  C   UNL     1     -10.285   5.068  70.101  1.00  0.00    -0.329 A  
HETATM   24  H   UNL     1     -11.134   3.953  72.229  1.00  0.00     0.000 HD 
HETATM   25  C   UNL     1      -9.749   5.819  69.034  1.00  0.00    -0.180 A  
ENDBRANCH   6   9
TORSDOF 1
ENDMDL
MODEL      160
REMARK 921   NORMALIZED FREE ENERGY PREDICTED BY IDOCK:   -3.36 KCAL/MOL
REMARK 922        TOTAL FREE ENERGY PREDICTED BY IDOCK:   -3.88 KCAL/MOL
REMARK 923 INTER-LIGAND FREE ENERGY PREDICTED BY IDOCK:   -3.47 KCAL/MOL
REMARK 924 INTRA-LIGAND FREE ENERGY PREDICTED BY IDOCK:   -0.41 KCAL/MOL
REMARK 927      BINDING AFFINITY PREDICTED BY RF-SCORE:    0.00 PKD
ROOT
HETATM    1  O   UNL     1     -11.811   5.315  72.883  1.00  0.00    -0.446 OA 
HETATM    2  C   UNL     1     -10.886   5.929  72.091  1.00  0.00    -0.241 A  
HETATM    3  H   UNL     1     -11.962   5.593  73.778  1.00  0.00     0.000 HD 
HETATM    4  C   UNL     1     -10.664   5.523  70.783  1.00  0.00    -0.294 A  
HETATM    5  C   UNL     1      -9.662   6.143  70.028  1.00  0.00    -0.195 A  
HETATM    6  C   UNL     1      -8.880   7.186  70.560  1.00  0.00    -0.154 A  
HETATM    7  C   UNL     1      -9.151   7.588  71.881  1.00  0.00    -0.153 A  
HETATM    8  C   UNL     1     -10.148   6.967  72.640  1.00  0.00    -0.195 A  
ENDROOT
BRANCH   6   9
HETATM    9  C   UNL     1      -7.679   7.770  69.797  1.00  0.00    -0.097 C  
HETATM   10  C   UNL     1      -6.960   9.000  70.429  1.00  0.00    -0.058 C  
HETATM   11  N   UNL     1      -7.777  10.180  70.735  1.00  0.00    -0.328 NA 
HETATM   12  C   UNL     1      -8.288  10.853  69.540  1.00  0.00     0.177 C  
HETATM   13  H   UNL     1      -7.264  10.832  71.327  1.00  0.00     0.000 HD 
HETATM   14  C   UNL     1      -9.329  10.043  68.756  1.00  0.00    -0.162 C  
HETATM   15  C   UNL     1      -8.694   9.062  67.790  1.00  0.00    -0.125 A  
HETATM   16  C   UNL     1      -8.860   9.174  66.393  1.00  0.00    -0.141 A  
HETATM   17  C   UNL     1      -8.206   8.289  65.527  1.00  0.00    -0.138 A  
HETATM   18 CL   UNL     1      -9.859  10.394  65.669  1.00  0.00    -0.299 Cl 
HETATM   19  C   UNL     1      -7.395   7.287  66.034  1.00  0.00    -0.075 A  
HETATM   20  O   UNL     1      -8.323   8.363  64.161  1.00  0.00    -0.284 OA 
HETATM   21  H   UNL     1      -7.880   7.762  63.573  1.00  0.00     0.000 HD 
HETATM   22  O   UNL     1      -6.733   6.444  65.189  1.00  0.00    -0.044 OA 
HETATM   23  C   UNL     1      -7.241   7.129  67.400  1.00  0.00    -0.090 A  
HETATM   24  H   UNL     1      -6.177   5.756  65.537  1.00  0.00     0.000 HD 
HETATM   25  C   UNL     1      -7.890   8.004  68.297  1.00  0.00    -0.123 A  
ENDBRANCH   6   9
TORSDOF 1
ENDMDL
MODEL      161
REMARK 921   NORMALIZED FREE ENERGY PREDICTED BY IDOCK:   -3.32 KCAL/MOL
REMARK 922        TOTAL FREE ENERGY PREDICTED BY IDOCK:   -3.83 KCAL/MOL
REMARK 923 INTER-LIGAND FREE ENERGY PREDICTED BY IDOCK:   -3.37 KCAL/MOL
REMARK 924 INTRA-LIGAND FREE ENERGY PREDICTED BY IDOCK:   -0.46 KCAL/MOL
REMARK 927      BINDING AFFINITY PREDICTED BY RF-SCORE:    0.00 PKD
ROOT
HETATM    1  O   UNL     1     -10.278   1.484  63.455  1.00  0.00    -0.126 OA 
HETATM    2  C   UNL     1      -9.603   2.389  64.218  1.00  0.00    -0.135 A  
HETATM    3  H   UNL     1     -11.085   1.713  63.010  1.00  0.00     0.000 HD 
HETATM    4  C   UNL     1      -8.424   2.054  64.870  1.00  0.00    -0.090 A  
HETATM    5  C   UNL     1      -7.797   2.998  65.691  1.00  0.00    -0.085 A  
HETATM    6  C   UNL     1      -8.326   4.292  65.861  1.00  0.00    -0.109 A  
HETATM    7  C   UNL     1      -9.508   4.603  65.163  1.00  0.00    -0.147 A  
HETATM    8  C   UNL     1     -10.140   3.661  64.347  1.00  0.00    -0.203 A  
ENDROOT
BRANCH   6   9
HETATM    9  C   UNL     1      -7.734   5.284  66.875  1.00  0.00    -0.096 C  
HETATM   10  C   UNL     1      -6.767   4.713  67.955  1.00  0.00    -0.054 C  
HETATM   11  N   UNL     1      -7.263   3.619  68.799  1.00  0.00    -0.050 NA 
HETATM   12  C   UNL     1      -8.336   4.030  69.704  1.00  0.00    -0.057 C  
HETATM   13  H   UNL     1      -6.499   3.184  69.315  1.00  0.00     0.000 HD 
HETATM   14  C   UNL     1      -9.649   4.399  69.001  1.00  0.00    -0.244 C  
HETATM   15  C   UNL     1      -9.665   5.836  68.516  1.00  0.00    -0.161 A  
HETATM   16  C   UNL     1     -10.570   6.790  69.031  1.00  0.00    -0.230 A  
HETATM   17  C   UNL     1     -10.513   8.123  68.608  1.00  0.00    -0.165 A  
HETATM   18 CL   UNL     1     -11.782   6.383  70.203  1.00  0.00    -0.464 Cl 
HETATM   19  C   UNL     1      -9.572   8.519  67.671  1.00  0.00    -0.153 A  
HETATM   20  O   UNL     1     -11.360   9.091  69.086  1.00  0.00    -0.423 OA 
HETATM   21  H   UNL     1     -11.322   9.996  68.798  1.00  0.00     0.000 HD 
HETATM   22  O   UNL     1      -9.497   9.825  67.281  1.00  0.00    -0.149 OA 
HETATM   23  C   UNL     1      -8.695   7.601  67.122  1.00  0.00    -0.125 A  
HETATM   24  H   UNL     1      -8.851  10.097  66.639  1.00  0.00     0.000 HD 
HETATM   25  C   UNL     1      -8.731   6.249  67.527  1.00  0.00    -0.105 A  
ENDBRANCH   6   9
TORSDOF 1
ENDMDL
MODEL      162
REMARK 921   NORMALIZED FREE ENERGY PREDICTED BY IDOCK:   -3.31 KCAL/MOL
REMARK 922        TOTAL FREE ENERGY PREDICTED BY IDOCK:   -3.83 KCAL/MOL
REMARK 923 INTER-LIGAND FREE ENERGY PREDICTED BY IDOCK:   -3.31 KCAL/MOL
REMARK 924 INTRA-LIGAND FREE ENERGY PREDICTED BY IDOCK:   -0.52 KCAL/MOL
REMARK 927      BINDING AFFINITY PREDICTED BY RF-SCORE:    0.00 PKD
ROOT
HETATM    1  O   UNL     1      -5.464   9.746  68.711  1.00  0.00    -0.037 OA 
HETATM    2  C   UNL     1      -6.399   8.764  68.853  1.00  0.00    -0.045 A  
HETATM    3  H   UNL     1      -5.452  10.315  67.950  1.00  0.00     0.000 HD 
HETATM    4  C   UNL     1      -6.417   7.933  69.965  1.00  0.00    -0.033 A  
HETATM    5  C   UNL     1      -7.358   6.900  70.039  1.00  0.00    -0.082 A  
HETATM    6  C   UNL     1      -8.303   6.692  69.017  1.00  0.00    -0.120 A  
HETATM    7  C   UNL     1      -8.272   7.571  67.919  1.00  0.00    -0.123 A  
HETATM    8  C   UNL     1      -7.329   8.600  67.838  1.00  0.00    -0.092 A  
ENDROOT
BRANCH   6   9
HETATM    9  C   UNL     1      -9.240   5.472  69.014  1.00  0.00    -0.143 C  
HETATM   10  C   UNL     1     -10.660   5.663  68.402  1.00  0.00    -0.179 C  
HETATM   11  N   UNL     1     -11.498   6.735  68.953  1.00  0.00    -0.578 NA 
HETATM   12  C   UNL     1     -11.918   6.487  70.333  1.00  0.00    -0.229 C  
HETATM   13  H   UNL     1     -12.304   6.909  68.355  1.00  0.00     0.000 HD 
HETATM   14  C   UNL     1     -10.776   6.530  71.357  1.00  0.00    -0.280 C  
HETATM   15  C   UNL     1     -10.042   5.207  71.465  1.00  0.00    -0.257 A  
HETATM   16  C   UNL     1     -10.048   4.443  72.653  1.00  0.00    -0.173 A  
HETATM   17  C   UNL     1      -9.414   3.195  72.697  1.00  0.00    -0.106 A  
HETATM   18 CL   UNL     1     -10.828   4.985  74.104  1.00  0.00    -0.301 Cl 
HETATM   19  C   UNL     1      -8.767   2.700  71.576  1.00  0.00    -0.069 A  
HETATM   20  O   UNL     1      -9.401   2.408  73.822  1.00  0.00    -0.079 OA 
HETATM   21  H   UNL     1      -8.971   1.561  73.852  1.00  0.00     0.000 HD 
HETATM   22  O   UNL     1      -8.176   1.470  71.611  1.00  0.00    -0.040 OA 
HETATM   23  C   UNL     1      -8.714   3.441  70.409  1.00  0.00    -0.129 A  
HETATM   24  H   UNL     1      -7.732   1.131  70.842  1.00  0.00     0.000 HD 
HETATM   25  C   UNL     1      -9.340   4.703  70.336  1.00  0.00    -0.216 A  
ENDBRANCH   6   9
TORSDOF 1
ENDMDL
MODEL      163
REMARK 921   NORMALIZED FREE ENERGY PREDICTED BY IDOCK:   -3.25 KCAL/MOL
REMARK 922        TOTAL FREE ENERGY PREDICTED BY IDOCK:   -3.76 KCAL/MOL
REMARK 923 INTER-LIGAND FREE ENERGY PREDICTED BY IDOCK:   -3.38 KCAL/MOL
REMARK 924 INTRA-LIGAND FREE ENERGY PREDICTED BY IDOCK:   -0.39 KCAL/MOL
REMARK 927      BINDING AFFINITY PREDICTED BY RF-SCORE:    0.00 PKD
ROOT
HETATM    1  O   UNL     1     -11.118   6.067  72.390  1.00  0.00    -0.247 OA 
HETATM    2  C   UNL     1     -10.656   5.927  71.115  1.00  0.00    -0.246 A  
HETATM    3  H   UNL     1     -11.675   6.794  72.641  1.00  0.00     0.000 HD 
HETATM    4  C   UNL     1      -9.841   4.865  70.749  1.00  0.00    -0.285 A  
HETATM    5  C   UNL     1      -9.342   4.796  69.444  1.00  0.00    -0.197 A  
HETATM    6  C   UNL     1      -9.662   5.773  68.482  1.00  0.00    -0.161 A  
HETATM    7  C   UNL     1     -10.513   6.819  68.881  1.00  0.00    -0.229 A  
HETATM    8  C   UNL     1     -11.008   6.895  70.187  1.00  0.00    -0.322 A  
ENDROOT
BRANCH   6   9
HETATM    9  C   UNL     1      -9.002   5.791  67.093  1.00  0.00    -0.113 C  
HETATM   10  C   UNL     1      -7.972   4.665  66.775  1.00  0.00    -0.103 C  
HETATM   11  N   UNL     1      -6.836   4.507  67.691  1.00  0.00    -0.054 NA 
HETATM   12  C   UNL     1      -5.903   5.633  67.652  1.00  0.00    -0.013 C  
HETATM   13  H   UNL     1      -6.350   3.627  67.518  1.00  0.00     0.000 HD 
HETATM   14  C   UNL     1      -6.473   6.945  68.208  1.00  0.00    -0.050 C  
HETATM   15  C   UNL     1      -7.268   7.718  67.174  1.00  0.00    -0.090 A  
HETATM   16  C   UNL     1      -6.859   8.988  66.713  1.00  0.00    -0.080 A  
HETATM   17  C   UNL     1      -7.582   9.645  65.709  1.00  0.00    -0.103 A  
HETATM   18 CL   UNL     1      -5.462   9.801  67.341  1.00  0.00    -0.036 Cl 
HETATM   19  C   UNL     1      -8.712   9.058  65.164  1.00  0.00    -0.189 A  
HETATM   20  O   UNL     1      -7.221  10.875  65.217  1.00  0.00    -0.358 OA 
HETATM   21  H   UNL     1      -7.712  11.321  64.537  1.00  0.00     0.000 HD 
HETATM   22  O   UNL     1      -9.399   9.684  64.165  1.00  0.00    -0.391 OA 
HETATM   23  C   UNL     1      -9.157   7.829  65.620  1.00  0.00     0.010 A  
HETATM   24  H   UNL     1     -10.174   9.281  63.790  1.00  0.00     0.000 HD 
HETATM   25  C   UNL     1      -8.451   7.145  66.632  1.00  0.00    -0.121 A  
ENDBRANCH   6   9
TORSDOF 1
ENDMDL
MODEL      164
REMARK 921   NORMALIZED FREE ENERGY PREDICTED BY IDOCK:   -3.23 KCAL/MOL
REMARK 922        TOTAL FREE ENERGY PREDICTED BY IDOCK:   -3.74 KCAL/MOL
REMARK 923 INTER-LIGAND FREE ENERGY PREDICTED BY IDOCK:   -3.82 KCAL/MOL
REMARK 924 INTRA-LIGAND FREE ENERGY PREDICTED BY IDOCK:    0.08 KCAL/MOL
REMARK 927      BINDING AFFINITY PREDICTED BY RF-SCORE:    0.00 PKD
ROOT
HETATM    1  O   UNL     1     -11.570   4.185  64.678  1.00  0.00    -0.839 OA 
HETATM    2  C   UNL     1     -10.651   4.390  65.664  1.00  0.00    -0.144 A  
HETATM    3  H   UNL     1     -12.307   4.773  64.554  1.00  0.00     0.000 HD 
HETATM    4  C   UNL     1      -9.576   3.532  65.845  1.00  0.00    -0.106 A  
HETATM    5  C   UNL     1      -8.692   3.747  66.908  1.00  0.00    -0.118 A  
HETATM    6  C   UNL     1      -8.857   4.829  67.793  1.00  0.00    -0.112 A  
HETATM    7  C   UNL     1      -9.943   5.694  67.562  1.00  0.00    -0.180 A  
HETATM    8  C   UNL     1     -10.832   5.477  66.505  1.00  0.00    -0.237 A  
ENDROOT
BRANCH   6   9
HETATM    9  C   UNL     1      -7.986   4.990  69.050  1.00  0.00    -0.080 C  
HETATM   10  C   UNL     1      -8.236   3.999  70.226  1.00  0.00    -0.060 C  
HETATM   11  N   UNL     1      -9.599   3.917  70.765  1.00  0.00    -0.177 NA 
HETATM   12  C   UNL     1     -10.022   5.137  71.452  1.00  0.00    -0.189 C  
HETATM   13  H   UNL     1      -9.700   3.104  71.373  1.00  0.00     0.000 HD 
HETATM   14  C   UNL     1     -10.206   6.349  70.530  1.00  0.00    -0.230 C  
HETATM   15  C   UNL     1      -8.906   7.085  70.270  1.00  0.00    -0.148 A  
HETATM   16  C   UNL     1      -8.700   8.414  70.700  1.00  0.00    -0.146 A  
HETATM   17  C   UNL     1      -7.463   9.041  70.500  1.00  0.00    -0.098 A  
HETATM   18 CL   UNL     1      -9.936   9.339  71.491  1.00  0.00    -0.350 Cl 
HETATM   19  C   UNL     1      -6.431   8.364  69.871  1.00  0.00    -0.035 A  
HETATM   20  O   UNL     1      -7.207  10.326  70.909  1.00  0.00    -0.386 OA 
HETATM   21  H   UNL     1      -6.368  10.751  70.774  1.00  0.00     0.000 HD 
HETATM   22  O   UNL     1      -5.216   8.964  69.705  1.00  0.00    -0.029 OA 
HETATM   23  C   UNL     1      -6.614   7.073  69.408  1.00  0.00    -0.045 A  
HETATM   24  H   UNL     1      -4.508   8.500  69.273  1.00  0.00     0.000 HD 
HETATM   25  C   UNL     1      -7.850   6.418  69.591  1.00  0.00    -0.108 A  
ENDBRANCH   6   9
TORSDOF 1
ENDMDL
MODEL      165
REMARK 921   NORMALIZED FREE ENERGY PREDICTED BY IDOCK:   -3.13 KCAL/MOL
REMARK 922        TOTAL FREE ENERGY PREDICTED BY IDOCK:   -3.63 KCAL/MOL
REMARK 923 INTER-LIGAND FREE ENERGY PREDICTED BY IDOCK:   -3.17 KCAL/MOL
REMARK 924 INTRA-LIGAND FREE ENERGY PREDICTED BY IDOCK:   -0.46 KCAL/MOL
REMARK 927      BINDING AFFINITY PREDICTED BY RF-SCORE:    0.00 PKD
ROOT
HETATM    1  O   UNL     1     -10.748  11.377  69.731  1.00  0.00    -0.452 OA 
HETATM    2  C   UNL     1      -9.831  10.411  69.440  1.00  0.00    -0.213 A  
HETATM    3  H   UNL     1     -11.588  11.165  70.121  1.00  0.00     0.000 HD 
HETATM    4  C   UNL     1      -8.604  10.720  68.871  1.00  0.00    -0.155 A  
HETATM    5  C   UNL     1      -7.720   9.690  68.534  1.00  0.00    -0.081 A  
HETATM    6  C   UNL     1      -8.038   8.340  68.775  1.00  0.00    -0.115 A  
HETATM    7  C   UNL     1      -9.279   8.066  69.379  1.00  0.00    -0.152 A  
HETATM    8  C   UNL     1     -10.168   9.093  69.711  1.00  0.00    -0.219 A  
ENDROOT
BRANCH   6   9
HETATM    9  C   UNL     1      -7.145   7.193  68.273  1.00  0.00    -0.082 C  
HETATM   10  C   UNL     1      -6.077   7.538  67.193  1.00  0.00    -0.051 C  
HETATM   11  N   UNL     1      -6.545   8.172  65.954  1.00  0.00    -0.046 NA 
HETATM   12  C   UNL     1      -7.370   7.288  65.130  1.00  0.00    -0.081 C  
HETATM   13  H   UNL     1      -5.762   8.542  65.417  1.00  0.00     0.000 HD 
HETATM   14  C   UNL     1      -8.731   6.939  65.746  1.00  0.00    -0.120 C  
HETATM   15  C   UNL     1      -8.650   5.772  66.711  1.00  0.00    -0.112 A  
HETATM   16  C   UNL     1      -9.313   4.550  66.465  1.00  0.00    -0.151 A  
HETATM   17  C   UNL     1      -9.164   3.472  67.346  1.00  0.00    -0.194 A  
HETATM   18 CL   UNL     1     -10.330   4.305  65.081  1.00  0.00    -0.251 Cl 
HETATM   19  C   UNL     1      -8.370   3.596  68.474  1.00  0.00    -0.078 A  
HETATM   20  O   UNL     1      -9.776   2.259  67.146  1.00  0.00    -0.393 OA 
HETATM   21  H   UNL     1      -9.675   1.527  67.744  1.00  0.00     0.000 HD 
HETATM   22  O   UNL     1      -8.200   2.535  69.316  1.00  0.00    -0.050 OA 
HETATM   23  C   UNL     1      -7.736   4.792  68.761  1.00  0.00    -0.072 A  
HETATM   24  H   UNL     1      -7.655   2.621  70.090  1.00  0.00     0.000 HD 
HETATM   25  C   UNL     1      -7.871   5.897  67.893  1.00  0.00    -0.104 A  
ENDBRANCH   6   9
TORSDOF 1
ENDMDL
MODEL      166
REMARK 921   NORMALIZED FREE ENERGY PREDICTED BY IDOCK:   -3.12 KCAL/MOL
REMARK 922        TOTAL FREE ENERGY PREDICTED BY IDOCK:   -3.63 KCAL/MOL
REMARK 923 INTER-LIGAND FREE ENERGY PREDICTED BY IDOCK:   -3.20 KCAL/MOL
REMARK 924 INTRA-LIGAND FREE ENERGY PREDICTED BY IDOCK:   -0.43 KCAL/MOL
REMARK 927      BINDING AFFINITY PREDICTED BY RF-SCORE:    0.00 PKD
ROOT
HETATM    1  O   UNL     1      -5.860  12.469  68.528  1.00  0.00    -0.053 OA 
HETATM    2  C   UNL     1      -6.946  11.650  68.434  1.00  0.00    -0.079 A  
HETATM    3  H   UNL     1      -5.050  12.177  68.930  1.00  0.00     0.000 HD 
HETATM    4  C   UNL     1      -8.129  12.075  67.848  1.00  0.00    -0.150 A  
HETATM    5  C   UNL     1      -9.237  11.220  67.828  1.00  0.00    -0.156 A  
HETATM    6  C   UNL     1      -9.174   9.924  68.375  1.00  0.00    -0.130 A  
HETATM    7  C   UNL     1      -7.950   9.517  68.936  1.00  0.00    -0.091 A  
HETATM    8  C   UNL     1      -6.843  10.372  68.964  1.00  0.00    -0.064 A  
ENDROOT
BRANCH   6   9
HETATM    9  C   UNL     1     -10.422   9.033  68.496  1.00  0.00    -0.232 C  
HETATM   10  C   UNL     1     -11.781   9.739  68.783  1.00  0.00     0.491 C  
HETATM   11  N   UNL     1     -11.860  10.600  69.970  1.00  0.00    -0.296 NA 
HETATM   12  C   UNL     1     -11.763   9.858  71.228  1.00  0.00    -0.392 C  
HETATM   13  H   UNL     1     -12.706  11.169  69.949  1.00  0.00     0.000 HD 
HETATM   14  C   UNL     1     -10.387   9.229  71.484  1.00  0.00    -0.364 C  
HETATM   15  C   UNL     1     -10.230   7.879  70.810  1.00  0.00    -0.202 A  
HETATM   16  C   UNL     1     -10.057   6.689  71.550  1.00  0.00    -0.182 A  
HETATM   17  C   UNL     1      -9.980   5.453  70.897  1.00  0.00    -0.202 A  
HETATM   18 CL   UNL     1      -9.935   6.678  73.280  1.00  0.00    -0.192 Cl 
HETATM   19  C   UNL     1     -10.066   5.385  69.516  1.00  0.00    -0.240 A  
HETATM   20  O   UNL     1      -9.825   4.266  71.570  1.00  0.00    -0.174 OA 
HETATM   21  H   UNL     1      -9.773   3.427  71.127  1.00  0.00     0.000 HD 
HETATM   22  O   UNL     1     -10.023   4.177  68.883  1.00  0.00    -0.089 OA 
HETATM   23  C   UNL     1     -10.201   6.537  68.762  1.00  0.00    -0.194 A  
HETATM   24  H   UNL     1     -10.081   4.131  67.935  1.00  0.00     0.000 HD 
HETATM   25  C   UNL     1     -10.277   7.798  69.392  1.00  0.00    -0.208 A  
ENDBRANCH   6   9
TORSDOF 1
ENDMDL
MODEL      167
REMARK 921   NORMALIZED FREE ENERGY PREDICTED BY IDOCK:   -3.10 KCAL/MOL
REMARK 922        TOTAL FREE ENERGY PREDICTED BY IDOCK:   -3.61 KCAL/MOL
REMARK 923 INTER-LIGAND FREE ENERGY PREDICTED BY IDOCK:   -3.91 KCAL/MOL
REMARK 924 INTRA-LIGAND FREE ENERGY PREDICTED BY IDOCK:    0.30 KCAL/MOL
REMARK 927      BINDING AFFINITY PREDICTED BY RF-SCORE:    0.00 PKD
ROOT
HETATM    1  O   UNL     1      -7.522   7.497  71.168  1.00  0.00    -0.077 OA 
HETATM    2  C   UNL     1      -7.889   8.386  70.201  1.00  0.00    -0.102 A  
HETATM    3  H   UNL     1      -7.023   7.768  71.929  1.00  0.00     0.000 HD 
HETATM    4  C   UNL     1      -8.619   7.990  69.089  1.00  0.00    -0.137 A  
HETATM    5  C   UNL     1      -8.920   8.925  68.093  1.00  0.00    -0.137 A  
HETATM    6  C   UNL     1      -8.515  10.269  68.199  1.00  0.00    -0.123 A  
HETATM    7  C   UNL     1      -7.801  10.640  69.354  1.00  0.00    -0.126 A  
HETATM    8  C   UNL     1      -7.492   9.706  70.348  1.00  0.00    -0.168 A  
ENDROOT
BRANCH   6   9
HETATM    9  C   UNL     1      -8.707  11.269  67.047  1.00  0.00    -0.152 C  
HETATM   10  C   UNL     1      -7.483  11.536  66.120  1.00  0.00     0.210 C  
HETATM   11  N   UNL     1      -6.237  11.983  66.754  1.00  0.00    -0.412 NA 
HETATM   12  C   UNL     1      -6.332  13.323  67.333  1.00  0.00    -0.014 C  
HETATM   13  H   UNL     1      -5.456  11.924  66.101  1.00  0.00     0.000 HD 
HETATM   14  C   UNL     1      -7.263  13.421  68.549  1.00  0.00    -0.110 C  
HETATM   15  C   UNL     1      -8.715  13.614  68.155  1.00  0.00    -0.177 A  
HETATM   16  C   UNL     1      -9.429  14.787  68.482  1.00  0.00    -0.214 A  
HETATM   17  C   UNL     1     -10.749  14.959  68.046  1.00  0.00    -0.253 A  
HETATM   18 CL   UNL     1      -8.734  16.069  69.420  1.00  0.00    -0.217 Cl 
HETATM   19  C   UNL     1     -11.371  13.974  67.295  1.00  0.00    -0.330 A  
HETATM   20  O   UNL     1     -11.483  16.085  68.326  1.00  0.00    -0.355 OA 
HETATM   21  H   UNL     1     -12.379  16.202  68.030  1.00  0.00     0.000 HD 
HETATM   22  O   UNL     1     -12.646  14.156  66.844  1.00  0.00    -0.553 OA 
HETATM   23  C   UNL     1     -10.709  12.799  66.989  1.00  0.00    -0.272 A  
HETATM   24  H   UNL     1     -13.073  13.480  66.329  1.00  0.00     0.000 HD 
HETATM   25  C   UNL     1      -9.380  12.596  67.417  1.00  0.00    -0.189 A  
ENDBRANCH   6   9
TORSDOF 1
ENDMDL
MODEL      168
REMARK 921   NORMALIZED FREE ENERGY PREDICTED BY IDOCK:   -3.10 KCAL/MOL
REMARK 922        TOTAL FREE ENERGY PREDICTED BY IDOCK:   -3.60 KCAL/MOL
REMARK 923 INTER-LIGAND FREE ENERGY PREDICTED BY IDOCK:   -3.90 KCAL/MOL
REMARK 924 INTRA-LIGAND FREE ENERGY PREDICTED BY IDOCK:    0.30 KCAL/MOL
REMARK 927      BINDING AFFINITY PREDICTED BY RF-SCORE:    0.00 PKD
ROOT
HETATM    1  O   UNL     1     -12.018  10.402  71.792  1.00  0.00    -0.214 OA 
HETATM    2  C   UNL     1     -11.567   9.171  71.418  1.00  0.00    -0.341 A  
HETATM    3  H   UNL     1     -11.476  11.177  71.705  1.00  0.00     0.000 HD 
HETATM    4  C   UNL     1     -12.358   8.037  71.545  1.00  0.00    -0.335 A  
HETATM    5  C   UNL     1     -11.832   6.786  71.205  1.00  0.00    -0.396 A  
HETATM    6  C   UNL     1     -10.518   6.649  70.718  1.00  0.00    -0.251 A  
HETATM    7  C   UNL     1      -9.756   7.823  70.576  1.00  0.00    -0.175 A  
HETATM    8  C   UNL     1     -10.276   9.075  70.921  1.00  0.00    -0.324 A  
ENDROOT
BRANCH   6   9
HETATM    9  C   UNL     1      -9.878   5.271  70.485  1.00  0.00    -0.274 C  
HETATM   10  C   UNL     1      -8.961   4.708  71.612  1.00  0.00    -0.133 C  
HETATM   11  N   UNL     1      -7.831   5.539  72.045  1.00  0.00    -0.105 NA 
HETATM   12  C   UNL     1      -6.799   5.690  71.019  1.00  0.00    -0.057 C  
HETATM   13  H   UNL     1      -7.431   5.183  72.912  1.00  0.00     0.000 HD 
HETATM   14  C   UNL     1      -7.239   6.508  69.797  1.00  0.00    -0.078 C  
HETATM   15  C   UNL     1      -7.974   5.670  68.770  1.00  0.00    -0.097 A  
HETATM   16  C   UNL     1      -7.457   5.452  67.474  1.00  0.00    -0.084 A  
HETATM   17  C   UNL     1      -8.131   4.618  66.572  1.00  0.00    -0.103 A  
HETATM   18 CL   UNL     1      -5.982   6.181  66.926  1.00  0.00    -0.020 Cl 
HETATM   19  C   UNL     1      -9.318   4.005  66.941  1.00  0.00    -0.182 A  
HETATM   20  O   UNL     1      -7.666   4.363  65.306  1.00  0.00    -0.084 OA 
HETATM   21  H   UNL     1      -8.123   3.798  64.694  1.00  0.00     0.000 HD 
HETATM   22  O   UNL     1      -9.958   3.169  66.073  1.00  0.00    -0.384 OA 
HETATM   23  C   UNL     1      -9.867   4.227  68.191  1.00  0.00    -0.107 A  
HETATM   24  H   UNL     1     -10.772   2.748  66.325  1.00  0.00     0.000 HD 
HETATM   25  C   UNL     1      -9.213   5.065  69.119  1.00  0.00    -0.154 A  
ENDBRANCH   6   9
TORSDOF 1
ENDMDL
MODEL      169
REMARK 921   NORMALIZED FREE ENERGY PREDICTED BY IDOCK:   -3.10 KCAL/MOL
REMARK 922        TOTAL FREE ENERGY PREDICTED BY IDOCK:   -3.60 KCAL/MOL
REMARK 923 INTER-LIGAND FREE ENERGY PREDICTED BY IDOCK:   -3.08 KCAL/MOL
REMARK 924 INTRA-LIGAND FREE ENERGY PREDICTED BY IDOCK:   -0.52 KCAL/MOL
REMARK 927      BINDING AFFINITY PREDICTED BY RF-SCORE:    0.00 PKD
ROOT
HETATM    1  O   UNL     1     -11.279  13.135  67.021  1.00  0.00    -0.275 OA 
HETATM    2  C   UNL     1     -10.558  12.065  67.459  1.00  0.00    -0.221 A  
HETATM    3  H   UNL     1     -10.981  14.026  67.157  1.00  0.00     0.000 HD 
HETATM    4  C   UNL     1     -10.994  10.762  67.260  1.00  0.00    -0.359 A  
HETATM    5  C   UNL     1     -10.250   9.698  67.781  1.00  0.00    -0.253 A  
HETATM    6  C   UNL     1      -9.054   9.915  68.491  1.00  0.00    -0.125 A  
HETATM    7  C   UNL     1      -8.629  11.247  68.649  1.00  0.00    -0.139 A  
HETATM    8  C   UNL     1      -9.373  12.314  68.136  1.00  0.00    -0.205 A  
ENDROOT
BRANCH   6   9
HETATM    9  C   UNL     1      -8.310   8.769  69.197  1.00  0.00    -0.125 C  
HETATM   10  C   UNL     1      -6.767   8.912  69.360  1.00  0.00    -0.048 C  
HETATM   11  N   UNL     1      -5.974   9.137  68.146  1.00  0.00    -0.045 NA 
HETATM   12  C   UNL     1      -5.962   7.986  67.243  1.00  0.00    -0.050 C  
HETATM   13  H   UNL     1      -5.024   9.424  68.380  1.00  0.00     0.000 HD 
HETATM   14  C   UNL     1      -7.316   7.684  66.588  1.00  0.00    -0.088 C  
HETATM   15  C   UNL     1      -8.213   6.837  67.470  1.00  0.00    -0.122 A  
HETATM   16  C   UNL     1      -8.613   5.534  67.099  1.00  0.00    -0.109 A  
HETATM   17  C   UNL     1      -9.387   4.755  67.967  1.00  0.00    -0.133 A  
HETATM   18 CL   UNL     1      -8.175   4.825  65.578  1.00  0.00    -0.114 Cl 
HETATM   19  C   UNL     1      -9.777   5.259  69.198  1.00  0.00    -0.168 A  
HETATM   20  O   UNL     1      -9.792   3.480  67.660  1.00  0.00    -0.197 OA 
HETATM   21  H   UNL     1     -10.317   2.951  68.249  1.00  0.00     0.000 HD 
HETATM   22  O   UNL     1     -10.506   4.488  70.056  1.00  0.00    -0.019 OA 
HETATM   23  C   UNL     1      -9.431   6.544  69.574  1.00  0.00    -0.150 A  
HETATM   24  H   UNL     1     -10.774   4.834  70.900  1.00  0.00     0.000 HD 
HETATM   25  C   UNL     1      -8.654   7.354  68.719  1.00  0.00    -0.129 A  
ENDBRANCH   6   9
TORSDOF 1
ENDMDL
MODEL      170
REMARK 921   NORMALIZED FREE ENERGY PREDICTED BY IDOCK:   -3.06 KCAL/MOL
REMARK 922        TOTAL FREE ENERGY PREDICTED BY IDOCK:   -3.56 KCAL/MOL
REMARK 923 INTER-LIGAND FREE ENERGY PREDICTED BY IDOCK:   -3.06 KCAL/MOL
REMARK 924 INTRA-LIGAND FREE ENERGY PREDICTED BY IDOCK:   -0.50 KCAL/MOL
REMARK 927      BINDING AFFINITY PREDICTED BY RF-SCORE:    0.00 PKD
ROOT
HETATM    1  O   UNL     1      -6.554   8.138  72.028  1.00  0.00    -0.056 OA 
HETATM    2  C   UNL     1      -6.937   7.104  71.227  1.00  0.00    -0.060 A  
HETATM    3  H   UNL     1      -6.363   8.010  72.949  1.00  0.00     0.000 HD 
HETATM    4  C   UNL     1      -7.216   7.291  69.880  1.00  0.00    -0.081 A  
HETATM    5  C   UNL     1      -7.664   6.211  69.112  1.00  0.00    -0.100 A  
HETATM    6  C   UNL     1      -7.823   4.928  69.669  1.00  0.00    -0.067 A  
HETATM    7  C   UNL     1      -7.504   4.770  71.030  1.00  0.00    -0.068 A  
HETATM    8  C   UNL     1      -7.062   5.848  71.803  1.00  0.00    -0.085 A  
ENDROOT
BRANCH   6   9
HETATM    9  C   UNL     1      -8.456   3.772  68.877  1.00  0.00    -0.101 C  
HETATM   10  C   UNL     1      -7.877   2.344  69.109  1.00  0.00    -0.042 C  
HETATM   11  N   UNL     1      -6.437   2.153  68.899  1.00  0.00    -0.029 NA 
HETATM   12  C   UNL     1      -6.035   2.294  67.499  1.00  0.00    -0.020 C  
HETATM   13  H   UNL     1      -6.131   1.256  69.275  1.00  0.00     0.000 HD 
HETATM   14  C   UNL     1      -6.167   3.719  66.945  1.00  0.00    -0.028 C  
HETATM   15  C   UNL     1      -7.568   4.023  66.453  1.00  0.00    -0.089 A  
HETATM   16  C   UNL     1      -7.841   4.296  65.094  1.00  0.00    -0.086 A  
HETATM   17  C   UNL     1      -9.157   4.509  64.664  1.00  0.00    -0.151 A  
HETATM   18 CL   UNL     1      -6.593   4.379  63.893  1.00  0.00    -0.041 Cl 
HETATM   19  C   UNL     1     -10.205   4.462  65.569  1.00  0.00    -0.241 A  
HETATM   20  O   UNL     1      -9.477   4.765  63.354  1.00  0.00    -0.345 OA 
HETATM   21  H   UNL     1     -10.370   4.910  63.061  1.00  0.00     0.000 HD 
HETATM   22  O   UNL     1     -11.489   4.639  65.143  1.00  0.00    -1.082 OA 
HETATM   23  C   UNL     1      -9.965   4.231  66.912  1.00  0.00    -0.178 A  
HETATM   24  H   UNL     1     -12.208   4.606  65.764  1.00  0.00     0.000 HD 
HETATM   25  C   UNL     1      -8.650   4.017  67.376  1.00  0.00    -0.107 A  
ENDBRANCH   6   9
TORSDOF 1
ENDMDL
MODEL      171
REMARK 921   NORMALIZED FREE ENERGY PREDICTED BY IDOCK:   -3.03 KCAL/MOL
REMARK 922        TOTAL FREE ENERGY PREDICTED BY IDOCK:   -3.52 KCAL/MOL
REMARK 923 INTER-LIGAND FREE ENERGY PREDICTED BY IDOCK:   -3.01 KCAL/MOL
REMARK 924 INTRA-LIGAND FREE ENERGY PREDICTED BY IDOCK:   -0.51 KCAL/MOL
REMARK 927      BINDING AFFINITY PREDICTED BY RF-SCORE:    0.00 PKD
ROOT
HETATM    1  O   UNL     1     -10.144   2.970  69.233  1.00  0.00     0.430 OA 
HETATM    2  C   UNL     1      -9.779   4.244  68.916  1.00  0.00    -0.125 A  
HETATM    3  H   UNL     1      -9.544   2.373  69.664  1.00  0.00     0.000 HD 
HETATM    4  C   UNL     1     -10.655   5.117  68.286  1.00  0.00     0.006 A  
HETATM    5  C   UNL     1     -10.216   6.395  67.926  1.00  0.00    -0.200 A  
HETATM    6  C   UNL     1      -8.905   6.829  68.204  1.00  0.00    -0.120 A  
HETATM    7  C   UNL     1      -8.054   5.927  68.869  1.00  0.00    -0.103 A  
HETATM    8  C   UNL     1      -8.487   4.646  69.225  1.00  0.00    -0.090 A  
ENDROOT
BRANCH   6   9
HETATM    9  C   UNL     1      -8.366   8.170  67.682  1.00  0.00    -0.127 C  
HETATM   10  C   UNL     1      -7.144   8.788  68.425  1.00  0.00    -0.077 C  
HETATM   11  N   UNL     1      -7.272   9.012  69.870  1.00  0.00    -0.054 NA 
HETATM   12  C   UNL     1      -8.245  10.051  70.209  1.00  0.00     0.049 C  
HETATM   13  H   UNL     1      -6.364   9.216  70.287  1.00  0.00     0.000 HD 
HETATM   14  C   UNL     1      -9.700   9.677  69.899  1.00  0.00    -0.262 C  
HETATM   15  C   UNL     1     -10.077   9.957  68.457  1.00  0.00    -0.186 A  
HETATM   16  C   UNL     1     -11.058  10.913  68.112  1.00  0.00    -0.280 A  
HETATM   17  C   UNL     1     -11.335  11.192  66.768  1.00  0.00    -0.042 A  
HETATM   18 CL   UNL     1     -11.962  11.790  69.304  1.00  0.00    -0.363 Cl 
HETATM   19  C   UNL     1     -10.654  10.527  65.762  1.00  0.00    -0.066 A  
HETATM   20  O   UNL     1     -12.269  12.120  66.379  1.00  0.00    -0.592 OA 
HETATM   21  H   UNL     1     -12.457  12.310  65.467  1.00  0.00     0.000 HD 
HETATM   22  O   UNL     1     -10.902  10.821  64.452  1.00  0.00    -0.303 OA 
HETATM   23  C   UNL     1      -9.713   9.560  66.068  1.00  0.00    -0.341 A  
HETATM   24  H   UNL     1     -10.435  10.365  63.762  1.00  0.00     0.000 HD 
HETATM   25  C   UNL     1      -9.416   9.254  67.413  1.00  0.00    -0.165 A  
ENDBRANCH   6   9
TORSDOF 1
ENDMDL
MODEL      172
REMARK 921   NORMALIZED FREE ENERGY PREDICTED BY IDOCK:   -3.00 KCAL/MOL
REMARK 922        TOTAL FREE ENERGY PREDICTED BY IDOCK:   -3.49 KCAL/MOL
REMARK 923 INTER-LIGAND FREE ENERGY PREDICTED BY IDOCK:   -3.02 KCAL/MOL
REMARK 924 INTRA-LIGAND FREE ENERGY PREDICTED BY IDOCK:   -0.48 KCAL/MOL
REMARK 927      BINDING AFFINITY PREDICTED BY RF-SCORE:    0.00 PKD
ROOT
HETATM    1  O   UNL     1     -11.294  13.177  68.130  1.00  0.00    -0.258 OA 
HETATM    2  C   UNL     1     -10.540  12.046  68.035  1.00  0.00    -0.208 A  
HETATM    3  H   UNL     1     -10.959  13.966  68.541  1.00  0.00     0.000 HD 
HETATM    4  C   UNL     1     -11.029  10.894  67.435  1.00  0.00    -0.353 A  
HETATM    5  C   UNL     1     -10.240   9.738  67.415  1.00  0.00    -0.284 A  
HETATM    6  C   UNL     1      -8.949   9.719  67.975  1.00  0.00    -0.118 A  
HETATM    7  C   UNL     1      -8.476  10.913  68.550  1.00  0.00    -0.147 A  
HETATM    8  C   UNL     1      -9.264  12.068  68.578  1.00  0.00    -0.116 A  
ENDROOT
BRANCH   6   9
HETATM    9  C   UNL     1      -8.135   8.420  68.094  1.00  0.00    -0.120 C  
HETATM   10  C   UNL     1      -6.615   8.554  68.411  1.00  0.00    -0.060 C  
HETATM   11  N   UNL     1      -5.805   9.383  67.510  1.00  0.00    -0.045 NA 
HETATM   12  C   UNL     1      -5.669   8.814  66.169  1.00  0.00    -0.046 C  
HETATM   13  H   UNL     1      -4.890   9.574  67.917  1.00  0.00     0.000 HD 
HETATM   14  C   UNL     1      -6.972   8.789  65.359  1.00  0.00    -0.076 C  
HETATM   15  C   UNL     1      -7.823   7.571  65.664  1.00  0.00    -0.110 A  
HETATM   16  C   UNL     1      -8.101   6.590  64.687  1.00  0.00    -0.092 A  
HETATM   17  C   UNL     1      -8.836   5.445  65.021  1.00  0.00    -0.082 A  
HETATM   18 CL   UNL     1      -7.558   6.729  63.046  1.00  0.00    -0.082 Cl 
HETATM   19  C   UNL     1      -9.305   5.268  66.313  1.00  0.00    -0.153 A  
HETATM   20  O   UNL     1      -9.123   4.456  64.114  1.00  0.00    -0.148 OA 
HETATM   21  H   UNL     1      -9.621   3.679  64.341  1.00  0.00     0.000 HD 
HETATM   22  O   UNL     1      -9.995   4.138  66.645  1.00  0.00    -0.281 OA 
HETATM   23  C   UNL     1      -9.079   6.229  67.282  1.00  0.00    -0.116 A  
HETATM   24  H   UNL     1     -10.317   4.017  67.531  1.00  0.00     0.000 HD 
HETATM   25  C   UNL     1      -8.345   7.395  66.974  1.00  0.00    -0.121 A  
ENDBRANCH   6   9
TORSDOF 1
ENDMDL
MODEL      173
REMARK 921   NORMALIZED FREE ENERGY PREDICTED BY IDOCK:   -2.97 KCAL/MOL
REMARK 922        TOTAL FREE ENERGY PREDICTED BY IDOCK:   -3.46 KCAL/MOL
REMARK 923 INTER-LIGAND FREE ENERGY PREDICTED BY IDOCK:   -2.96 KCAL/MOL
REMARK 924 INTRA-LIGAND FREE ENERGY PREDICTED BY IDOCK:   -0.50 KCAL/MOL
REMARK 927      BINDING AFFINITY PREDICTED BY RF-SCORE:    0.00 PKD
ROOT
HETATM    1  O   UNL     1      -5.257  10.173  68.505  1.00  0.00    -0.036 OA 
HETATM    2  C   UNL     1      -6.100   9.116  68.683  1.00  0.00    -0.045 A  
HETATM    3  H   UNL     1      -4.912  10.395  67.648  1.00  0.00     0.000 HD 
HETATM    4  C   UNL     1      -6.604   8.791  69.935  1.00  0.00    -0.041 A  
HETATM    5  C   UNL     1      -7.416   7.662  70.080  1.00  0.00    -0.082 A  
HETATM    6  C   UNL     1      -7.752   6.851  68.978  1.00  0.00    -0.110 A  
HETATM    7  C   UNL     1      -7.245   7.227  67.721  1.00  0.00    -0.091 A  
HETATM    8  C   UNL     1      -6.427   8.352  67.573  1.00  0.00    -0.058 A  
ENDROOT
BRANCH   6   9
HETATM    9  C   UNL     1      -8.516   5.528  69.147  1.00  0.00    -0.104 C  
HETATM   10  C   UNL     1      -9.224   4.944  67.888  1.00  0.00    -0.122 C  
HETATM   11  N   UNL     1     -10.186   5.806  67.190  1.00  0.00    -0.182 NA 
HETATM   12  C   UNL     1     -11.391   6.080  67.975  1.00  0.00     0.356 C  
HETATM   13  H   UNL     1     -10.427   5.417  66.279  1.00  0.00     0.000 HD 
HETATM   14  C   UNL     1     -11.151   6.950  69.216  1.00  0.00    -0.229 C  
HETATM   15  C   UNL     1     -10.695   6.140  70.414  1.00  0.00    -0.347 A  
HETATM   16  C   UNL     1     -11.474   6.035  71.587  1.00  0.00    -0.230 A  
HETATM   17  C   UNL     1     -11.052   5.226  72.649  1.00  0.00    -0.260 A  
HETATM   18 CL   UNL     1     -12.977   6.878  71.784  1.00  0.00    -0.380 Cl 
HETATM   19  C   UNL     1      -9.859   4.526  72.564  1.00  0.00    -0.161 A  
HETATM   20  O   UNL     1     -11.778   5.080  73.805  1.00  0.00    -0.348 OA 
HETATM   21  H   UNL     1     -11.491   4.531  74.526  1.00  0.00     0.000 HD 
HETATM   22  O   UNL     1      -9.464   3.714  73.586  1.00  0.00    -0.099 OA 
HETATM   23  C   UNL     1      -9.057   4.637  71.442  1.00  0.00    -0.173 A  
HETATM   24  H   UNL     1      -8.645   3.234  73.528  1.00  0.00     0.000 HD 
HETATM   25  C   UNL     1      -9.454   5.447  70.357  1.00  0.00    -0.215 A  
ENDBRANCH   6   9
TORSDOF 1
ENDMDL
MODEL      174
REMARK 921   NORMALIZED FREE ENERGY PREDICTED BY IDOCK:   -2.88 KCAL/MOL
REMARK 922        TOTAL FREE ENERGY PREDICTED BY IDOCK:   -3.37 KCAL/MOL
REMARK 923 INTER-LIGAND FREE ENERGY PREDICTED BY IDOCK:   -2.85 KCAL/MOL
REMARK 924 INTRA-LIGAND FREE ENERGY PREDICTED BY IDOCK:   -0.52 KCAL/MOL
REMARK 927      BINDING AFFINITY PREDICTED BY RF-SCORE:    0.00 PKD
ROOT
HETATM    1  O   UNL     1      -7.702   8.110  72.971  1.00  0.00    -0.137 OA 
HETATM    2  C   UNL     1      -7.878   7.880  71.639  1.00  0.00    -0.093 A  
HETATM    3  H   UNL     1      -7.603   7.396  73.590  1.00  0.00     0.000 HD 
HETATM    4  C   UNL     1      -8.023   8.922  70.734  1.00  0.00    -0.150 A  
HETATM    5  C   UNL     1      -8.262   8.638  69.386  1.00  0.00    -0.113 A  
HETATM    6  C   UNL     1      -8.343   7.313  68.917  1.00  0.00    -0.126 A  
HETATM    7  C   UNL     1      -8.164   6.282  69.858  1.00  0.00    -0.121 A  
HETATM    8  C   UNL     1      -7.932   6.563  71.208  1.00  0.00    -0.108 A  
ENDROOT
BRANCH   6   9
HETATM    9  C   UNL     1      -8.754   6.986  67.472  1.00  0.00    -0.120 C  
HETATM   10  C   UNL     1      -8.302   5.613  66.892  1.00  0.00    -0.108 C  
HETATM   11  N   UNL     1      -6.866   5.307  66.915  1.00  0.00    -0.062 NA 
HETATM   12  C   UNL     1      -6.080   6.158  66.021  1.00  0.00    -0.033 C  
HETATM   13  H   UNL     1      -6.702   4.321  66.714  1.00  0.00     0.000 HD 
HETATM   14  C   UNL     1      -6.015   7.631  66.448  1.00  0.00    -0.040 C  
HETATM   15  C   UNL     1      -7.211   8.429  65.968  1.00  0.00    -0.073 A  
HETATM   16  C   UNL     1      -7.081   9.490  65.046  1.00  0.00    -0.109 A  
HETATM   17  C   UNL     1      -8.215  10.164  64.574  1.00  0.00    -0.162 A  
HETATM   18 CL   UNL     1      -5.542  10.016  64.443  1.00  0.00    -0.095 Cl 
HETATM   19  C   UNL     1      -9.477   9.800  65.015  1.00  0.00    -0.272 A  
HETATM   20  O   UNL     1      -8.144  11.193  63.669  1.00  0.00    -0.304 OA 
HETATM   21  H   UNL     1      -8.913  11.650  63.349  1.00  0.00     0.000 HD 
HETATM   22  O   UNL     1     -10.583  10.437  64.532  1.00  0.00    -0.241 OA 
HETATM   23  C   UNL     1      -9.634   8.788  65.945  1.00  0.00    -0.255 A  
HETATM   24  H   UNL     1     -11.449  10.187  64.834  1.00  0.00     0.000 HD 
HETATM   25  C   UNL     1      -8.509   8.094  66.441  1.00  0.00    -0.133 A  
ENDBRANCH   6   9
TORSDOF 1
ENDMDL
MODEL      175
REMARK 921   NORMALIZED FREE ENERGY PREDICTED BY IDOCK:   -2.84 KCAL/MOL
REMARK 922        TOTAL FREE ENERGY PREDICTED BY IDOCK:   -3.33 KCAL/MOL
REMARK 923 INTER-LIGAND FREE ENERGY PREDICTED BY IDOCK:   -3.11 KCAL/MOL
REMARK 924 INTRA-LIGAND FREE ENERGY PREDICTED BY IDOCK:   -0.22 KCAL/MOL
REMARK 927      BINDING AFFINITY PREDICTED BY RF-SCORE:    0.00 PKD
ROOT
HETATM    1  O   UNL     1      -9.775   5.967  72.992  1.00  0.00    -0.157 OA 
HETATM    2  C   UNL     1      -9.306   6.319  71.761  1.00  0.00    -0.150 A  
HETATM    3  H   UNL     1     -10.398   6.510  73.460  1.00  0.00     0.000 HD 
HETATM    4  C   UNL     1      -8.395   5.527  71.077  1.00  0.00    -0.121 A  
HETATM    5  C   UNL     1      -7.896   5.957  69.843  1.00  0.00    -0.096 A  
HETATM    6  C   UNL     1      -8.310   7.173  69.266  1.00  0.00    -0.133 A  
HETATM    7  C   UNL     1      -9.256   7.936  69.975  1.00  0.00    -0.153 A  
HETATM    8  C   UNL     1      -9.752   7.512  71.212  1.00  0.00    -0.173 A  
ENDROOT
BRANCH   6   9
HETATM    9  C   UNL     1      -7.659   7.729  67.989  1.00  0.00    -0.120 C  
HETATM   10  C   UNL     1      -6.104   7.817  67.958  1.00  0.00    -0.045 C  
HETATM   11  N   UNL     1      -5.446   8.571  69.032  1.00  0.00    -0.035 NA 
HETATM   12  C   UNL     1      -5.718  10.008  68.978  1.00  0.00    -0.034 C  
HETATM   13  H   UNL     1      -4.443   8.392  69.039  1.00  0.00     0.000 HD 
HETATM   14  C   UNL     1      -7.174  10.387  69.282  1.00  0.00    -0.100 C  
HETATM   15  C   UNL     1      -8.066  10.289  68.060  1.00  0.00    -0.106 A  
HETATM   16  C   UNL     1      -8.697  11.423  67.501  1.00  0.00    -0.140 A  
HETATM   17  C   UNL     1      -9.462  11.307  66.334  1.00  0.00    -0.200 A  
HETATM   18 CL   UNL     1      -8.564  13.002  68.205  1.00  0.00    -0.179 Cl 
HETATM   19  C   UNL     1      -9.615  10.075  65.719  1.00  0.00    -0.231 A  
HETATM   20  O   UNL     1     -10.085  12.378  65.744  1.00  0.00    -0.247 OA 
HETATM   21  H   UNL     1     -10.604  12.299  64.953  1.00  0.00     0.000 HD 
HETATM   22  O   UNL     1     -10.336   9.967  64.565  1.00  0.00    -0.349 OA 
HETATM   23  C   UNL     1      -9.039   8.940  66.262  1.00  0.00    -0.236 A  
HETATM   24  H   UNL     1     -10.441   9.122  64.143  1.00  0.00     0.000 HD 
HETATM   25  C   UNL     1      -8.266   9.026  67.439  1.00  0.00    -0.108 A  
ENDBRANCH   6   9
TORSDOF 1
ENDMDL
MODEL      176
REMARK 921   NORMALIZED FREE ENERGY PREDICTED BY IDOCK:   -2.78 KCAL/MOL
REMARK 922        TOTAL FREE ENERGY PREDICTED BY IDOCK:   -3.26 KCAL/MOL
REMARK 923 INTER-LIGAND FREE ENERGY PREDICTED BY IDOCK:   -2.74 KCAL/MOL
REMARK 924 INTRA-LIGAND FREE ENERGY PREDICTED BY IDOCK:   -0.52 KCAL/MOL
REMARK 927      BINDING AFFINITY PREDICTED BY RF-SCORE:    0.00 PKD
ROOT
HETATM    1  O   UNL     1     -10.857  11.687  67.170  1.00  0.00    -0.234 OA 
HETATM    2  C   UNL     1     -10.114  10.701  67.748  1.00  0.00    -0.174 A  
HETATM    3  H   UNL     1     -10.449  12.421  66.725  1.00  0.00     0.000 HD 
HETATM    4  C   UNL     1     -10.709   9.629  68.398  1.00  0.00    -0.251 A  
HETATM    5  C   UNL     1      -9.907   8.672  69.029  1.00  0.00    -0.184 A  
HETATM    6  C   UNL     1      -8.502   8.760  69.006  1.00  0.00    -0.130 A  
HETATM    7  C   UNL     1      -7.934   9.846  68.313  1.00  0.00    -0.100 A  
HETATM    8  C   UNL     1      -8.733  10.807  67.687  1.00  0.00    -0.126 A  
ENDROOT
BRANCH   6   9
HETATM    9  C   UNL     1      -7.615   7.804  69.819  1.00  0.00    -0.091 C  
HETATM   10  C   UNL     1      -6.159   7.572  69.313  1.00  0.00    -0.031 C  
HETATM   11  N   UNL     1      -5.988   7.105  67.932  1.00  0.00    -0.028 NA 
HETATM   12  C   UNL     1      -6.481   5.744  67.719  1.00  0.00    -0.047 C  
HETATM   13  H   UNL     1      -5.015   7.188  67.640  1.00  0.00     0.000 HD 
HETATM   14  C   UNL     1      -8.005   5.600  67.829  1.00  0.00    -0.098 C  
HETATM   15  C   UNL     1      -8.470   5.420  69.261  1.00  0.00    -0.099 A  
HETATM   16  C   UNL     1      -9.099   4.234  69.700  1.00  0.00    -0.115 A  
HETATM   17  C   UNL     1      -9.457   4.077  71.044  1.00  0.00    -0.163 A  
HETATM   18 CL   UNL     1      -9.458   2.920  68.627  1.00  0.00    -0.237 Cl 
HETATM   19  C   UNL     1      -9.204   5.087  71.958  1.00  0.00    -0.136 A  
HETATM   20  O   UNL     1     -10.059   2.940  71.525  1.00  0.00    -0.111 OA 
HETATM   21  H   UNL     1     -10.302   2.833  72.437  1.00  0.00     0.000 HD 
HETATM   22  O   UNL     1      -9.525   4.921  73.274  1.00  0.00    -0.124 OA 
HETATM   23  C   UNL     1      -8.621   6.274  71.551  1.00  0.00    -0.131 A  
HETATM   24  H   UNL     1      -9.351   5.614  73.901  1.00  0.00     0.000 HD 
HETATM   25  C   UNL     1      -8.253   6.463  70.202  1.00  0.00    -0.129 A  
ENDBRANCH   6   9
TORSDOF 1
ENDMDL
MODEL      177
REMARK 921   NORMALIZED FREE ENERGY PREDICTED BY IDOCK:   -2.66 KCAL/MOL
REMARK 922        TOTAL FREE ENERGY PREDICTED BY IDOCK:   -3.14 KCAL/MOL
REMARK 923 INTER-LIGAND FREE ENERGY PREDICTED BY IDOCK:   -2.98 KCAL/MOL
REMARK 924 INTRA-LIGAND FREE ENERGY PREDICTED BY IDOCK:   -0.16 KCAL/MOL
REMARK 927      BINDING AFFINITY PREDICTED BY RF-SCORE:    0.00 PKD
ROOT
HETATM    1  O   UNL     1     -11.182   4.571  73.450  1.00  0.00    -0.293 OA 
HETATM    2  C   UNL     1     -10.496   4.865  72.309  1.00  0.00    -0.204 A  
HETATM    3  H   UNL     1     -11.634   5.243  73.946  1.00  0.00     0.000 HD 
HETATM    4  C   UNL     1      -9.835   3.883  71.584  1.00  0.00    -0.247 A  
HETATM    5  C   UNL     1      -9.094   4.242  70.453  1.00  0.00    -0.171 A  
HETATM    6  C   UNL     1      -9.015   5.579  70.019  1.00  0.00    -0.149 A  
HETATM    7  C   UNL     1      -9.721   6.542  70.762  1.00  0.00    -0.194 A  
HETATM    8  C   UNL     1     -10.458   6.189  71.897  1.00  0.00    -0.254 A  
ENDROOT
BRANCH   6   9
HETATM    9  C   UNL     1      -8.086   6.006  68.871  1.00  0.00    -0.104 C  
HETATM   10  C   UNL     1      -6.577   5.634  68.996  1.00  0.00    -0.051 C  
HETATM   11  N   UNL     1      -5.865   6.084  70.198  1.00  0.00    -0.017 NA 
HETATM   12  C   UNL     1      -5.708   7.538  70.264  1.00  0.00    -0.023 C  
HETATM   13  H   UNL     1      -4.962   5.618  70.280  1.00  0.00     0.000 HD 
HETATM   14  C   UNL     1      -7.020   8.306  70.467  1.00  0.00    -0.037 C  
HETATM   15  C   UNL     1      -7.751   8.561  69.163  1.00  0.00    -0.091 A  
HETATM   16  C   UNL     1      -7.961   9.866  68.666  1.00  0.00    -0.087 A  
HETATM   17  C   UNL     1      -8.583  10.062  67.426  1.00  0.00    -0.125 A  
HETATM   18 CL   UNL     1      -7.468  11.283  69.535  1.00  0.00    -0.002 Cl 
HETATM   19  C   UNL     1      -9.006   8.975  66.678  1.00  0.00    -0.135 A  
HETATM   20  O   UNL     1      -8.799  11.308  66.892  1.00  0.00    -0.155 OA 
HETATM   21  H   UNL     1      -9.221  11.440  66.051  1.00  0.00     0.000 HD 
HETATM   22  O   UNL     1      -9.584   9.165  65.456  1.00  0.00    -0.388 OA 
HETATM   23  C   UNL     1      -8.846   7.686  67.154  1.00  0.00    -0.129 A  
HETATM   24  H   UNL     1      -9.875   8.420  64.942  1.00  0.00     0.000 HD 
HETATM   25  C   UNL     1      -8.227   7.458  68.401  1.00  0.00    -0.125 A  
ENDBRANCH   6   9
TORSDOF 1
ENDMDL
MODEL      178
REMARK 921   NORMALIZED FREE ENERGY PREDICTED BY IDOCK:   -2.63 KCAL/MOL
REMARK 922        TOTAL FREE ENERGY PREDICTED BY IDOCK:   -3.10 KCAL/MOL
REMARK 923 INTER-LIGAND FREE ENERGY PREDICTED BY IDOCK:   -2.92 KCAL/MOL
REMARK 924 INTRA-LIGAND FREE ENERGY PREDICTED BY IDOCK:   -0.19 KCAL/MOL
REMARK 927      BINDING AFFINITY PREDICTED BY RF-SCORE:    0.00 PKD
ROOT
HETATM    1  O   UNL     1      -9.279   2.122  63.219  1.00  0.00    -0.091 OA 
HETATM    2  C   UNL     1      -8.972   3.060  64.160  1.00  0.00    -0.104 A  
HETATM    3  H   UNL     1     -10.026   1.544  63.319  1.00  0.00     0.000 HD 
HETATM    4  C   UNL     1      -7.881   3.905  64.016  1.00  0.00    -0.084 A  
HETATM    5  C   UNL     1      -7.570   4.811  65.035  1.00  0.00    -0.077 A  
HETATM    6  C   UNL     1      -8.351   4.900  66.204  1.00  0.00    -0.112 A  
HETATM    7  C   UNL     1      -9.465   4.047  66.302  1.00  0.00    -0.199 A  
HETATM    8  C   UNL     1      -9.775   3.135  65.288  1.00  0.00     0.013 A  
ENDROOT
BRANCH   6   9
HETATM    9  C   UNL     1      -7.935   5.781  67.393  1.00  0.00    -0.102 C  
HETATM   10  C   UNL     1      -8.595   5.480  68.772  1.00  0.00    -0.100 C  
HETATM   11  N   UNL     1     -10.062   5.489  68.838  1.00  0.00    -0.180 NA 
HETATM   12  C   UNL     1     -10.640   6.818  68.637  1.00  0.00    -0.227 C  
HETATM   13  H   UNL     1     -10.388   5.080  69.713  1.00  0.00     0.000 HD 
HETATM   14  C   UNL     1     -10.464   7.375  67.218  1.00  0.00    -0.385 C  
HETATM   15  C   UNL     1      -9.123   8.056  67.023  1.00  0.00    -0.170 A  
HETATM   16  C   UNL     1      -9.018   9.437  66.748  1.00  0.00    -0.131 A  
HETATM   17  C   UNL     1      -7.762  10.045  66.638  1.00  0.00    -0.104 A  
HETATM   18 CL   UNL     1     -10.409  10.452  66.539  1.00  0.00    -0.296 Cl 
HETATM   19  C   UNL     1      -6.607   9.295  66.790  1.00  0.00    -0.068 A  
HETATM   20  O   UNL     1      -7.604  11.385  66.385  1.00  0.00    -0.276 OA 
HETATM   21  H   UNL     1      -6.752  11.798  66.310  1.00  0.00     0.000 HD 
HETATM   22  O   UNL     1      -5.383   9.894  66.714  1.00  0.00    -0.043 OA 
HETATM   23  C   UNL     1      -6.677   7.933  67.025  1.00  0.00    -0.068 A  
HETATM   24  H   UNL     1      -4.590   9.379  66.817  1.00  0.00     0.000 HD 
HETATM   25  C   UNL     1      -7.929   7.292  67.137  1.00  0.00    -0.110 A  
ENDBRANCH   6   9
TORSDOF 1
ENDMDL
MODEL      179
REMARK 921   NORMALIZED FREE ENERGY PREDICTED BY IDOCK:   -2.52 KCAL/MOL
REMARK 922        TOTAL FREE ENERGY PREDICTED BY IDOCK:   -2.99 KCAL/MOL
REMARK 923 INTER-LIGAND FREE ENERGY PREDICTED BY IDOCK:   -2.81 KCAL/MOL
REMARK 924 INTRA-LIGAND FREE ENERGY PREDICTED BY IDOCK:   -0.18 KCAL/MOL
REMARK 927      BINDING AFFINITY PREDICTED BY RF-SCORE:    0.00 PKD
ROOT
HETATM    1  O   UNL     1      -5.188  13.720  70.964  1.00  0.00    -0.117 OA 
HETATM    2  C   UNL     1      -5.820  14.167  69.842  1.00  0.00    -0.124 A  
HETATM    3  H   UNL     1      -5.592  13.085  71.544  1.00  0.00     0.000 HD 
HETATM    4  C   UNL     1      -5.230  15.095  68.996  1.00  0.00    -0.098 A  
HETATM    5  C   UNL     1      -5.941  15.571  67.889  1.00  0.00    -0.163 A  
HETATM    6  C   UNL     1      -7.241  15.116  67.600  1.00  0.00    -0.208 A  
HETATM    7  C   UNL     1      -7.797  14.154  68.464  1.00  0.00    -0.140 A  
HETATM    8  C   UNL     1      -7.091  13.682  69.576  1.00  0.00     0.159 A  
ENDROOT
BRANCH   6   9
HETATM    9  C   UNL     1      -8.089  15.739  66.479  1.00  0.00    -0.231 C  
HETATM   10  C   UNL     1      -8.280  17.285  66.501  1.00  0.00    -0.276 C  
HETATM   11  N   UNL     1      -8.837  17.882  67.721  1.00  0.00    -0.247 NA 
HETATM   12  C   UNL     1     -10.234  17.516  67.957  1.00  0.00    -0.354 C  
HETATM   13  H   UNL     1      -8.724  18.895  67.712  1.00  0.00     0.000 HD 
HETATM   14  C   UNL     1     -10.448  16.036  68.300  1.00  0.00    -0.269 C  
HETATM   15  C   UNL     1     -10.549  15.161  67.065  1.00  0.00    -0.300 A  
HETATM   16  C   UNL     1     -11.731  14.462  66.737  1.00  0.00    -0.397 A  
HETATM   17  C   UNL     1     -11.809  13.716  65.555  1.00  0.00    -0.362 A  
HETATM   18 CL   UNL     1     -13.136  14.483  67.753  1.00  0.00     1.971 Cl 
HETATM   19  C   UNL     1     -10.723  13.650  64.697  1.00  0.00    -0.421 A  
HETATM   20  O   UNL     1     -12.938  13.028  65.184  1.00  0.00    -0.729 OA 
HETATM   21  H   UNL     1     -12.991  12.521  64.381  1.00  0.00     0.000 HD 
HETATM   22  O   UNL     1     -10.811  12.948  63.529  1.00  0.00    -0.532 OA 
HETATM   23  C   UNL     1      -9.540  14.296  65.007  1.00  0.00     0.370 A  
HETATM   24  H   UNL     1     -10.066  12.903  62.941  1.00  0.00     0.000 HD 
HETATM   25  C   UNL     1      -9.430  15.052  66.194  1.00  0.00    -0.347 A  
ENDBRANCH   6   9
TORSDOF 1
ENDMDL
MODEL      180
REMARK 921   NORMALIZED FREE ENERGY PREDICTED BY IDOCK:   -1.95 KCAL/MOL
REMARK 922        TOTAL FREE ENERGY PREDICTED BY IDOCK:   -2.38 KCAL/MOL
REMARK 923 INTER-LIGAND FREE ENERGY PREDICTED BY IDOCK:   -2.47 KCAL/MOL
REMARK 924 INTRA-LIGAND FREE ENERGY PREDICTED BY IDOCK:    0.09 KCAL/MOL
REMARK 927      BINDING AFFINITY PREDICTED BY RF-SCORE:    0.00 PKD
ROOT
HETATM    1  O   UNL     1     -13.634  15.735  73.860  1.00  0.00    -0.688 OA 
HETATM    2  C   UNL     1     -12.711  15.649  72.861  1.00  0.00    -0.453 A  
HETATM    3  H   UNL     1     -14.540  15.958  73.683  1.00  0.00     0.000 HD 
HETATM    4  C   UNL     1     -11.386  15.324  73.120  1.00  0.00     0.153 A  
HETATM    5  C   UNL     1     -10.462  15.308  72.070  1.00  0.00     1.352 A  
HETATM    6  C   UNL     1     -10.846  15.597  70.747  1.00  0.00    -0.275 A  
HETATM    7  C   UNL     1     -12.202  15.896  70.518  1.00  0.00    -0.314 A  
HETATM    8  C   UNL     1     -13.128  15.920  71.566  1.00  0.00    -0.278 A  
ENDROOT
BRANCH   6   9
HETATM    9  C   UNL     1      -9.816  15.731  69.613  1.00  0.00    -0.275 C  
HETATM   10  C   UNL     1     -10.031  16.880  68.582  1.00  0.00    -0.279 C  
HETATM   11  N   UNL     1     -11.320  16.928  67.880  1.00  0.00    -0.035 NA 
HETATM   12  C   UNL     1     -11.517  15.808  66.959  1.00  0.00     0.125 C  
HETATM   13  H   UNL     1     -11.437  17.819  67.398  1.00  0.00     0.000 HD 
HETATM   14  C   UNL     1     -11.675  14.446  67.648  1.00  0.00    -0.421 C  
HETATM   15  C   UNL     1     -10.341  13.798  67.966  1.00  0.00    -0.246 A  
HETATM   16  C   UNL     1      -9.937  12.584  67.368  1.00  0.00    -0.207 A  
HETATM   17  C   UNL     1      -8.672  12.048  67.636  1.00  0.00    -0.166 A  
HETATM   18 CL   UNL     1     -10.956  11.699  66.279  1.00  0.00    -0.334 Cl 
HETATM   19  C   UNL     1      -7.805  12.699  68.499  1.00  0.00    -0.104 A  
HETATM   20  O   UNL     1      -8.225  10.879  67.071  1.00  0.00    -0.126 OA 
HETATM   21  H   UNL     1      -7.367  10.515  67.253  1.00  0.00     0.000 HD 
HETATM   22  O   UNL     1      -6.560  12.192  68.736  1.00  0.00    -0.071 OA 
HETATM   23  C   UNL     1      -8.186  13.871  69.128  1.00  0.00     0.277 A  
HETATM   24  H   UNL     1      -5.966  12.639  69.328  1.00  0.00     0.000 HD 
HETATM   25  C   UNL     1      -9.457  14.433  68.880  1.00  0.00    -0.107 A  
ENDBRANCH   6   9
TORSDOF 1
ENDMDL
MODEL      181
REMARK 921   NORMALIZED FREE ENERGY PREDICTED BY IDOCK:   -1.93 KCAL/MOL
REMARK 922        TOTAL FREE ENERGY PREDICTED BY IDOCK:   -2.36 KCAL/MOL
REMARK 923 INTER-LIGAND FREE ENERGY PREDICTED BY IDOCK:   -1.90 KCAL/MOL
REMARK 924 INTRA-LIGAND FREE ENERGY PREDICTED BY IDOCK:   -0.46 KCAL/MOL
REMARK 927      BINDING AFFINITY PREDICTED BY RF-SCORE:    0.00 PKD
ROOT
HETATM    1  O   UNL     1      -5.161  12.128  68.771  1.00  0.00    -0.051 OA 
HETATM    2  C   UNL     1      -5.795  11.296  67.898  1.00  0.00    -0.043 A  
HETATM    3  H   UNL     1      -4.411  11.840  69.278  1.00  0.00     0.000 HD 
HETATM    4  C   UNL     1      -6.892  11.717  67.158  1.00  0.00    -0.148 A  
HETATM    5  C   UNL     1      -7.548  10.810  66.319  1.00  0.00    -0.142 A  
HETATM    6  C   UNL     1      -7.111   9.478  66.191  1.00  0.00    -0.092 A  
HETATM    7  C   UNL     1      -5.979   9.095  66.935  1.00  0.00    -0.053 A  
HETATM    8  C   UNL     1      -5.325   9.997  67.780  1.00  0.00    -0.038 A  
ENDROOT
BRANCH   6   9
HETATM    9  C   UNL     1      -7.909   8.435  65.393  1.00  0.00    -0.108 C  
HETATM   10  C   UNL     1      -9.374   8.798  65.005  1.00  0.00     0.246 C  
HETATM   11  N   UNL     1     -10.290   9.171  66.090  1.00  0.00    -0.247 NA 
HETATM   12  C   UNL     1     -10.602   8.059  66.989  1.00  0.00    -0.294 C  
HETATM   13  H   UNL     1     -11.143   9.586  65.718  1.00  0.00     0.000 HD 
HETATM   14  C   UNL     1      -9.415   7.581  67.836  1.00  0.00    -0.153 C  
HETATM   15  C   UNL     1      -8.539   6.586  67.100  1.00  0.00    -0.111 A  
HETATM   16  C   UNL     1      -8.395   5.250  67.534  1.00  0.00    -0.106 A  
HETATM   17  C   UNL     1      -7.629   4.342  66.792  1.00  0.00    -0.086 A  
HETATM   18 CL   UNL     1      -9.146   4.656  68.979  1.00  0.00    -0.150 Cl 
HETATM   19  C   UNL     1      -6.997   4.748  65.628  1.00  0.00    -0.063 A  
HETATM   20  O   UNL     1      -7.468   3.030  67.163  1.00  0.00    -0.068 OA 
HETATM   21  H   UNL     1      -6.948   2.414  66.660  1.00  0.00     0.000 HD 
HETATM   22  O   UNL     1      -6.276   3.855  64.890  1.00  0.00    -0.023 OA 
HETATM   23  C   UNL     1      -7.090   6.059  65.197  1.00  0.00    -0.064 A  
HETATM   24  H   UNL     1      -5.842   4.134  64.091  1.00  0.00     0.000 HD 
HETATM   25  C   UNL     1      -7.852   6.998  65.925  1.00  0.00    -0.106 A  
ENDBRANCH   6   9
TORSDOF 1
ENDMDL
MODEL      182
REMARK 921   NORMALIZED FREE ENERGY PREDICTED BY IDOCK:   -1.89 KCAL/MOL
REMARK 922        TOTAL FREE ENERGY PREDICTED BY IDOCK:   -2.33 KCAL/MOL
REMARK 923 INTER-LIGAND FREE ENERGY PREDICTED BY IDOCK:   -2.23 KCAL/MOL
REMARK 924 INTRA-LIGAND FREE ENERGY PREDICTED BY IDOCK:   -0.10 KCAL/MOL
REMARK 927      BINDING AFFINITY PREDICTED BY RF-SCORE:    0.00 PKD
ROOT
HETATM    1  O   UNL     1      -7.866  13.690  68.461  1.00  0.00    -0.136 OA 
HETATM    2  C   UNL     1      -7.604  12.352  68.455  1.00  0.00    -0.129 A  
HETATM    3  H   UNL     1      -8.437  14.088  67.814  1.00  0.00     0.000 HD 
HETATM    4  C   UNL     1      -6.770  11.770  69.400  1.00  0.00    -0.098 A  
HETATM    5  C   UNL     1      -6.482  10.404  69.317  1.00  0.00    -0.052 A  
HETATM    6  C   UNL     1      -7.033   9.596  68.304  1.00  0.00    -0.073 A  
HETATM    7  C   UNL     1      -7.895  10.215  67.381  1.00  0.00    -0.102 A  
HETATM    8  C   UNL     1      -8.180  11.582  67.456  1.00  0.00    -0.140 A  
ENDROOT
BRANCH   6   9
HETATM    9  C   UNL     1      -6.607   8.131  68.113  1.00  0.00    -0.057 C  
HETATM   10  C   UNL     1      -6.752   7.524  66.685  1.00  0.00    -0.058 C  
HETATM   11  N   UNL     1      -8.077   7.579  66.056  1.00  0.00    -0.116 NA 
HETATM   12  C   UNL     1      -9.067   6.731  66.723  1.00  0.00    -0.140 C  
HETATM   13  H   UNL     1      -8.017   7.354  65.064  1.00  0.00     0.000 HD 
HETATM   14  C   UNL     1      -9.454   7.202  68.131  1.00  0.00    -0.132 C  
HETATM   15  C   UNL     1      -8.490   6.712  69.193  1.00  0.00    -0.124 A  
HETATM   16  C   UNL     1      -8.891   5.825  70.216  1.00  0.00    -0.141 A  
HETATM   17  C   UNL     1      -7.958   5.341  71.142  1.00  0.00    -0.108 A  
HETATM   18 CL   UNL     1     -10.529   5.281  70.386  1.00  0.00    -0.342 Cl 
HETATM   19  C   UNL     1      -6.632   5.736  71.070  1.00  0.00    -0.045 A  
HETATM   20  O   UNL     1      -8.293   4.468  72.147  1.00  0.00    -0.105 OA 
HETATM   21  H   UNL     1      -7.661   4.140  72.776  1.00  0.00     0.000 HD 
HETATM   22  O   UNL     1      -5.718   5.241  71.954  1.00  0.00    -0.018 OA 
HETATM   23  C   UNL     1      -6.216   6.632  70.101  1.00  0.00    -0.031 A  
HETATM   24  H   UNL     1      -4.808   5.512  71.904  1.00  0.00     0.000 HD 
HETATM   25  C   UNL     1      -7.134   7.139  69.156  1.00  0.00    -0.083 A  
ENDBRANCH   6   9
TORSDOF 1
ENDMDL
MODEL      183
REMARK 921   NORMALIZED FREE ENERGY PREDICTED BY IDOCK:   -1.78 KCAL/MOL
REMARK 922        TOTAL FREE ENERGY PREDICTED BY IDOCK:   -2.21 KCAL/MOL
REMARK 923 INTER-LIGAND FREE ENERGY PREDICTED BY IDOCK:   -2.10 KCAL/MOL
REMARK 924 INTRA-LIGAND FREE ENERGY PREDICTED BY IDOCK:   -0.11 KCAL/MOL
REMARK 927      BINDING AFFINITY PREDICTED BY RF-SCORE:    0.00 PKD
ROOT
HETATM    1  O   UNL     1     -12.944  11.516  64.501  1.00  0.00     0.189 OA 
HETATM    2  C   UNL     1     -11.671  11.433  64.981  1.00  0.00     0.258 A  
HETATM    3  H   UNL     1     -13.674  11.750  65.063  1.00  0.00     0.000 HD 
HETATM    4  C   UNL     1     -10.606  11.090  64.161  1.00  0.00    -0.412 A  
HETATM    5  C   UNL     1      -9.326  10.958  64.711  1.00  0.00    -0.259 A  
HETATM    6  C   UNL     1      -9.087  11.182  66.080  1.00  0.00    -0.214 A  
HETATM    7  C   UNL     1     -10.186  11.555  66.875  1.00  0.00    -0.249 A  
HETATM    8  C   UNL     1     -11.468  11.681  66.331  1.00  0.00    -0.238 A  
ENDROOT
BRANCH   6   9
HETATM    9  C   UNL     1      -7.721  10.894  66.724  1.00  0.00    -0.141 C  
HETATM   10  C   UNL     1      -6.463  11.002  65.810  1.00  0.00     0.052 C  
HETATM   11  N   UNL     1      -6.441  10.191  64.587  1.00  0.00    -0.129 NA 
HETATM   12  C   UNL     1      -6.362   8.753  64.850  1.00  0.00    -0.065 C  
HETATM   13  H   UNL     1      -5.688  10.488  63.968  1.00  0.00     0.000 HD 
HETATM   14  C   UNL     1      -7.618   8.161  65.503  1.00  0.00    -0.087 C  
HETATM   15  C   UNL     1      -7.617   8.319  67.011  1.00  0.00    -0.092 A  
HETATM   16  C   UNL     1      -7.578   7.207  67.880  1.00  0.00    -0.111 A  
HETATM   17  C   UNL     1      -7.513   7.391  69.267  1.00  0.00    -0.092 A  
HETATM   18 CL   UNL     1      -7.601   5.572  67.300  1.00  0.00    -0.088 Cl 
HETATM   19  C   UNL     1      -7.495   8.669  69.801  1.00  0.00    -0.060 A  
HETATM   20  O   UNL     1      -7.461   6.345  70.154  1.00  0.00    -0.089 OA 
HETATM   21  H   UNL     1      -7.417   6.469  71.094  1.00  0.00     0.000 HD 
HETATM   22  O   UNL     1      -7.401   8.848  71.151  1.00  0.00    -0.091 OA 
HETATM   23  C   UNL     1      -7.568   9.778  68.978  1.00  0.00    -0.082 A  
HETATM   24  H   UNL     1      -7.388   9.725  71.518  1.00  0.00     0.000 HD 
HETATM   25  C   UNL     1      -7.638   9.623  67.577  1.00  0.00    -0.095 A  
ENDBRANCH   6   9
TORSDOF 1
ENDMDL
MODEL      184
REMARK 921   NORMALIZED FREE ENERGY PREDICTED BY IDOCK:   -1.40 KCAL/MOL
REMARK 922        TOTAL FREE ENERGY PREDICTED BY IDOCK:   -1.80 KCAL/MOL
REMARK 923 INTER-LIGAND FREE ENERGY PREDICTED BY IDOCK:   -1.33 KCAL/MOL
REMARK 924 INTRA-LIGAND FREE ENERGY PREDICTED BY IDOCK:   -0.47 KCAL/MOL
REMARK 927      BINDING AFFINITY PREDICTED BY RF-SCORE:    0.00 PKD
ROOT
HETATM    1  O   UNL     1      -6.244  14.273  72.536  1.00  0.00    -0.139 OA 
HETATM    2  C   UNL     1      -6.263  14.684  71.237  1.00  0.00     0.204 A  
HETATM    3  H   UNL     1      -7.018  13.920  72.958  1.00  0.00     0.000 HD 
HETATM    4  C   UNL     1      -5.131  15.200  70.621  1.00  0.00    -0.133 A  
HETATM    5  C   UNL     1      -5.214  15.666  69.304  1.00  0.00    -0.100 A  
HETATM    6  C   UNL     1      -6.419  15.607  68.578  1.00  0.00    -0.107 A  
HETATM    7  C   UNL     1      -7.538  15.053  69.226  1.00  0.00    -0.187 A  
HETATM    8  C   UNL     1      -7.460  14.593  70.544  1.00  0.00     0.875 A  
ENDROOT
BRANCH   6   9
HETATM    9  C   UNL     1      -6.561  16.251  67.189  1.00  0.00    -0.230 C  
HETATM   10  C   UNL     1      -5.503  17.321  66.783  1.00  0.00    -0.186 C  
HETATM   11  N   UNL     1      -5.326  18.472  67.677  1.00  0.00    -0.155 NA 
HETATM   12  C   UNL     1      -6.489  19.360  67.710  1.00  0.00    -0.221 C  
HETATM   13  H   UNL     1      -4.481  18.990  67.437  1.00  0.00     0.000 HD 
HETATM   14  C   UNL     1      -7.734  18.745  68.362  1.00  0.00    -0.344 C  
HETATM   15  C   UNL     1      -8.545  17.909  67.392  1.00  0.00    -0.239 A  
HETATM   16  C   UNL     1      -9.861  18.262  67.019  1.00  0.00    -0.326 A  
HETATM   17  C   UNL     1     -10.557  17.503  66.070  1.00  0.00    -0.217 A  
HETATM   18 CL   UNL     1     -10.682  19.633  67.691  1.00  0.00    -0.550 Cl 
HETATM   19  C   UNL     1      -9.965  16.391  65.494  1.00  0.00    -0.141 A  
HETATM   20  O   UNL     1     -11.832  17.810  65.664  1.00  0.00     1.932 OA 
HETATM   21  H   UNL     1     -12.305  17.294  65.020  1.00  0.00     0.000 HD 
HETATM   22  O   UNL     1     -10.633  15.669  64.547  1.00  0.00    -0.684 OA 
HETATM   23  C   UNL     1      -8.691  16.000  65.865  1.00  0.00    -0.103 A  
HETATM   24  H   UNL     1     -10.226  14.906  64.151  1.00  0.00     0.000 HD 
HETATM   25  C   UNL     1      -7.966  16.743  66.821  1.00  0.00    -0.275 A  
ENDBRANCH   6   9
TORSDOF 1
ENDMDL
MODEL      185
REMARK 921   NORMALIZED FREE ENERGY PREDICTED BY IDOCK:   -1.28 KCAL/MOL
REMARK 922        TOTAL FREE ENERGY PREDICTED BY IDOCK:   -1.67 KCAL/MOL
REMARK 923 INTER-LIGAND FREE ENERGY PREDICTED BY IDOCK:   -1.85 KCAL/MOL
REMARK 924 INTRA-LIGAND FREE ENERGY PREDICTED BY IDOCK:    0.17 KCAL/MOL
REMARK 927      BINDING AFFINITY PREDICTED BY RF-SCORE:    0.00 PKD
ROOT
HETATM    1  O   UNL     1      -9.829  12.922  69.071  1.00  0.00    -0.406 OA 
HETATM    2  C   UNL     1      -8.986  12.081  68.408  1.00  0.00    -0.153 A  
HETATM    3  H   UNL     1     -10.764  12.760  69.111  1.00  0.00     0.000 HD 
HETATM    4  C   UNL     1      -7.620  12.318  68.349  1.00  0.00    -0.128 A  
HETATM    5  C   UNL     1      -6.801  11.459  67.606  1.00  0.00    -0.080 A  
HETATM    6  C   UNL     1      -7.330  10.344  66.928  1.00  0.00    -0.106 A  
HETATM    7  C   UNL     1      -8.715  10.120  67.033  1.00  0.00    -0.137 A  
HETATM    8  C   UNL     1      -9.537  10.980  67.769  1.00  0.00    -0.180 A  
ENDROOT
BRANCH   6   9
HETATM    9  C   UNL     1      -6.470   9.483  65.988  1.00  0.00    -0.073 C  
HETATM   10  C   UNL     1      -6.230  10.020  64.545  1.00  0.00    -0.126 C  
HETATM   11  N   UNL     1      -7.412  10.334  63.733  1.00  0.00    -0.261 NA 
HETATM   12  C   UNL     1      -8.191   9.151  63.367  1.00  0.00    -0.178 C  
HETATM   13  H   UNL     1      -7.151  10.867  62.904  1.00  0.00     0.000 HD 
HETATM   14  C   UNL     1      -8.892   8.468  64.549  1.00  0.00     0.119 C  
HETATM   15  C   UNL     1      -7.984   7.500  65.282  1.00  0.00    -0.126 A  
HETATM   16  C   UNL     1      -8.245   6.113  65.322  1.00  0.00    -0.142 A  
HETATM   17  C   UNL     1      -7.350   5.240  65.953  1.00  0.00    -0.081 A  
HETATM   18 CL   UNL     1      -9.658   5.411  64.601  1.00  0.00     0.429 Cl 
HETATM   19  C   UNL     1      -6.202   5.730  66.554  1.00  0.00    -0.034 A  
HETATM   20  O   UNL     1      -7.550   3.883  66.009  1.00  0.00    -0.086 OA 
HETATM   21  H   UNL     1      -6.943   3.291  66.437  1.00  0.00     0.000 HD 
HETATM   22  O   UNL     1      -5.315   4.876  67.142  1.00  0.00    -0.011 OA 
HETATM   23  C   UNL     1      -5.937   7.088  66.562  1.00  0.00    -0.034 A  
HETATM   24  H   UNL     1      -4.527   5.213  67.554  1.00  0.00     0.000 HD 
HETATM   25  C   UNL     1      -6.822   7.992  65.937  1.00  0.00    -0.057 A  
ENDBRANCH   6   9
TORSDOF 1
ENDMDL
MODEL      186
REMARK 921   NORMALIZED FREE ENERGY PREDICTED BY IDOCK:   -0.89 KCAL/MOL
REMARK 922        TOTAL FREE ENERGY PREDICTED BY IDOCK:   -1.26 KCAL/MOL
REMARK 923 INTER-LIGAND FREE ENERGY PREDICTED BY IDOCK:   -1.00 KCAL/MOL
REMARK 924 INTRA-LIGAND FREE ENERGY PREDICTED BY IDOCK:   -0.26 KCAL/MOL
REMARK 927      BINDING AFFINITY PREDICTED BY RF-SCORE:    0.00 PKD
ROOT
HETATM    1  O   UNL     1     -10.676   3.365  71.343  1.00  0.00     0.676 OA 
HETATM    2  C   UNL     1     -10.133   4.234  70.444  1.00  0.00    -0.046 A  
HETATM    3  H   UNL     1     -10.921   3.643  72.218  1.00  0.00     0.000 HD 
HETATM    4  C   UNL     1      -9.774   3.828  69.166  1.00  0.00    -0.107 A  
HETATM    5  C   UNL     1      -9.165   4.740  68.298  1.00  0.00    -0.159 A  
HETATM    6  C   UNL     1      -8.921   6.072  68.684  1.00  0.00    -0.118 A  
HETATM    7  C   UNL     1      -9.323   6.454  69.976  1.00  0.00    -0.162 A  
HETATM    8  C   UNL     1      -9.926   5.544  70.849  1.00  0.00    -0.260 A  
ENDROOT
BRANCH   6   9
HETATM    9  C   UNL     1      -8.118   7.040  67.798  1.00  0.00    -0.114 C  
HETATM   10  C   UNL     1      -6.767   6.525  67.217  1.00  0.00    -0.060 C  
HETATM   11  N   UNL     1      -5.767   6.024  68.168  1.00  0.00    -0.008 NA 
HETATM   12  C   UNL     1      -5.216   7.070  69.030  1.00  0.00    -0.014 C  
HETATM   13  H   UNL     1      -5.022   5.525  67.682  1.00  0.00     0.000 HD 
HETATM   14  C   UNL     1      -6.220   7.656  70.031  1.00  0.00    -0.027 C  
HETATM   15  C   UNL     1      -7.065   8.761  69.427  1.00  0.00    -0.057 A  
HETATM   16  C   UNL     1      -6.998  10.093  69.891  1.00  0.00    -0.133 A  
HETATM   17  C   UNL     1      -7.744  11.100  69.266  1.00  0.00    -0.024 A  
HETATM   18 CL   UNL     1      -6.002  10.563  71.231  1.00  0.00     0.106 Cl 
HETATM   19  C   UNL     1      -8.564  10.798  68.191  1.00  0.00    -0.129 A  
HETATM   20  O   UNL     1      -7.705  12.412  69.669  1.00  0.00     0.041 OA 
HETATM   21  H   UNL     1      -8.212  13.095  69.246  1.00  0.00     0.000 HD 
HETATM   22  O   UNL     1      -9.268  11.785  67.564  1.00  0.00    -0.168 OA 
HETATM   23  C   UNL     1      -8.678   9.496  67.737  1.00  0.00    -0.115 A  
HETATM   24  H   UNL     1      -9.831  11.577  66.826  1.00  0.00     0.000 HD 
HETATM   25  C   UNL     1      -7.941   8.459  68.349  1.00  0.00    -0.118 A  
ENDBRANCH   6   9
TORSDOF 1
ENDMDL
MODEL      187
REMARK 921   NORMALIZED FREE ENERGY PREDICTED BY IDOCK:    0.41 KCAL/MOL
REMARK 922        TOTAL FREE ENERGY PREDICTED BY IDOCK:    0.11 KCAL/MOL
REMARK 923 INTER-LIGAND FREE ENERGY PREDICTED BY IDOCK:    0.28 KCAL/MOL
REMARK 924 INTRA-LIGAND FREE ENERGY PREDICTED BY IDOCK:   -0.17 KCAL/MOL
REMARK 927      BINDING AFFINITY PREDICTED BY RF-SCORE:    0.00 PKD
ROOT
HETATM    1  O   UNL     1     -12.004  10.112  67.933  1.00  0.00    -0.373 OA 
HETATM    2  C   UNL     1     -11.137  11.154  68.078  1.00  0.00    -0.276 A  
HETATM    3  H   UNL     1     -12.787  10.187  67.401  1.00  0.00     0.000 HD 
HETATM    4  C   UNL     1      -9.992  11.044  68.855  1.00  0.00    -0.201 A  
HETATM    5  C   UNL     1      -9.163  12.159  69.025  1.00  0.00     0.367 A  
HETATM    6  C   UNL     1      -9.454  13.391  68.409  1.00  0.00    -0.176 A  
HETATM    7  C   UNL     1     -10.607  13.457  67.606  1.00  0.00    -0.249 A  
HETATM    8  C   UNL     1     -11.442  12.347  67.440  1.00  0.00    -0.418 A  
ENDROOT
BRANCH   6   9
HETATM    9  C   UNL     1      -8.638  14.660  68.707  1.00  0.00    -0.160 C  
HETATM   10  C   UNL     1      -8.487  15.080  70.200  1.00  0.00     0.644 C  
HETATM   11  N   UNL     1      -9.718  15.275  70.977  1.00  0.00     0.595 NA 
HETATM   12  C   UNL     1     -10.502  16.428  70.534  1.00  0.00     0.408 C  
HETATM   13  H   UNL     1      -9.512  15.338  71.973  1.00  0.00     0.000 HD 
HETATM   14  C   UNL     1     -11.125  16.270  69.141  1.00  0.00    -0.322 C  
HETATM   15  C   UNL     1     -10.165  16.643  68.029  1.00  0.00    -0.280 A  
HETATM   16  C   UNL     1     -10.405  17.736  67.167  1.00  0.00    -0.353 A  
HETATM   17  C   UNL     1      -9.465  18.092  66.192  1.00  0.00    -0.146 A  
HETATM   18 CL   UNL     1     -11.848  18.694  67.260  1.00  0.00     1.653 Cl 
HETATM   19  C   UNL     1      -8.290  17.369  66.058  1.00  0.00    -0.106 A  
HETATM   20  O   UNL     1      -9.644  19.152  65.339  1.00  0.00    -0.029 OA 
HETATM   21  H   UNL     1      -9.006  19.393  64.677  1.00  0.00     0.000 HD 
HETATM   22  O   UNL     1      -7.360  17.735  65.128  1.00  0.00     0.153 OA 
HETATM   23  C   UNL     1      -8.042  16.272  66.864  1.00  0.00    -0.270 A  
HETATM   24  H   UNL     1      -6.555  17.239  65.036  1.00  0.00     0.000 HD 
HETATM   25  C   UNL     1      -8.973  15.887  67.852  1.00  0.00    -0.181 A  
ENDBRANCH   6   9
TORSDOF 1
ENDMDL
MODEL      188
REMARK 921   NORMALIZED FREE ENERGY PREDICTED BY IDOCK:    2.58 KCAL/MOL
REMARK 922        TOTAL FREE ENERGY PREDICTED BY IDOCK:    2.41 KCAL/MOL
REMARK 923 INTER-LIGAND FREE ENERGY PREDICTED BY IDOCK:    2.80 KCAL/MOL
REMARK 924 INTRA-LIGAND FREE ENERGY PREDICTED BY IDOCK:   -0.40 KCAL/MOL
REMARK 927      BINDING AFFINITY PREDICTED BY RF-SCORE:    0.00 PKD
ROOT
HETATM    1  O   UNL     1      -9.077   9.524  64.399  1.00  0.00    -0.289 OA 
HETATM    2  C   UNL     1      -9.456  10.703  64.968  1.00  0.00    -0.243 A  
HETATM    3  H   UNL     1      -9.628   9.076  63.768  1.00  0.00     0.000 HD 
HETATM    4  C   UNL     1      -8.651  11.358  65.890  1.00  0.00    -0.049 A  
HETATM    5  C   UNL     1      -9.109  12.535  66.493  1.00  0.00    -0.177 A  
HETATM    6  C   UNL     1     -10.365  13.084  66.175  1.00  0.00    -0.285 A  
HETATM    7  C   UNL     1     -11.142  12.407  65.216  1.00  0.00    -0.342 A  
HETATM    8  C   UNL     1     -10.691  11.228  64.616  1.00  0.00    -0.371 A  
ENDROOT
BRANCH   6   9
HETATM    9  C   UNL     1     -10.942  14.287  66.938  1.00  0.00    -0.304 C  
HETATM   10  C   UNL     1     -11.547  15.448  66.093  1.00  0.00     0.110 C  
HETATM   11  N   UNL     1     -10.686  16.068  65.079  1.00  0.00    -0.593 NA 
HETATM   12  C   UNL     1      -9.566  16.816  65.653  1.00  0.00     0.065 C  
HETATM   13  H   UNL     1     -11.231  16.658  64.451  1.00  0.00     0.000 HD 
HETATM   14  C   UNL     1      -8.516  15.941  66.351  1.00  0.00    -0.348 C  
HETATM   15  C   UNL     1      -8.887  15.622  67.786  1.00  0.00    -0.173 A  
HETATM   16  C   UNL     1      -8.114  16.075  68.878  1.00  0.00    -0.218 A  
HETATM   17  C   UNL     1      -8.523  15.817  70.192  1.00  0.00     0.843 A  
HETATM   18 CL   UNL     1      -6.643  16.969  68.668  1.00  0.00    -0.168 Cl 
HETATM   19  C   UNL     1      -9.686  15.105  70.435  1.00  0.00     0.520 A  
HETATM   20  O   UNL     1      -7.815  16.245  71.288  1.00  0.00     4.349 OA 
HETATM   21  H   UNL     1      -8.092  16.070  72.180  1.00  0.00     0.000 HD 
HETATM   22  O   UNL     1     -10.100  14.880  71.716  1.00  0.00     0.874 OA 
HETATM   23  C   UNL     1     -10.446  14.618  69.387  1.00  0.00    -0.175 A  
HETATM   24  H   UNL     1     -10.898  14.392  71.883  1.00  0.00     0.000 HD 
HETATM   25  C   UNL     1     -10.058  14.859  68.052  1.00  0.00    -0.221 A  
ENDBRANCH   6   9
TORSDOF 1
ENDMDL
MODEL      189
REMARK 921   NORMALIZED FREE ENERGY PREDICTED BY IDOCK:    3.20 KCAL/MOL
REMARK 922        TOTAL FREE ENERGY PREDICTED BY IDOCK:    3.06 KCAL/MOL
REMARK 923 INTER-LIGAND FREE ENERGY PREDICTED BY IDOCK:    3.43 KCAL/MOL
REMARK 924 INTRA-LIGAND FREE ENERGY PREDICTED BY IDOCK:   -0.37 KCAL/MOL
REMARK 927      BINDING AFFINITY PREDICTED BY RF-SCORE:    0.00 PKD
ROOT
HETATM    1  O   UNL     1      -5.269  13.949  69.318  1.00  0.00    -0.081 OA 
HETATM    2  C   UNL     1      -6.508  14.511  69.242  1.00  0.00    -0.123 A  
HETATM    3  H   UNL     1      -4.669  13.964  68.581  1.00  0.00     0.000 HD 
HETATM    4  C   UNL     1      -7.384  14.488  70.318  1.00  0.00     0.450 A  
HETATM    5  C   UNL     1      -8.668  15.025  70.175  1.00  0.00     0.642 A  
HETATM    6  C   UNL     1      -9.090  15.607  68.964  1.00  0.00    -0.241 A  
HETATM    7  C   UNL     1      -8.166  15.637  67.904  1.00  0.00    -0.155 A  
HETATM    8  C   UNL     1      -6.884  15.096  68.042  1.00  0.00    -0.152 A  
ENDROOT
BRANCH   6   9
HETATM    9  C   UNL     1     -10.543  16.063  68.746  1.00  0.00    -0.262 C  
HETATM   10  C   UNL     1     -10.766  17.495  68.174  1.00  0.00    -0.329 C  
HETATM   11  N   UNL     1     -10.162  18.617  68.903  1.00  0.00    -0.475 NA 
HETATM   12  C   UNL     1     -10.765  18.843  70.217  1.00  0.00     2.201 C  
HETATM   13  H   UNL     1     -10.187  19.468  68.342  1.00  0.00     0.000 HD 
HETATM   14  C   UNL     1     -10.493  17.728  71.235  1.00  0.00     2.936 C  
HETATM   15  C   UNL     1     -11.473  16.577  71.112  1.00  0.00    -0.092 A  
HETATM   16  C   UNL     1     -12.374  16.247  72.148  1.00  0.00    -0.325 A  
HETATM   17  C   UNL     1     -13.309  15.219  71.974  1.00  0.00    -0.426 A  
HETATM   18 CL   UNL     1     -12.387  17.079  73.669  1.00  0.00    -0.053 Cl 
HETATM   19  C   UNL     1     -13.354  14.508  70.786  1.00  0.00    -0.189 A  
HETATM   20  O   UNL     1     -14.215  14.868  72.944  1.00  0.00    -0.379 OA 
HETATM   21  H   UNL     1     -14.849  14.170  72.827  1.00  0.00     0.000 HD 
HETATM   22  O   UNL     1     -14.285  13.527  70.606  1.00  0.00     1.061 OA 
HETATM   23  C   UNL     1     -12.460  14.785  69.766  1.00  0.00    -0.230 A  
HETATM   24  H   UNL     1     -14.316  13.040  69.791  1.00  0.00     0.000 HD 
HETATM   25  C   UNL     1     -11.505  15.812  69.913  1.00  0.00    -0.347 A  
ENDBRANCH   6   9
TORSDOF 1
ENDMDL
MODEL      190
REMARK 921   NORMALIZED FREE ENERGY PREDICTED BY IDOCK:    8.59 KCAL/MOL
REMARK 922        TOTAL FREE ENERGY PREDICTED BY IDOCK:    8.77 KCAL/MOL
REMARK 923 INTER-LIGAND FREE ENERGY PREDICTED BY IDOCK:    8.78 KCAL/MOL
REMARK 924 INTRA-LIGAND FREE ENERGY PREDICTED BY IDOCK:   -0.01 KCAL/MOL
REMARK 927      BINDING AFFINITY PREDICTED BY RF-SCORE:    0.00 PKD
ROOT
HETATM    1  O   UNL     1     -11.818  15.986  72.850  1.00  0.00    -0.465 OA 
HETATM    2  C   UNL     1     -11.765  15.149  71.776  1.00  0.00    -0.413 A  
HETATM    3  H   UNL     1     -11.234  16.732  72.929  1.00  0.00     0.000 HD 
HETATM    4  C   UNL     1     -12.618  14.060  71.661  1.00  0.00    -0.403 A  
HETATM    5  C   UNL     1     -12.487  13.193  70.571  1.00  0.00    -0.322 A  
HETATM    6  C   UNL     1     -11.517  13.408  69.572  1.00  0.00    -0.308 A  
HETATM    7  C   UNL     1     -10.690  14.538  69.708  1.00  0.00    -0.075 A  
HETATM    8  C   UNL     1     -10.813  15.403  70.800  1.00  0.00    -0.292 A  
ENDROOT
BRANCH   6   9
HETATM    9  C   UNL     1     -11.263  12.385  68.454  1.00  0.00    -0.316 C  
HETATM   10  C   UNL     1     -10.715  10.987  68.873  1.00  0.00    -0.211 C  
HETATM   11  N   UNL     1      -9.474  10.953  69.656  1.00  0.00    -0.363 NA 
HETATM   12  C   UNL     1      -8.302  11.396  68.899  1.00  0.00    -0.039 C  
HETATM   13  H   UNL     1      -9.321  10.026  70.052  1.00  0.00     0.000 HD 
HETATM   14  C   UNL     1      -8.312  12.887  68.538  1.00  0.00    -0.054 C  
HETATM   15  C   UNL     1      -9.094  13.173  67.271  1.00  0.00    -0.217 A  
HETATM   16  C   UNL     1      -8.475  13.685  66.109  1.00  0.00     0.981 A  
HETATM   17  C   UNL     1      -9.216  13.876  64.936  1.00  0.00     1.586 A  
HETATM   18 CL   UNL     1      -6.792  14.097  66.056  1.00  0.00     4.824 Cl 
HETATM   19  C   UNL     1     -10.568  13.572  64.906  1.00  0.00    -0.397 A  
HETATM   20  O   UNL     1      -8.661  14.359  63.777  1.00  0.00     6.362 OA 
HETATM   21  H   UNL     1      -9.164  14.489  62.982  1.00  0.00     0.000 HD 
HETATM   22  O   UNL     1     -11.282  13.730  63.754  1.00  0.00    -0.544 OA 
HETATM   23  C   UNL     1     -11.209  13.102  66.039  1.00  0.00    -0.316 A  
HETATM   24  H   UNL     1     -12.210  13.521  63.734  1.00  0.00     0.000 HD 
HETATM   25  C   UNL     1     -10.490  12.903  67.236  1.00  0.00    -0.236 A  
ENDBRANCH   6   9
TORSDOF 1
ENDMDL
MODEL      191
REMARK 921   NORMALIZED FREE ENERGY PREDICTED BY IDOCK:   11.91 KCAL/MOL
REMARK 922        TOTAL FREE ENERGY PREDICTED BY IDOCK:   12.29 KCAL/MOL
REMARK 923 INTER-LIGAND FREE ENERGY PREDICTED BY IDOCK:   12.76 KCAL/MOL
REMARK 924 INTRA-LIGAND FREE ENERGY PREDICTED BY IDOCK:   -0.47 KCAL/MOL
REMARK 927      BINDING AFFINITY PREDICTED BY RF-SCORE:    0.00 PKD
ROOT
HETATM    1  O   UNL     1     -11.209  14.376  72.946  1.00  0.00     0.613 OA 
HETATM    2  C   UNL     1     -10.514  14.661  71.808  1.00  0.00     2.247 A  
HETATM    3  H   UNL     1     -11.283  13.487  73.273  1.00  0.00     0.000 HD 
HETATM    4  C   UNL     1     -10.405  15.959  71.329  1.00  0.00     1.102 A  
HETATM    5  C   UNL     1      -9.734  16.197  70.125  1.00  0.00     0.532 A  
HETATM    6  C   UNL     1      -9.147  15.148  69.391  1.00  0.00    -0.180 A  
HETATM    7  C   UNL     1      -9.255  13.849  69.921  1.00  0.00     1.727 A  
HETATM    8  C   UNL     1      -9.931  13.607  71.122  1.00  0.00     6.087 A  
ENDROOT
BRANCH   6   9
HETATM    9  C   UNL     1      -8.541  15.373  67.996  1.00  0.00    -0.151 C  
HETATM   10  C   UNL     1      -9.075  16.581  67.170  1.00  0.00    -0.213 C  
HETATM   11  N   UNL     1     -10.522  16.651  66.928  1.00  0.00    -0.295 NA 
HETATM   12  C   UNL     1     -11.011  15.589  66.048  1.00  0.00    -0.251 C  
HETATM   13  H   UNL     1     -10.786  17.568  66.571  1.00  0.00     0.000 HD 
HETATM   14  C   UNL     1     -10.941  14.182  66.658  1.00  0.00    -0.303 C  
HETATM   15  C   UNL     1      -9.578  13.540  66.483  1.00  0.00    -0.284 A  
HETATM   16  C   UNL     1      -9.394  12.376  65.706  1.00  0.00    -0.011 A  
HETATM   17  C   UNL     1      -8.111  11.847  65.513  1.00  0.00     1.016 A  
HETATM   18 CL   UNL     1     -10.714  11.543  64.950  1.00  0.00    -0.353 Cl 
HETATM   19  C   UNL     1      -7.010  12.458  66.090  1.00  0.00     1.747 A  
HETATM   20  O   UNL     1      -7.876  10.726  64.757  1.00  0.00    -0.349 OA 
HETATM   21  H   UNL     1      -7.006  10.367  64.626  1.00  0.00     0.000 HD 
HETATM   22  O   UNL     1      -5.757  11.960  65.876  1.00  0.00    -0.393 OA 
HETATM   23  C   UNL     1      -7.163  13.579  66.885  1.00  0.00     0.688 A  
HETATM   24  H   UNL     1      -5.001  12.379  66.272  1.00  0.00     0.000 HD 
HETATM   25  C   UNL     1      -8.443  14.132  67.101  1.00  0.00    -0.214 A  
ENDBRANCH   6   9
TORSDOF 1
ENDMDL
MODEL      192
REMARK 921   NORMALIZED FREE ENERGY PREDICTED BY IDOCK:   19.88 KCAL/MOL
REMARK 922        TOTAL FREE ENERGY PREDICTED BY IDOCK:   20.72 KCAL/MOL
REMARK 923 INTER-LIGAND FREE ENERGY PREDICTED BY IDOCK:   20.69 KCAL/MOL
REMARK 924 INTRA-LIGAND FREE ENERGY PREDICTED BY IDOCK:    0.03 KCAL/MOL
REMARK 927      BINDING AFFINITY PREDICTED BY RF-SCORE:    0.00 PKD
ROOT
HETATM    1  O   UNL     1     -12.864  18.963  65.846  1.00  0.00     7.746 OA 
HETATM    2  C   UNL     1     -11.890  18.439  66.642  1.00  0.00     2.758 A  
HETATM    3  H   UNL     1     -13.654  19.343  66.211  1.00  0.00     0.000 HD 
HETATM    4  C   UNL     1     -10.735  17.883  66.109  1.00  0.00    -0.123 A  
HETATM    5  C   UNL     1      -9.791  17.303  66.963  1.00  0.00    -0.281 A  
HETATM    6  C   UNL     1      -9.975  17.284  68.359  1.00  0.00    -0.322 A  
HETATM    7  C   UNL     1     -11.144  17.881  68.865  1.00  0.00     0.828 A  
HETATM    8  C   UNL     1     -12.093  18.456  68.014  1.00  0.00     3.482 A  
ENDROOT
BRANCH   6   9
HETATM    9  C   UNL     1      -9.022  16.519  69.292  1.00  0.00    -0.083 C  
HETATM   10  C   UNL     1      -7.939  17.348  70.045  1.00  0.00     1.891 C  
HETATM   11  N   UNL     1      -7.033  18.173  69.236  1.00  0.00    -0.206 NA 
HETATM   12  C   UNL     1      -6.124  17.385  68.403  1.00  0.00    -0.160 C  
HETATM   13  H   UNL     1      -6.514  18.825  69.824  1.00  0.00     0.000 HD 
HETATM   14  C   UNL     1      -6.815  16.614  67.271  1.00  0.00    -0.212 C  
HETATM   15  C   UNL     1      -7.366  15.278  67.730  1.00  0.00    -0.181 A  
HETATM   16  C   UNL     1      -6.876  14.053  67.226  1.00  0.00     0.197 A  
HETATM   17  C   UNL     1      -7.363  12.837  67.720  1.00  0.00    -0.130 A  
HETATM   18 CL   UNL     1      -5.660  13.975  65.992  1.00  0.00     5.790 Cl 
HETATM   19  C   UNL     1      -8.338  12.823  68.704  1.00  0.00     0.032 A  
HETATM   20  O   UNL     1      -6.912  11.619  67.274  1.00  0.00    -0.110 OA 
HETATM   21  H   UNL     1      -7.243  10.794  67.609  1.00  0.00     0.000 HD 
HETATM   22  O   UNL     1      -8.791  11.637  69.207  1.00  0.00    -0.343 OA 
HETATM   23  C   UNL     1      -8.863  14.006  69.193  1.00  0.00     0.297 A  
HETATM   24  H   UNL     1      -9.460  11.628  69.883  1.00  0.00     0.000 HD 
HETATM   25  C   UNL     1      -8.394  15.247  68.711  1.00  0.00    -0.179 A  
ENDBRANCH   6   9
TORSDOF 1
ENDMDL
MODEL      193
REMARK 921   NORMALIZED FREE ENERGY PREDICTED BY IDOCK:   20.30 KCAL/MOL
REMARK 922        TOTAL FREE ENERGY PREDICTED BY IDOCK:   21.17 KCAL/MOL
REMARK 923 INTER-LIGAND FREE ENERGY PREDICTED BY IDOCK:   21.01 KCAL/MOL
REMARK 924 INTRA-LIGAND FREE ENERGY PREDICTED BY IDOCK:    0.15 KCAL/MOL
REMARK 927      BINDING AFFINITY PREDICTED BY RF-SCORE:    0.00 PKD
ROOT
HETATM    1  O   UNL     1     -13.075  10.735  62.721  1.00  0.00     0.990 OA 
HETATM    2  C   UNL     1     -12.242  10.505  63.775  1.00  0.00     4.069 A  
HETATM    3  H   UNL     1     -13.999  10.518  62.760  1.00  0.00     0.000 HD 
HETATM    4  C   UNL     1     -10.892  10.821  63.718  1.00  0.00     0.190 A  
HETATM    5  C   UNL     1     -10.064  10.511  64.803  1.00  0.00    -0.406 A  
HETATM    6  C   UNL     1     -10.572   9.898  65.964  1.00  0.00    -0.005 A  
HETATM    7  C   UNL     1     -11.950   9.617  65.996  1.00  0.00     6.001 A  
HETATM    8  C   UNL     1     -12.779   9.920  64.912  1.00  0.00    11.697 A  
ENDROOT
BRANCH   6   9
HETATM    9  C   UNL     1      -9.650   9.416  67.096  1.00  0.00    -0.202 C  
HETATM   10  C   UNL     1      -8.704  10.469  67.747  1.00  0.00    -0.122 C  
HETATM   11  N   UNL     1      -7.796  11.205  66.858  1.00  0.00    -0.145 NA 
HETATM   12  C   UNL     1      -6.759  10.360  66.265  1.00  0.00    -0.112 C  
HETATM   13  H   UNL     1      -7.382  12.001  67.341  1.00  0.00     0.000 HD 
HETATM   14  C   UNL     1      -7.286   9.326  65.260  1.00  0.00    -0.090 C  
HETATM   15  C   UNL     1      -7.772   8.057  65.933  1.00  0.00    -0.092 A  
HETATM   16  C   UNL     1      -7.148   6.809  65.717  1.00  0.00    -0.072 A  
HETATM   17  C   UNL     1      -7.583   5.670  66.406  1.00  0.00    -0.091 A  
HETATM   18 CL   UNL     1      -5.825   6.609  64.614  1.00  0.00    -0.030 Cl 
HETATM   19  C   UNL     1      -8.637   5.754  67.300  1.00  0.00    -0.109 A  
HETATM   20  O   UNL     1      -7.003   4.437  66.242  1.00  0.00    -0.063 OA 
HETATM   21  H   UNL     1      -7.298   3.663  66.709  1.00  0.00     0.000 HD 
HETATM   22  O   UNL     1      -9.041   4.650  67.993  1.00  0.00    -0.110 OA 
HETATM   23  C   UNL     1      -9.292   6.955  67.506  1.00  0.00    -0.130 A  
HETATM   24  H   UNL     1      -9.764   4.707  68.607  1.00  0.00     0.000 HD 
HETATM   25  C   UNL     1      -8.878   8.119  66.824  1.00  0.00    -0.156 A  
ENDBRANCH   6   9
TORSDOF 1
ENDMDL
MODEL      194
REMARK 921   NORMALIZED FREE ENERGY PREDICTED BY IDOCK:   25.66 KCAL/MOL
REMARK 922        TOTAL FREE ENERGY PREDICTED BY IDOCK:   26.84 KCAL/MOL
REMARK 923 INTER-LIGAND FREE ENERGY PREDICTED BY IDOCK:   27.31 KCAL/MOL
REMARK 924 INTRA-LIGAND FREE ENERGY PREDICTED BY IDOCK:   -0.47 KCAL/MOL
REMARK 927      BINDING AFFINITY PREDICTED BY RF-SCORE:    0.00 PKD
ROOT
HETATM    1  O   UNL     1      -9.059  19.301  73.159  1.00  0.00     4.059 OA 
HETATM    2  C   UNL     1      -9.847  18.409  72.494  1.00  0.00     7.383 A  
HETATM    3  H   UNL     1      -9.409  19.862  73.841  1.00  0.00     0.000 HD 
HETATM    4  C   UNL     1      -9.336  17.589  71.498  1.00  0.00     8.572 A  
HETATM    5  C   UNL     1     -10.195  16.732  70.801  1.00  0.00     1.669 A  
HETATM    6  C   UNL     1     -11.570  16.668  71.098  1.00  0.00     0.164 A  
HETATM    7  C   UNL     1     -12.046  17.494  72.132  1.00  0.00     3.257 A  
HETATM    8  C   UNL     1     -11.192  18.357  72.827  1.00  0.00     2.941 A  
ENDROOT
BRANCH   6   9
HETATM    9  C   UNL     1     -12.548  15.847  70.242  1.00  0.00    -0.062 C  
HETATM   10  C   UNL     1     -13.653  15.043  70.991  1.00  0.00    -0.381 C  
HETATM   11  N   UNL     1     -13.219  14.092  72.021  1.00  0.00    -0.380 NA 
HETATM   12  C   UNL     1     -12.488  12.947  71.478  1.00  0.00    -0.056 C  
HETATM   13  H   UNL     1     -14.011  13.783  72.585  1.00  0.00     0.000 HD 
HETATM   14  C   UNL     1     -11.116  13.297  70.888  1.00  0.00     2.042 C  
HETATM   15  C   UNL     1     -11.205  13.773  69.451  1.00  0.00    -0.259 A  
HETATM   16  C   UNL     1     -10.622  13.053  68.386  1.00  0.00    -0.251 A  
HETATM   17  C   UNL     1     -10.780  13.488  67.064  1.00  0.00    -0.277 A  
HETATM   18 CL   UNL     1      -9.696  11.608  68.637  1.00  0.00    -0.181 Cl 
HETATM   19  C   UNL     1     -11.504  14.637  66.789  1.00  0.00    -0.364 A  
HETATM   20  O   UNL     1     -10.244  12.818  65.993  1.00  0.00    -0.267 OA 
HETATM   21  H   UNL     1     -10.351  13.114  65.096  1.00  0.00     0.000 HD 
HETATM   22  O   UNL     1     -11.684  15.043  65.498  1.00  0.00    -0.275 OA 
HETATM   23  C   UNL     1     -12.058  15.383  67.814  1.00  0.00     0.278 A  
HETATM   24  H   UNL     1     -12.181  15.831  65.309  1.00  0.00     0.000 HD 
HETATM   25  C   UNL     1     -11.912  14.971  69.156  1.00  0.00    -0.308 A  
ENDBRANCH   6   9
TORSDOF 1
ENDMDL
MODEL      195
REMARK 921   NORMALIZED FREE ENERGY PREDICTED BY IDOCK:   28.88 KCAL/MOL
REMARK 922        TOTAL FREE ENERGY PREDICTED BY IDOCK:   30.24 KCAL/MOL
REMARK 923 INTER-LIGAND FREE ENERGY PREDICTED BY IDOCK:   30.43 KCAL/MOL
REMARK 924 INTRA-LIGAND FREE ENERGY PREDICTED BY IDOCK:   -0.19 KCAL/MOL
REMARK 927      BINDING AFFINITY PREDICTED BY RF-SCORE:    0.00 PKD
ROOT
HETATM    1  O   UNL     1     -11.116  18.988  64.279  1.00  0.00     1.255 OA 
HETATM    2  C   UNL     1     -10.673  18.884  65.564  1.00  0.00    -0.001 A  
HETATM    3  H   UNL     1     -10.644  19.495  63.630  1.00  0.00     0.000 HD 
HETATM    4  C   UNL     1     -11.363  18.143  66.513  1.00  0.00     1.077 A  
HETATM    5  C   UNL     1     -10.904  18.115  67.835  1.00  0.00    -0.225 A  
HETATM    6  C   UNL     1      -9.742  18.809  68.224  1.00  0.00    -0.406 A  
HETATM    7  C   UNL     1      -9.054  19.527  67.229  1.00  0.00    -0.373 A  
HETATM    8  C   UNL     1      -9.514  19.563  65.909  1.00  0.00    -0.173 A  
ENDROOT
BRANCH   6   9
HETATM    9  C   UNL     1      -9.313  18.910  69.697  1.00  0.00     0.464 C  
HETATM   10  C   UNL     1      -8.303  20.036  70.072  1.00  0.00     1.082 C  
HETATM   11  N   UNL     1      -7.030  20.076  69.342  1.00  0.00    -0.251 NA 
HETATM   12  C   UNL     1      -6.160  18.936  69.636  1.00  0.00    -0.264 C  
HETATM   13  H   UNL     1      -6.543  20.956  69.510  1.00  0.00     0.000 HD 
HETATM   14  C   UNL     1      -6.687  17.591  69.118  1.00  0.00    -0.243 C  
HETATM   15  C   UNL     1      -7.666  16.943  70.077  1.00  0.00     1.448 A  
HETATM   16  C   UNL     1      -7.388  15.713  70.713  1.00  0.00     1.662 A  
HETATM   17  C   UNL     1      -8.287  15.176  71.643  1.00  0.00     4.751 A  
HETATM   18 CL   UNL     1      -5.942  14.809  70.399  1.00  0.00    -0.153 Cl 
HETATM   19  C   UNL     1      -9.465  15.842  71.941  1.00  0.00     5.239 A  
HETATM   20  O   UNL     1      -8.059  13.991  72.298  1.00  0.00     5.107 OA 
HETATM   21  H   UNL     1      -8.669  13.626  72.929  1.00  0.00     0.000 HD 
HETATM   22  O   UNL     1     -10.326  15.333  72.870  1.00  0.00     1.712 OA 
HETATM   23  C   UNL     1      -9.782  17.030  71.308  1.00  0.00     5.095 A  
HETATM   24  H   UNL     1     -11.135  15.789  73.074  1.00  0.00     0.000 HD 
HETATM   25  C   UNL     1      -8.897  17.594  70.364  1.00  0.00     3.626 A  
ENDBRANCH   6   9
TORSDOF 1
ENDMDL
