MODEL        1
REMARK 921   NORMALIZED FREE ENERGY PREDICTED BY IDOCK:   -7.28 KCAL/MOL
REMARK 922        TOTAL FREE ENERGY PREDICTED BY IDOCK:   -9.18 KCAL/MOL
REMARK 923 INTER-LIGAND FREE ENERGY PREDICTED BY IDOCK:   -8.56 KCAL/MOL
REMARK 924 INTRA-LIGAND FREE ENERGY PREDICTED BY IDOCK:   -0.62 KCAL/MOL
REMARK 927      BINDING AFFINITY PREDICTED BY RF-SCORE:    0.00 PKD
ROOT
HETATM    1  C   UNL     1     -10.597  13.620  64.662  1.00  0.00    -0.446 C  
HETATM    2  C   UNL     1     -11.363  14.578  65.575  1.00  0.00    -0.335 C  
HETATM    3  O   UNL     1     -10.739  14.620  66.880  1.00  0.00    -0.285 OA 
HETATM    4  C   UNL     1     -11.159  16.003  65.009  1.00  0.00    -0.336 C  
HETATM    5  C   UNL     1     -12.879  14.339  65.573  1.00  0.00    -0.334 C  
HETATM    6  O   UNL     1     -10.645  16.876  65.913  1.00  0.00    -0.322 OA 
HETATM    7  O   UNL     1     -11.442  16.348  63.870  1.00  0.00    -1.063 OA 
ENDROOT
BRANCH   3   8
HETATM    8  C   UNL     1     -11.149  13.824  67.906  1.00  0.00    -0.264 A  
HETATM    9  C   UNL     1     -11.142  12.432  67.920  1.00  0.00    -0.283 A  
HETATM   10  C   UNL     1     -11.657  11.740  69.022  1.00  0.00    -0.372 A  
HETATM   11  C   UNL     1     -12.159  12.440  70.125  1.00  0.00    -0.366 A  
HETATM   12  C   UNL     1     -11.568  14.518  69.046  1.00  0.00    -0.330 A  
HETATM   13  C   UNL     1     -12.063  13.832  70.157  1.00  0.00    -0.429 A  
BRANCH  11  14
HETATM   14  C   UNL     1     -12.768  11.670  71.237  1.00  0.00    -0.340 C  
HETATM   15  O   UNL     1     -13.471  12.264  72.050  1.00  0.00    -0.467 OA 
BRANCH  14  16
HETATM   16  C   UNL     1     -12.513  10.213  71.418  1.00  0.00    -0.524 A  
HETATM   17  C   UNL     1     -13.617   9.351  71.498  1.00  0.00    -0.408 A  
HETATM   18  C   UNL     1     -13.430   7.984  71.713  1.00  0.00    -0.378 A  
HETATM   19  C   UNL     1     -12.140   7.473  71.855  1.00  0.00    -0.305 A  
HETATM   20  C   UNL     1     -11.036   8.320  71.782  1.00  0.00    -0.342 A  
HETATM   21 CL   UNL     1     -11.908   5.794  72.145  1.00  0.00    -0.250 Cl 
HETATM   22  C   UNL     1     -11.221   9.691  71.576  1.00  0.00    -0.377 A  
ENDBRANCH  14  16
ENDBRANCH  11  14
ENDBRANCH   3   8
TORSDOF 3
ENDMDL
MODEL        2
REMARK 921   NORMALIZED FREE ENERGY PREDICTED BY IDOCK:   -6.93 KCAL/MOL
REMARK 922        TOTAL FREE ENERGY PREDICTED BY IDOCK:   -8.77 KCAL/MOL
REMARK 923 INTER-LIGAND FREE ENERGY PREDICTED BY IDOCK:   -8.00 KCAL/MOL
REMARK 924 INTRA-LIGAND FREE ENERGY PREDICTED BY IDOCK:   -0.77 KCAL/MOL
REMARK 927      BINDING AFFINITY PREDICTED BY RF-SCORE:    0.00 PKD
ROOT
HETATM    1  C   UNL     1     -10.531  19.641  65.830  1.00  0.00    -0.591 C  
HETATM    2  C   UNL     1      -9.578  18.763  66.642  1.00  0.00    -0.336 C  
HETATM    3  O   UNL     1      -9.125  17.650  65.836  1.00  0.00    -0.515 OA 
HETATM    4  C   UNL     1      -8.299  19.597  66.893  1.00  0.00    -0.301 C  
HETATM    5  C   UNL     1     -10.119  18.399  68.031  1.00  0.00    -0.392 C  
HETATM    6  O   UNL     1      -7.163  18.989  66.463  1.00  0.00    -0.213 OA 
HETATM    7  O   UNL     1      -8.276  20.692  67.440  1.00  0.00    -0.331 OA 
ENDROOT
BRANCH   3   8
HETATM    8  C   UNL     1      -9.746  16.438  65.859  1.00  0.00    -0.294 A  
HETATM    9  C   UNL     1     -10.890  16.088  65.149  1.00  0.00    -0.411 A  
HETATM   10  C   UNL     1     -11.460  14.822  65.320  1.00  0.00    -0.352 A  
HETATM   11  C   UNL     1     -10.872  13.892  66.184  1.00  0.00    -0.290 A  
HETATM   12  C   UNL     1      -9.111  15.477  66.652  1.00  0.00    -0.310 A  
HETATM   13  C   UNL     1      -9.664  14.205  66.811  1.00  0.00    -0.283 A  
BRANCH  11  14
HETATM   14  C   UNL     1     -11.552  12.591  66.397  1.00  0.00    -0.391 C  
HETATM   15  O   UNL     1     -12.209  12.111  65.477  1.00  0.00    -0.549 OA 
BRANCH  14  16
HETATM   16  C   UNL     1     -11.497  11.878  67.705  1.00  0.00    -0.387 A  
HETATM   17  C   UNL     1     -11.097  10.534  67.712  1.00  0.00    -0.382 A  
HETATM   18  C   UNL     1     -11.073   9.812  68.906  1.00  0.00    -0.139 A  
HETATM   19  C   UNL     1     -11.457  10.427  70.098  1.00  0.00    -0.319 A  
HETATM   20  C   UNL     1     -11.860  11.761  70.103  1.00  0.00    -0.408 A  
HETATM   21 CL   UNL     1     -11.453   9.532  71.566  1.00  0.00    -0.461 Cl 
HETATM   22  C   UNL     1     -11.893  12.484  68.906  1.00  0.00    -0.346 A  
ENDBRANCH  14  16
ENDBRANCH  11  14
ENDBRANCH   3   8
TORSDOF 3
ENDMDL
MODEL        3
REMARK 921   NORMALIZED FREE ENERGY PREDICTED BY IDOCK:   -6.85 KCAL/MOL
REMARK 922        TOTAL FREE ENERGY PREDICTED BY IDOCK:   -8.68 KCAL/MOL
REMARK 923 INTER-LIGAND FREE ENERGY PREDICTED BY IDOCK:   -7.82 KCAL/MOL
REMARK 924 INTRA-LIGAND FREE ENERGY PREDICTED BY IDOCK:   -0.86 KCAL/MOL
REMARK 927      BINDING AFFINITY PREDICTED BY RF-SCORE:    0.00 PKD
ROOT
HETATM    1  C   UNL     1     -10.783   9.641  67.332  1.00  0.00    -0.308 C  
HETATM    2  C   UNL     1     -10.899  10.759  68.368  1.00  0.00    -0.232 C  
HETATM    3  O   UNL     1     -11.973  11.659  68.006  1.00  0.00    -0.577 OA 
HETATM    4  C   UNL     1     -11.377  10.105  69.686  1.00  0.00    -0.235 C  
HETATM    5  C   UNL     1      -9.557  11.428  68.696  1.00  0.00    -0.179 C  
HETATM    6  O   UNL     1     -12.513  10.659  70.184  1.00  0.00    -0.322 OA 
HETATM    7  O   UNL     1     -10.801   9.191  70.260  1.00  0.00    -0.228 OA 
ENDROOT
BRANCH   3   8
HETATM    8  C   UNL     1     -11.758  12.791  67.281  1.00  0.00    -0.378 A  
HETATM    9  C   UNL     1     -11.501  12.855  65.915  1.00  0.00    -0.387 A  
HETATM   10  C   UNL     1     -11.232  14.088  65.311  1.00  0.00    -0.319 A  
HETATM   11  C   UNL     1     -11.243  15.264  66.068  1.00  0.00    -0.231 A  
HETATM   12  C   UNL     1     -11.857  13.976  68.016  1.00  0.00    -0.403 A  
HETATM   13  C   UNL     1     -11.609  15.212  67.414  1.00  0.00    -0.251 A  
BRANCH  11  14
HETATM   14  C   UNL     1     -10.874  16.539  65.405  1.00  0.00    -0.206 C  
HETATM   15  O   UNL     1     -11.338  16.782  64.294  1.00  0.00    -1.170 OA 
BRANCH  14  16
HETATM   16  C   UNL     1      -9.927  17.506  66.028  1.00  0.00    -0.231 A  
HETATM   17  C   UNL     1     -10.316  18.850  66.124  1.00  0.00    -0.517 A  
HETATM   18  C   UNL     1      -9.445  19.800  66.658  1.00  0.00    -0.491 A  
HETATM   19  C   UNL     1      -8.178  19.414  67.094  1.00  0.00    -0.271 A  
HETATM   20  C   UNL     1      -7.778  18.083  67.001  1.00  0.00    -0.235 A  
HETATM   21 CL   UNL     1      -7.093  20.587  67.730  1.00  0.00    -0.340 Cl 
HETATM   22  C   UNL     1      -8.646  17.130  66.457  1.00  0.00    -0.306 A  
ENDBRANCH  14  16
ENDBRANCH  11  14
ENDBRANCH   3   8
TORSDOF 3
ENDMDL
MODEL        4
REMARK 921   NORMALIZED FREE ENERGY PREDICTED BY IDOCK:   -6.74 KCAL/MOL
REMARK 922        TOTAL FREE ENERGY PREDICTED BY IDOCK:   -8.54 KCAL/MOL
REMARK 923 INTER-LIGAND FREE ENERGY PREDICTED BY IDOCK:   -8.13 KCAL/MOL
REMARK 924 INTRA-LIGAND FREE ENERGY PREDICTED BY IDOCK:   -0.41 KCAL/MOL
REMARK 927      BINDING AFFINITY PREDICTED BY RF-SCORE:    0.00 PKD
ROOT
HETATM    1  C   UNL     1      -9.550  18.104  68.384  1.00  0.00    -0.345 C  
HETATM    2  C   UNL     1      -9.580  16.737  67.700  1.00  0.00    -0.244 C  
HETATM    3  O   UNL     1     -10.940  16.245  67.640  1.00  0.00    -0.315 OA 
HETATM    4  C   UNL     1      -9.191  16.963  66.220  1.00  0.00    -0.267 C  
HETATM    5  C   UNL     1      -8.544  15.753  68.260  1.00  0.00    -0.170 C  
HETATM    6  O   UNL     1     -10.115  16.497  65.340  1.00  0.00    -0.570 OA 
HETATM    7  O   UNL     1      -8.152  17.489  65.844  1.00  0.00    -0.536 OA 
ENDROOT
BRANCH   3   8
HETATM    8  C   UNL     1     -11.457  15.422  68.594  1.00  0.00    -0.346 A  
HETATM    9  C   UNL     1     -11.830  15.790  69.883  1.00  0.00    -0.355 A  
HETATM   10  C   UNL     1     -12.286  14.822  70.784  1.00  0.00    -0.397 A  
HETATM   11  C   UNL     1     -12.392  13.483  70.389  1.00  0.00    -0.397 A  
HETATM   12  C   UNL     1     -11.649  14.101  68.177  1.00  0.00    -0.365 A  
HETATM   13  C   UNL     1     -12.123  13.134  69.065  1.00  0.00    -0.240 A  
BRANCH  11  14
HETATM   14  C   UNL     1     -12.804  12.477  71.398  1.00  0.00    -0.260 C  
HETATM   15  O   UNL     1     -13.413  12.855  72.395  1.00  0.00    -0.566 OA 
BRANCH  14  16
HETATM   16  C   UNL     1     -12.459  11.034  71.257  1.00  0.00    -0.475 A  
HETATM   17  C   UNL     1     -13.267  10.091  71.909  1.00  0.00    -0.557 A  
HETATM   18  C   UNL     1     -12.958   8.732  71.844  1.00  0.00    -0.421 A  
HETATM   19  C   UNL     1     -11.836   8.308  71.131  1.00  0.00    -0.275 A  
HETATM   20  C   UNL     1     -11.024   9.235  70.482  1.00  0.00    -0.318 A  
HETATM   21 CL   UNL     1     -11.439   6.636  71.070  1.00  0.00    -0.359 Cl 
HETATM   22  C   UNL     1     -11.326  10.598  70.554  1.00  0.00    -0.355 A  
ENDBRANCH  14  16
ENDBRANCH  11  14
ENDBRANCH   3   8
TORSDOF 3
ENDMDL
MODEL        5
REMARK 921   NORMALIZED FREE ENERGY PREDICTED BY IDOCK:   -6.73 KCAL/MOL
REMARK 922        TOTAL FREE ENERGY PREDICTED BY IDOCK:   -8.53 KCAL/MOL
REMARK 923 INTER-LIGAND FREE ENERGY PREDICTED BY IDOCK:   -8.03 KCAL/MOL
REMARK 924 INTRA-LIGAND FREE ENERGY PREDICTED BY IDOCK:   -0.50 KCAL/MOL
REMARK 927      BINDING AFFINITY PREDICTED BY RF-SCORE:    0.00 PKD
ROOT
HETATM    1  C   UNL     1     -10.872  13.319  64.557  1.00  0.00    -0.409 C  
HETATM    2  C   UNL     1     -11.469  14.390  65.472  1.00  0.00    -0.340 C  
HETATM    3  O   UNL     1     -10.777  14.394  66.743  1.00  0.00    -0.286 OA 
HETATM    4  C   UNL     1     -11.125  15.762  64.845  1.00  0.00    -0.399 C  
HETATM    5  C   UNL     1     -13.000  14.338  65.551  1.00  0.00    -0.236 C  
HETATM    6  O   UNL     1     -10.462  16.592  65.691  1.00  0.00    -0.438 OA 
HETATM    7  O   UNL     1     -11.424  16.104  63.709  1.00  0.00    -0.735 OA 
ENDROOT
BRANCH   3   8
HETATM    8  C   UNL     1     -11.225  13.685  67.815  1.00  0.00    -0.285 A  
HETATM    9  C   UNL     1     -11.724  14.216  69.001  1.00  0.00    -0.361 A  
HETATM   10  C   UNL     1     -12.089  13.365  70.050  1.00  0.00    -0.404 A  
HETATM   11  C   UNL     1     -11.976  11.978  69.907  1.00  0.00    -0.391 A  
HETATM   12  C   UNL     1     -11.199  12.297  67.644  1.00  0.00    -0.346 A  
HETATM   13  C   UNL     1     -11.580  11.443  68.680  1.00  0.00    -0.384 A  
BRANCH  11  14
HETATM   14  C   UNL     1     -12.297  11.116  71.071  1.00  0.00    -0.382 C  
HETATM   15  O   UNL     1     -12.953  11.592  71.995  1.00  0.00    -0.416 OA 
BRANCH  14  16
HETATM   16  C   UNL     1     -11.810   9.711  71.170  1.00  0.00    -0.448 A  
HETATM   17  C   UNL     1     -12.759   8.684  71.273  1.00  0.00    -0.244 A  
HETATM   18  C   UNL     1     -12.350   7.357  71.413  1.00  0.00    -0.394 A  
HETATM   19  C   UNL     1     -10.990   7.050  71.457  1.00  0.00    -0.234 A  
HETATM   20  C   UNL     1     -10.037   8.062  71.360  1.00  0.00    -0.228 A  
HETATM   21 CL   UNL     1     -10.484   5.419  71.655  1.00  0.00    -0.285 Cl 
HETATM   22  C   UNL     1     -10.445   9.394  71.228  1.00  0.00    -0.385 A  
ENDBRANCH  14  16
ENDBRANCH  11  14
ENDBRANCH   3   8
TORSDOF 3
ENDMDL
MODEL        6
REMARK 921   NORMALIZED FREE ENERGY PREDICTED BY IDOCK:   -6.72 KCAL/MOL
REMARK 922        TOTAL FREE ENERGY PREDICTED BY IDOCK:   -8.52 KCAL/MOL
REMARK 923 INTER-LIGAND FREE ENERGY PREDICTED BY IDOCK:   -7.70 KCAL/MOL
REMARK 924 INTRA-LIGAND FREE ENERGY PREDICTED BY IDOCK:   -0.82 KCAL/MOL
REMARK 927      BINDING AFFINITY PREDICTED BY RF-SCORE:    0.00 PKD
ROOT
HETATM    1  C   UNL     1      -8.079  18.221  66.886  1.00  0.00    -0.259 C  
HETATM    2  C   UNL     1      -9.537  18.216  67.346  1.00  0.00    -0.275 C  
HETATM    3  O   UNL     1      -9.667  17.444  68.563  1.00  0.00    -0.278 OA 
HETATM    4  C   UNL     1      -9.882  19.662  67.773  1.00  0.00    -0.383 C  
HETATM    5  C   UNL     1     -10.527  17.862  66.228  1.00  0.00    -0.320 C  
HETATM    6  O   UNL     1     -10.350  19.754  69.044  1.00  0.00    -0.368 OA 
HETATM    7  O   UNL     1      -9.774  20.646  67.053  1.00  0.00    -0.439 OA 
ENDROOT
BRANCH   3   8
HETATM    8  C   UNL     1     -10.001  16.124  68.554  1.00  0.00    -0.229 A  
HETATM    9  C   UNL     1      -9.174  15.070  68.177  1.00  0.00    -0.183 A  
HETATM   10  C   UNL     1      -9.672  13.763  68.153  1.00  0.00    -0.227 A  
HETATM   11  C   UNL     1     -10.995  13.504  68.527  1.00  0.00    -0.291 A  
HETATM   12  C   UNL     1     -11.293  15.850  69.013  1.00  0.00    -0.371 A  
HETATM   13  C   UNL     1     -11.790  14.545  69.010  1.00  0.00    -0.354 A  
BRANCH  11  14
HETATM   14  C   UNL     1     -11.506  12.116  68.411  1.00  0.00    -0.304 C  
HETATM   15  O   UNL     1     -12.028  11.767  67.354  1.00  0.00    -0.617 OA 
BRANCH  14  16
HETATM   16  C   UNL     1     -11.446  11.156  69.548  1.00  0.00    -0.374 A  
HETATM   17  C   UNL     1     -10.330  10.312  69.647  1.00  0.00    -0.281 A  
HETATM   18  C   UNL     1     -10.250   9.365  70.670  1.00  0.00    -0.353 A  
HETATM   19  C   UNL     1     -11.289   9.252  71.594  1.00  0.00    -0.397 A  
HETATM   20  C   UNL     1     -12.405  10.081  71.504  1.00  0.00    -0.513 A  
HETATM   21 CL   UNL     1     -11.204   8.069  72.839  1.00  0.00    -0.449 Cl 
HETATM   22  C   UNL     1     -12.491  11.025  70.475  1.00  0.00    -0.432 A  
ENDBRANCH  14  16
ENDBRANCH  11  14
ENDBRANCH   3   8
TORSDOF 3
ENDMDL
MODEL        7
REMARK 921   NORMALIZED FREE ENERGY PREDICTED BY IDOCK:   -6.65 KCAL/MOL
REMARK 922        TOTAL FREE ENERGY PREDICTED BY IDOCK:   -8.44 KCAL/MOL
REMARK 923 INTER-LIGAND FREE ENERGY PREDICTED BY IDOCK:   -7.83 KCAL/MOL
REMARK 924 INTRA-LIGAND FREE ENERGY PREDICTED BY IDOCK:   -0.61 KCAL/MOL
REMARK 927      BINDING AFFINITY PREDICTED BY RF-SCORE:    0.00 PKD
ROOT
HETATM    1  C   UNL     1     -11.607  13.180  63.789  1.00  0.00    -0.481 C  
HETATM    2  C   UNL     1     -11.718  14.056  65.038  1.00  0.00    -0.364 C  
HETATM    3  O   UNL     1     -10.728  13.652  66.013  1.00  0.00    -0.276 OA 
HETATM    4  C   UNL     1     -11.287  15.484  64.627  1.00  0.00    -0.357 C  
HETATM    5  C   UNL     1     -13.153  14.187  65.565  1.00  0.00    -0.166 C  
HETATM    6  O   UNL     1     -10.274  15.983  65.382  1.00  0.00    -0.437 OA 
HETATM    7  O   UNL     1     -11.802  16.136  63.728  1.00  0.00    -0.885 OA 
ENDROOT
BRANCH   3   8
HETATM    8  C   UNL     1     -11.008  12.762  67.005  1.00  0.00    -0.263 A  
HETATM    9  C   UNL     1     -10.938  11.376  66.909  1.00  0.00    -0.355 A  
HETATM   10  C   UNL     1     -11.320  10.579  67.993  1.00  0.00    -0.319 A  
HETATM   11  C   UNL     1     -11.750  11.168  69.187  1.00  0.00    -0.408 A  
HETATM   12  C   UNL     1     -11.352  13.347  68.228  1.00  0.00    -0.330 A  
HETATM   13  C   UNL     1     -11.715  12.557  69.320  1.00  0.00    -0.379 A  
BRANCH  11  14
HETATM   14  C   UNL     1     -12.222  10.287  70.284  1.00  0.00    -0.221 C  
HETATM   15  O   UNL     1     -13.406  10.330  70.607  1.00  0.00    -0.311 OA 
BRANCH  14  16
HETATM   16  C   UNL     1     -11.293   9.391  71.029  1.00  0.00    -0.407 A  
HETATM   17  C   UNL     1     -11.815   8.617  72.076  1.00  0.00    -0.443 A  
HETATM   18  C   UNL     1     -10.975   7.797  72.831  1.00  0.00    -0.467 A  
HETATM   19  C   UNL     1      -9.610   7.750  72.549  1.00  0.00    -0.192 A  
HETATM   20  C   UNL     1      -9.080   8.517  71.514  1.00  0.00    -0.281 A  
HETATM   21 CL   UNL     1      -8.571   6.759  73.495  1.00  0.00    -0.134 Cl 
HETATM   22  C   UNL     1      -9.917   9.347  70.761  1.00  0.00    -0.358 A  
ENDBRANCH  14  16
ENDBRANCH  11  14
ENDBRANCH   3   8
TORSDOF 3
ENDMDL
MODEL        8
REMARK 921   NORMALIZED FREE ENERGY PREDICTED BY IDOCK:   -6.64 KCAL/MOL
REMARK 922        TOTAL FREE ENERGY PREDICTED BY IDOCK:   -8.43 KCAL/MOL
REMARK 923 INTER-LIGAND FREE ENERGY PREDICTED BY IDOCK:   -7.79 KCAL/MOL
REMARK 924 INTRA-LIGAND FREE ENERGY PREDICTED BY IDOCK:   -0.64 KCAL/MOL
REMARK 927      BINDING AFFINITY PREDICTED BY RF-SCORE:    0.00 PKD
ROOT
HETATM    1  C   UNL     1     -10.898  16.605  68.155  1.00  0.00    -0.348 C  
HETATM    2  C   UNL     1     -10.632  15.352  67.320  1.00  0.00    -0.294 C  
HETATM    3  O   UNL     1     -11.776  14.467  67.380  1.00  0.00    -0.372 OA 
HETATM    4  C   UNL     1     -10.575  15.800  65.840  1.00  0.00    -0.339 C  
HETATM    5  C   UNL     1      -9.274  14.701  67.613  1.00  0.00    -0.193 C  
HETATM    6  O   UNL     1     -11.449  15.138  65.040  1.00  0.00    -0.368 OA 
HETATM    7  O   UNL     1      -9.814  16.651  65.398  1.00  0.00    -0.538 OA 
ENDROOT
BRANCH   3   8
HETATM    8  C   UNL     1     -11.862  13.454  68.286  1.00  0.00    -0.358 A  
HETATM    9  C   UNL     1     -11.723  12.097  68.016  1.00  0.00    -0.409 A  
HETATM   10  C   UNL     1     -11.903  11.157  69.037  1.00  0.00    -0.418 A  
HETATM   11  C   UNL     1     -12.201  11.576  70.338  1.00  0.00    -0.442 A  
HETATM   12  C   UNL     1     -12.071  13.873  69.604  1.00  0.00    -0.404 A  
HETATM   13  C   UNL     1     -12.231  12.941  70.631  1.00  0.00    -0.386 A  
BRANCH  11  14
HETATM   14  C   UNL     1     -12.463  10.546  71.373  1.00  0.00    -0.411 C  
HETATM   15  O   UNL     1     -13.237  10.813  72.289  1.00  0.00    -0.402 OA 
BRANCH  14  16
HETATM   16  C   UNL     1     -11.781   9.221  71.357  1.00  0.00    -0.431 A  
HETATM   17  C   UNL     1     -12.553   8.080  71.098  1.00  0.00    -0.176 A  
HETATM   18  C   UNL     1     -11.967   6.813  71.117  1.00  0.00    -0.421 A  
HETATM   19  C   UNL     1     -10.608   6.680  71.401  1.00  0.00    -0.224 A  
HETATM   20  C   UNL     1      -9.831   7.806  71.664  1.00  0.00    -0.201 A  
HETATM   21 CL   UNL     1      -9.889   5.119  71.449  1.00  0.00    -0.227 Cl 
HETATM   22  C   UNL     1     -10.418   9.076  71.654  1.00  0.00    -0.426 A  
ENDBRANCH  14  16
ENDBRANCH  11  14
ENDBRANCH   3   8
TORSDOF 3
ENDMDL
MODEL        9
REMARK 921   NORMALIZED FREE ENERGY PREDICTED BY IDOCK:   -6.62 KCAL/MOL
REMARK 922        TOTAL FREE ENERGY PREDICTED BY IDOCK:   -8.40 KCAL/MOL
REMARK 923 INTER-LIGAND FREE ENERGY PREDICTED BY IDOCK:   -7.58 KCAL/MOL
REMARK 924 INTRA-LIGAND FREE ENERGY PREDICTED BY IDOCK:   -0.82 KCAL/MOL
REMARK 927      BINDING AFFINITY PREDICTED BY RF-SCORE:    0.00 PKD
ROOT
HETATM    1  C   UNL     1      -7.962  18.280  67.133  1.00  0.00    -0.229 C  
HETATM    2  C   UNL     1      -9.448  18.289  67.493  1.00  0.00    -0.266 C  
HETATM    3  O   UNL     1      -9.674  17.487  68.676  1.00  0.00    -0.295 OA 
HETATM    4  C   UNL     1      -9.796  19.730  67.936  1.00  0.00    -0.404 C  
HETATM    5  C   UNL     1     -10.365  17.985  66.301  1.00  0.00    -0.384 C  
HETATM    6  O   UNL     1     -10.348  19.796  69.175  1.00  0.00    -0.335 OA 
HETATM    7  O   UNL     1      -9.623  20.731  67.254  1.00  0.00    -0.457 OA 
ENDROOT
BRANCH   3   8
HETATM    8  C   UNL     1     -10.028  16.174  68.606  1.00  0.00    -0.228 A  
HETATM    9  C   UNL     1      -9.175  15.105  68.349  1.00  0.00    -0.189 A  
HETATM   10  C   UNL     1      -9.690  13.809  68.239  1.00  0.00    -0.231 A  
HETATM   11  C   UNL     1     -11.059  13.575  68.410  1.00  0.00    -0.298 A  
HETATM   12  C   UNL     1     -11.380  15.925  68.865  1.00  0.00    -0.377 A  
HETATM   13  C   UNL     1     -11.896  14.631  68.777  1.00  0.00    -0.348 A  
BRANCH  11  14
HETATM   14  C   UNL     1     -11.575  12.199  68.207  1.00  0.00    -0.325 C  
HETATM   15  O   UNL     1     -12.120  11.925  67.140  1.00  0.00    -0.590 OA 
BRANCH  14  16
HETATM   16  C   UNL     1     -11.492  11.161  69.272  1.00  0.00    -0.363 A  
HETATM   17  C   UNL     1     -12.522  11.100  70.222  1.00  0.00    -0.354 A  
HETATM   18  C   UNL     1     -12.465  10.174  71.265  1.00  0.00    -0.510 A  
HETATM   19  C   UNL     1     -11.375   9.309  71.368  1.00  0.00    -0.364 A  
HETATM   20  C   UNL     1     -10.344   9.363  70.433  1.00  0.00    -0.318 A  
HETATM   21 CL   UNL     1     -11.291   8.185  72.666  1.00  0.00    -0.458 Cl 
HETATM   22  C   UNL     1     -10.394  10.296  69.392  1.00  0.00    -0.256 A  
ENDBRANCH  14  16
ENDBRANCH  11  14
ENDBRANCH   3   8
TORSDOF 3
ENDMDL
MODEL       10
REMARK 921   NORMALIZED FREE ENERGY PREDICTED BY IDOCK:   -6.52 KCAL/MOL
REMARK 922        TOTAL FREE ENERGY PREDICTED BY IDOCK:   -8.29 KCAL/MOL
REMARK 923 INTER-LIGAND FREE ENERGY PREDICTED BY IDOCK:   -7.80 KCAL/MOL
REMARK 924 INTRA-LIGAND FREE ENERGY PREDICTED BY IDOCK:   -0.49 KCAL/MOL
REMARK 927      BINDING AFFINITY PREDICTED BY RF-SCORE:    0.00 PKD
ROOT
HETATM    1  C   UNL     1     -12.108  14.489  66.553  1.00  0.00    -0.330 C  
HETATM    2  C   UNL     1     -11.687  13.209  65.830  1.00  0.00    -0.374 C  
HETATM    3  O   UNL     1     -12.143  12.051  66.568  1.00  0.00    -0.617 OA 
HETATM    4  C   UNL     1     -12.484  13.155  64.505  1.00  0.00    -0.342 C  
HETATM    5  C   UNL     1     -10.206  13.197  65.428  1.00  0.00    -0.301 C  
HETATM    6  O   UNL     1     -13.204  12.014  64.353  1.00  0.00    -0.669 OA 
HETATM    7  O   UNL     1     -12.474  14.029  63.648  1.00  0.00    -0.803 OA 
ENDROOT
BRANCH   3   8
HETATM    8  C   UNL     1     -11.356  11.414  67.478  1.00  0.00    -0.292 A  
HETATM    9  C   UNL     1     -10.202  10.687  67.200  1.00  0.00    -0.261 A  
HETATM   10  C   UNL     1      -9.526  10.026  68.232  1.00  0.00    -0.147 A  
HETATM   11  C   UNL     1      -9.989  10.111  69.549  1.00  0.00    -0.257 A  
HETATM   12  C   UNL     1     -11.764  11.570  68.807  1.00  0.00    -0.397 A  
HETATM   13  C   UNL     1     -11.081  10.930  69.843  1.00  0.00    -0.311 A  
BRANCH  11  14
HETATM   14  C   UNL     1      -9.289   9.331  70.599  1.00  0.00    -0.270 C  
HETATM   15  O   UNL     1      -8.143   9.649  70.905  1.00  0.00    -0.293 OA 
BRANCH  14  16
HETATM   16  C   UNL     1      -9.919   8.150  71.255  1.00  0.00    -0.225 A  
HETATM   17  C   UNL     1     -10.085   8.175  72.647  1.00  0.00    -0.379 A  
HETATM   18  C   UNL     1     -10.629   7.074  73.312  1.00  0.00    -0.378 A  
HETATM   19  C   UNL     1     -11.003   5.941  72.589  1.00  0.00    -0.264 A  
HETATM   20  C   UNL     1     -10.839   5.904  71.206  1.00  0.00    -0.333 A  
HETATM   21 CL   UNL     1     -11.650   4.574  73.408  1.00  0.00    -0.339 Cl 
HETATM   22  C   UNL     1     -10.286   7.002  70.539  1.00  0.00    -0.218 A  
ENDBRANCH  14  16
ENDBRANCH  11  14
ENDBRANCH   3   8
TORSDOF 3
ENDMDL
MODEL       11
REMARK 921   NORMALIZED FREE ENERGY PREDICTED BY IDOCK:   -6.48 KCAL/MOL
REMARK 922        TOTAL FREE ENERGY PREDICTED BY IDOCK:   -8.24 KCAL/MOL
REMARK 923 INTER-LIGAND FREE ENERGY PREDICTED BY IDOCK:   -7.56 KCAL/MOL
REMARK 924 INTRA-LIGAND FREE ENERGY PREDICTED BY IDOCK:   -0.69 KCAL/MOL
REMARK 927      BINDING AFFINITY PREDICTED BY RF-SCORE:    0.00 PKD
ROOT
HETATM    1  C   UNL     1      -8.255  17.959  68.672  1.00  0.00    -0.281 C  
HETATM    2  C   UNL     1      -8.712  18.358  67.269  1.00  0.00    -0.259 C  
HETATM    3  O   UNL     1     -10.097  17.982  67.075  1.00  0.00    -0.315 OA 
HETATM    4  C   UNL     1      -8.726  19.904  67.220  1.00  0.00    -0.333 C  
HETATM    5  C   UNL     1      -7.745  17.913  66.164  1.00  0.00    -0.272 C  
HETATM    6  O   UNL     1      -9.927  20.423  66.856  1.00  0.00    -0.450 OA 
HETATM    7  O   UNL     1      -7.762  20.618  67.461  1.00  0.00    -0.324 OA 
ENDROOT
BRANCH   3   8
HETATM    8  C   UNL     1     -10.455  16.797  66.507  1.00  0.00    -0.258 A  
HETATM    9  C   UNL     1     -10.691  16.574  65.154  1.00  0.00    -0.261 A  
HETATM   10  C   UNL     1     -11.119  15.315  64.717  1.00  0.00    -0.407 A  
HETATM   11  C   UNL     1     -11.289  14.269  65.631  1.00  0.00    -0.317 A  
HETATM   12  C   UNL     1     -10.538  15.727  67.403  1.00  0.00    -0.313 A  
HETATM   13  C   UNL     1     -10.945  14.464  66.970  1.00  0.00    -0.304 A  
BRANCH  11  14
HETATM   14  C   UNL     1     -11.820  12.975  65.138  1.00  0.00    -0.369 C  
HETATM   15  O   UNL     1     -13.038  12.823  65.073  1.00  0.00    -0.811 OA 
BRANCH  14  16
HETATM   16  C   UNL     1     -10.923  11.846  64.765  1.00  0.00    -0.366 A  
HETATM   17  C   UNL     1     -10.486  10.982  65.780  1.00  0.00    -0.290 A  
HETATM   18  C   UNL     1      -9.608   9.937  65.487  1.00  0.00    -0.341 A  
HETATM   19  C   UNL     1      -9.158   9.753  64.179  1.00  0.00    -0.244 A  
HETATM   20  C   UNL     1      -9.582  10.607  63.163  1.00  0.00    -0.382 A  
HETATM   21 CL   UNL     1      -8.057   8.482  63.820  1.00  0.00    -0.161 Cl 
HETATM   22  C   UNL     1     -10.454  11.661  63.456  1.00  0.00    -0.498 A  
ENDBRANCH  14  16
ENDBRANCH  11  14
ENDBRANCH   3   8
TORSDOF 3
ENDMDL
MODEL       12
REMARK 921   NORMALIZED FREE ENERGY PREDICTED BY IDOCK:   -6.45 KCAL/MOL
REMARK 922        TOTAL FREE ENERGY PREDICTED BY IDOCK:   -8.20 KCAL/MOL
REMARK 923 INTER-LIGAND FREE ENERGY PREDICTED BY IDOCK:   -7.42 KCAL/MOL
REMARK 924 INTRA-LIGAND FREE ENERGY PREDICTED BY IDOCK:   -0.78 KCAL/MOL
REMARK 927      BINDING AFFINITY PREDICTED BY RF-SCORE:    0.00 PKD
ROOT
HETATM    1  C   UNL     1     -10.852  16.744  68.245  1.00  0.00    -0.366 C  
HETATM    2  C   UNL     1     -10.551  15.442  67.502  1.00  0.00    -0.283 C  
HETATM    3  O   UNL     1     -11.719  14.587  67.509  1.00  0.00    -0.360 OA 
HETATM    4  C   UNL     1     -10.354  15.806  66.012  1.00  0.00    -0.340 C  
HETATM    5  C   UNL     1      -9.241  14.776  67.947  1.00  0.00    -0.191 C  
HETATM    6  O   UNL     1     -11.174  15.121  65.174  1.00  0.00    -0.366 OA 
HETATM    7  O   UNL     1      -9.535  16.614  65.594  1.00  0.00    -0.511 OA 
ENDROOT
BRANCH   3   8
HETATM    8  C   UNL     1     -11.911  13.628  68.456  1.00  0.00    -0.371 A  
HETATM    9  C   UNL     1     -12.265  13.843  69.784  1.00  0.00    -0.388 A  
HETATM   10  C   UNL     1     -12.363  12.761  70.667  1.00  0.00    -0.381 A  
HETATM   11  C   UNL     1     -12.131  11.458  70.216  1.00  0.00    -0.459 A  
HETATM   12  C   UNL     1     -11.768  12.317  67.989  1.00  0.00    -0.417 A  
HETATM   13  C   UNL     1     -11.885  11.232  68.860  1.00  0.00    -0.413 A  
BRANCH  11  14
HETATM   14  C   UNL     1     -12.167  10.349  71.201  1.00  0.00    -0.394 C  
HETATM   15  O   UNL     1     -12.915  10.445  72.170  1.00  0.00    -0.429 OA 
BRANCH  14  16
HETATM   16  C   UNL     1     -11.292   9.149  71.070  1.00  0.00    -0.377 A  
HETATM   17  C   UNL     1      -9.911   9.347  70.930  1.00  0.00    -0.338 A  
HETATM   18  C   UNL     1      -9.057   8.256  70.758  1.00  0.00    -0.168 A  
HETATM   19  C   UNL     1      -9.579   6.964  70.720  1.00  0.00    -0.165 A  
HETATM   20  C   UNL     1     -10.950   6.755  70.854  1.00  0.00    -0.303 A  
HETATM   21 CL   UNL     1      -8.531   5.621  70.484  1.00  0.00    -0.120 Cl 
HETATM   22  C   UNL     1     -11.809   7.847  71.016  1.00  0.00    -0.285 A  
ENDBRANCH  14  16
ENDBRANCH  11  14
ENDBRANCH   3   8
TORSDOF 3
ENDMDL
MODEL       13
REMARK 921   NORMALIZED FREE ENERGY PREDICTED BY IDOCK:   -6.36 KCAL/MOL
REMARK 922        TOTAL FREE ENERGY PREDICTED BY IDOCK:   -8.10 KCAL/MOL
REMARK 923 INTER-LIGAND FREE ENERGY PREDICTED BY IDOCK:   -7.56 KCAL/MOL
REMARK 924 INTRA-LIGAND FREE ENERGY PREDICTED BY IDOCK:   -0.54 KCAL/MOL
REMARK 927      BINDING AFFINITY PREDICTED BY RF-SCORE:    0.00 PKD
ROOT
HETATM    1  C   UNL     1      -6.923  18.846  65.809  1.00  0.00    -0.296 C  
HETATM    2  C   UNL     1      -7.873  19.184  66.959  1.00  0.00    -0.250 C  
HETATM    3  O   UNL     1      -7.994  18.048  67.848  1.00  0.00    -0.231 OA 
HETATM    4  C   UNL     1      -7.177  20.267  67.817  1.00  0.00    -0.301 C  
HETATM    5  C   UNL     1      -9.196  19.805  66.493  1.00  0.00    -0.466 C  
HETATM    6  O   UNL     1      -7.050  19.922  69.124  1.00  0.00    -0.327 OA 
HETATM    7  O   UNL     1      -6.785  21.346  67.394  1.00  0.00    -0.563 OA 
ENDROOT
BRANCH   3   8
HETATM    8  C   UNL     1      -8.992  17.130  67.719  1.00  0.00    -0.226 A  
HETATM    9  C   UNL     1     -10.248  17.192  68.314  1.00  0.00    -0.334 A  
HETATM   10  C   UNL     1     -11.155  16.140  68.147  1.00  0.00    -0.332 A  
HETATM   11  C   UNL     1     -10.815  15.031  67.365  1.00  0.00    -0.305 A  
HETATM   12  C   UNL     1      -8.690  16.064  66.866  1.00  0.00    -0.259 A  
HETATM   13  C   UNL     1      -9.599  15.020  66.679  1.00  0.00    -0.281 A  
BRANCH  11  14
HETATM   14  C   UNL     1     -11.773  13.902  67.279  1.00  0.00    -0.386 C  
HETATM   15  O   UNL     1     -12.548  13.856  66.327  1.00  0.00    -0.435 OA 
BRANCH  14  16
HETATM   16  C   UNL     1     -11.852  12.854  68.335  1.00  0.00    -0.357 A  
HETATM   17  C   UNL     1     -12.154  13.252  69.646  1.00  0.00    -0.331 A  
HETATM   18  C   UNL     1     -12.194  12.312  70.677  1.00  0.00    -0.378 A  
HETATM   19  C   UNL     1     -11.926  10.970  70.405  1.00  0.00    -0.368 A  
HETATM   20  C   UNL     1     -11.621  10.563  69.108  1.00  0.00    -0.295 A  
HETATM   21 CL   UNL     1     -11.951   9.815  71.678  1.00  0.00    -0.471 Cl 
HETATM   22  C   UNL     1     -11.572  11.504  68.075  1.00  0.00    -0.370 A  
ENDBRANCH  14  16
ENDBRANCH  11  14
ENDBRANCH   3   8
TORSDOF 3
ENDMDL
MODEL       14
REMARK 921   NORMALIZED FREE ENERGY PREDICTED BY IDOCK:   -6.34 KCAL/MOL
REMARK 922        TOTAL FREE ENERGY PREDICTED BY IDOCK:   -8.08 KCAL/MOL
REMARK 923 INTER-LIGAND FREE ENERGY PREDICTED BY IDOCK:   -7.42 KCAL/MOL
REMARK 924 INTRA-LIGAND FREE ENERGY PREDICTED BY IDOCK:   -0.66 KCAL/MOL
REMARK 927      BINDING AFFINITY PREDICTED BY RF-SCORE:    0.00 PKD
ROOT
HETATM    1  C   UNL     1     -10.932   4.664  73.308  1.00  0.00    -0.381 C  
HETATM    2  C   UNL     1      -9.876   5.316  72.414  1.00  0.00    -0.162 C  
HETATM    3  O   UNL     1      -9.643   6.680  72.839  1.00  0.00    -0.148 OA 
HETATM    4  C   UNL     1      -8.537   4.594  72.697  1.00  0.00    -0.115 C  
HETATM    5  C   UNL     1     -10.146   5.126  70.916  1.00  0.00    -0.302 C  
HETATM    6  O   UNL     1      -7.538   5.434  73.072  1.00  0.00    -0.094 OA 
HETATM    7  O   UNL     1      -8.357   3.389  72.584  1.00  0.00    -0.078 OA 
ENDROOT
BRANCH   3   8
HETATM    8  C   UNL     1     -10.301   7.735  72.285  1.00  0.00    -0.237 A  
HETATM    9  C   UNL     1     -11.640   8.060  72.474  1.00  0.00    -0.464 A  
HETATM   10  C   UNL     1     -12.203   9.140  71.785  1.00  0.00    -0.442 A  
HETATM   11  C   UNL     1     -11.420   9.913  70.922  1.00  0.00    -0.456 A  
HETATM   12  C   UNL     1      -9.501   8.564  71.492  1.00  0.00    -0.290 A  
HETATM   13  C   UNL     1     -10.052   9.655  70.818  1.00  0.00    -0.293 A  
BRANCH  11  14
HETATM   14  C   UNL     1     -12.074  10.999  70.151  1.00  0.00    -0.356 C  
HETATM   15  O   UNL     1     -12.223  10.855  68.940  1.00  0.00    -0.494 OA 
BRANCH  14  16
HETATM   16  C   UNL     1     -12.510  12.270  70.795  1.00  0.00    -0.356 A  
HETATM   17  C   UNL     1     -12.062  13.480  70.246  1.00  0.00    -0.425 A  
HETATM   18  C   UNL     1     -12.408  14.695  70.841  1.00  0.00    -0.406 A  
HETATM   19  C   UNL     1     -13.197  14.706  71.991  1.00  0.00    -0.351 A  
HETATM   20  C   UNL     1     -13.645  13.510  72.547  1.00  0.00    -0.674 A  
HETATM   21 CL   UNL     1     -13.603  16.199  72.740  1.00  0.00    -0.407 Cl 
HETATM   22  C   UNL     1     -13.293  12.291  71.958  1.00  0.00    -0.491 A  
ENDBRANCH  14  16
ENDBRANCH  11  14
ENDBRANCH   3   8
TORSDOF 3
ENDMDL
MODEL       15
REMARK 921   NORMALIZED FREE ENERGY PREDICTED BY IDOCK:   -6.30 KCAL/MOL
REMARK 922        TOTAL FREE ENERGY PREDICTED BY IDOCK:   -8.03 KCAL/MOL
REMARK 923 INTER-LIGAND FREE ENERGY PREDICTED BY IDOCK:   -7.19 KCAL/MOL
REMARK 924 INTRA-LIGAND FREE ENERGY PREDICTED BY IDOCK:   -0.84 KCAL/MOL
REMARK 927      BINDING AFFINITY PREDICTED BY RF-SCORE:    0.00 PKD
ROOT
HETATM    1  C   UNL     1      -9.939  19.209  66.169  1.00  0.00    -0.441 C  
HETATM    2  C   UNL     1      -9.337  18.948  67.550  1.00  0.00    -0.294 C  
HETATM    3  O   UNL     1      -9.068  17.535  67.712  1.00  0.00    -0.243 OA 
HETATM    4  C   UNL     1      -7.937  19.606  67.564  1.00  0.00    -0.281 C  
HETATM    5  C   UNL     1     -10.121  19.609  68.692  1.00  0.00    -0.547 C  
HETATM    6  O   UNL     1      -6.937  18.744  67.883  1.00  0.00    -0.217 OA 
HETATM    7  O   UNL     1      -7.719  20.788  67.336  1.00  0.00    -0.345 OA 
ENDROOT
BRANCH   3   8
HETATM    8  C   UNL     1      -9.962  16.689  68.296  1.00  0.00    -0.261 A  
HETATM    9  C   UNL     1     -11.135  16.210  67.722  1.00  0.00    -0.254 A  
HETATM   10  C   UNL     1     -11.996  15.396  68.466  1.00  0.00    -0.205 A  
HETATM   11  C   UNL     1     -11.673  15.039  69.780  1.00  0.00    -0.341 A  
HETATM   12  C   UNL     1      -9.599  16.258  69.576  1.00  0.00    -0.102 A  
HETATM   13  C   UNL     1     -10.445  15.430  70.316  1.00  0.00    -0.264 A  
BRANCH  11  14
HETATM   14  C   UNL     1     -12.651  14.241  70.560  1.00  0.00    -0.353 C  
HETATM   15  O   UNL     1     -13.541  14.830  71.169  1.00  0.00    -0.385 OA 
BRANCH  14  16
HETATM   16  C   UNL     1     -12.556  12.758  70.661  1.00  0.00    -0.248 A  
HETATM   17  C   UNL     1     -13.228  12.119  71.712  1.00  0.00    -0.423 A  
HETATM   18  C   UNL     1     -13.131  10.736  71.874  1.00  0.00    -0.557 A  
HETATM   19  C   UNL     1     -12.356   9.985  70.990  1.00  0.00    -0.360 A  
HETATM   20  C   UNL     1     -11.681  10.609  69.943  1.00  0.00    -0.395 A  
HETATM   21 CL   UNL     1     -12.215   8.285  71.202  1.00  0.00    -0.282 Cl 
HETATM   22  C   UNL     1     -11.769  11.996  69.784  1.00  0.00    -0.390 A  
ENDBRANCH  14  16
ENDBRANCH  11  14
ENDBRANCH   3   8
TORSDOF 3
ENDMDL
MODEL       16
REMARK 921   NORMALIZED FREE ENERGY PREDICTED BY IDOCK:   -6.30 KCAL/MOL
REMARK 922        TOTAL FREE ENERGY PREDICTED BY IDOCK:   -8.02 KCAL/MOL
REMARK 923 INTER-LIGAND FREE ENERGY PREDICTED BY IDOCK:   -7.47 KCAL/MOL
REMARK 924 INTRA-LIGAND FREE ENERGY PREDICTED BY IDOCK:   -0.55 KCAL/MOL
REMARK 927      BINDING AFFINITY PREDICTED BY RF-SCORE:    0.00 PKD
ROOT
HETATM    1  C   UNL     1     -12.175  15.021  72.751  1.00  0.00    -0.445 C  
HETATM    2  C   UNL     1     -12.811  14.371  71.522  1.00  0.00    -0.341 C  
HETATM    3  O   UNL     1     -11.786  14.030  70.558  1.00  0.00    -0.306 OA 
HETATM    4  C   UNL     1     -13.377  13.005  71.976  1.00  0.00    -0.492 C  
HETATM    5  C   UNL     1     -14.007  15.156  70.967  1.00  0.00    -0.383 C  
HETATM    6  O   UNL     1     -12.903  11.956  71.255  1.00  0.00    -0.380 OA 
HETATM    7  O   UNL     1     -14.188  12.851  72.879  1.00  0.00    -0.252 OA 
ENDROOT
BRANCH   3   8
HETATM    8  C   UNL     1     -11.442  14.865  69.539  1.00  0.00    -0.297 A  
HETATM    9  C   UNL     1     -11.600  14.612  68.180  1.00  0.00    -0.362 A  
HETATM   10  C   UNL     1     -11.137  15.537  67.238  1.00  0.00    -0.271 A  
HETATM   11  C   UNL     1     -10.537  16.730  67.653  1.00  0.00    -0.325 A  
HETATM   12  C   UNL     1     -10.923  16.097  69.951  1.00  0.00    -0.362 A  
HETATM   13  C   UNL     1     -10.479  17.032  69.015  1.00  0.00    -0.337 A  
BRANCH  11  14
HETATM   14  C   UNL     1      -9.989  17.645  66.623  1.00  0.00    -0.328 C  
HETATM   15  O   UNL     1     -10.505  17.654  65.507  1.00  0.00    -0.636 OA 
BRANCH  14  16
HETATM   16  C   UNL     1      -8.809  18.516  66.889  1.00  0.00    -0.283 A  
HETATM   17  C   UNL     1      -9.022  19.894  67.042  1.00  0.00    -0.427 A  
HETATM   18  C   UNL     1      -7.942  20.755  67.248  1.00  0.00    -0.270 A  
HETATM   19  C   UNL     1      -6.645  20.244  67.295  1.00  0.00    -0.218 A  
HETATM   20  C   UNL     1      -6.421  18.878  67.139  1.00  0.00    -0.195 A  
HETATM   21 CL   UNL     1      -5.312  21.306  67.523  1.00  0.00    -0.328 Cl 
HETATM   22  C   UNL     1      -7.500  18.014  66.924  1.00  0.00    -0.235 A  
ENDBRANCH  14  16
ENDBRANCH  11  14
ENDBRANCH   3   8
TORSDOF 3
ENDMDL
MODEL       17
REMARK 921   NORMALIZED FREE ENERGY PREDICTED BY IDOCK:   -6.26 KCAL/MOL
REMARK 922        TOTAL FREE ENERGY PREDICTED BY IDOCK:   -7.98 KCAL/MOL
REMARK 923 INTER-LIGAND FREE ENERGY PREDICTED BY IDOCK:   -7.40 KCAL/MOL
REMARK 924 INTRA-LIGAND FREE ENERGY PREDICTED BY IDOCK:   -0.58 KCAL/MOL
REMARK 927      BINDING AFFINITY PREDICTED BY RF-SCORE:    0.00 PKD
ROOT
HETATM    1  C   UNL     1     -10.276  19.608  66.039  1.00  0.00    -0.587 C  
HETATM    2  C   UNL     1      -9.269  18.673  66.710  1.00  0.00    -0.308 C  
HETATM    3  O   UNL     1      -8.951  17.573  65.825  1.00  0.00    -0.512 OA 
HETATM    4  C   UNL     1      -7.941  19.456  66.837  1.00  0.00    -0.266 C  
HETATM    5  C   UNL     1      -9.663  18.280  68.140  1.00  0.00    -0.341 C  
HETATM    6  O   UNL     1      -6.884  18.826  66.262  1.00  0.00    -0.202 OA 
HETATM    7  O   UNL     1      -7.817  20.529  67.411  1.00  0.00    -0.322 OA 
ENDROOT
BRANCH   3   8
HETATM    8  C   UNL     1      -9.609  16.382  65.882  1.00  0.00    -0.274 A  
HETATM    9  C   UNL     1      -9.282  15.301  66.694  1.00  0.00    -0.302 A  
HETATM   10  C   UNL     1     -10.010  14.109  66.600  1.00  0.00    -0.280 A  
HETATM   11  C   UNL     1     -11.083  14.005  65.709  1.00  0.00    -0.305 A  
HETATM   12  C   UNL     1     -10.737  16.304  65.058  1.00  0.00    -0.319 A  
HETATM   13  C   UNL     1     -11.480  15.124  64.975  1.00  0.00    -0.339 A  
BRANCH  11  14
HETATM   14  C   UNL     1     -11.777  12.699  65.583  1.00  0.00    -0.412 C  
HETATM   15  O   UNL     1     -12.893  12.671  65.070  1.00  0.00    -0.765 OA 
BRANCH  14  16
HETATM   16  C   UNL     1     -11.179  11.436  66.100  1.00  0.00    -0.203 A  
HETATM   17  C   UNL     1     -11.408  11.093  67.441  1.00  0.00    -0.329 A  
HETATM   18  C   UNL     1     -10.832   9.943  67.982  1.00  0.00    -0.294 A  
HETATM   19  C   UNL     1     -10.018   9.134  67.189  1.00  0.00    -0.218 A  
HETATM   20  C   UNL     1      -9.780   9.466  65.858  1.00  0.00    -0.355 A  
HETATM   21 CL   UNL     1      -9.287   7.730  67.862  1.00  0.00    -0.144 Cl 
HETATM   22  C   UNL     1     -10.349  10.623  65.315  1.00  0.00    -0.321 A  
ENDBRANCH  14  16
ENDBRANCH  11  14
ENDBRANCH   3   8
TORSDOF 3
ENDMDL
MODEL       18
REMARK 921   NORMALIZED FREE ENERGY PREDICTED BY IDOCK:   -6.20 KCAL/MOL
REMARK 922        TOTAL FREE ENERGY PREDICTED BY IDOCK:   -7.91 KCAL/MOL
REMARK 923 INTER-LIGAND FREE ENERGY PREDICTED BY IDOCK:   -7.45 KCAL/MOL
REMARK 924 INTRA-LIGAND FREE ENERGY PREDICTED BY IDOCK:   -0.46 KCAL/MOL
REMARK 927      BINDING AFFINITY PREDICTED BY RF-SCORE:    0.00 PKD
ROOT
HETATM    1  C   UNL     1      -7.774  18.688  68.767  1.00  0.00    -0.329 C  
HETATM    2  C   UNL     1      -8.436  19.014  67.428  1.00  0.00    -0.277 C  
HETATM    3  O   UNL     1      -9.833  18.638  67.463  1.00  0.00    -0.303 OA 
HETATM    4  C   UNL     1      -8.460  20.556  67.299  1.00  0.00    -0.285 C  
HETATM    5  C   UNL     1      -7.643  18.505  66.217  1.00  0.00    -0.286 C  
HETATM    6  O   UNL     1      -9.702  21.062  67.091  1.00  0.00    -0.374 OA 
HETATM    7  O   UNL     1      -7.472  21.275  67.355  1.00  0.00    -0.450 OA 
ENDROOT
BRANCH   3   8
HETATM    8  C   UNL     1     -10.270  17.427  67.019  1.00  0.00    -0.323 A  
HETATM    9  C   UNL     1     -10.342  17.016  65.691  1.00  0.00    -0.226 A  
HETATM   10  C   UNL     1     -10.876  15.763  65.374  1.00  0.00    -0.376 A  
HETATM   11  C   UNL     1     -11.318  14.906  66.388  1.00  0.00    -0.308 A  
HETATM   12  C   UNL     1     -10.629  16.533  68.032  1.00  0.00    -0.328 A  
HETATM   13  C   UNL     1     -11.144  15.273  67.723  1.00  0.00    -0.318 A  
BRANCH  11  14
HETATM   14  C   UNL     1     -11.951  13.620  66.004  1.00  0.00    -0.413 C  
HETATM   15  O   UNL     1     -12.926  13.641  65.257  1.00  0.00    -0.719 OA 
BRANCH  14  16
HETATM   16  C   UNL     1     -11.466  12.314  66.534  1.00  0.00    -0.438 A  
HETATM   17  C   UNL     1     -10.639  11.531  65.715  1.00  0.00    -0.315 A  
HETATM   18  C   UNL     1     -10.196  10.281  66.150  1.00  0.00    -0.285 A  
HETATM   19  C   UNL     1     -10.584   9.804  67.402  1.00  0.00    -0.267 A  
HETATM   20  C   UNL     1     -11.408  10.570  68.223  1.00  0.00    -0.332 A  
HETATM   21 CL   UNL     1     -10.060   8.253  67.930  1.00  0.00    -0.235 Cl 
HETATM   22  C   UNL     1     -11.860  11.820  67.786  1.00  0.00    -0.266 A  
ENDBRANCH  14  16
ENDBRANCH  11  14
ENDBRANCH   3   8
TORSDOF 3
ENDMDL
MODEL       19
REMARK 921   NORMALIZED FREE ENERGY PREDICTED BY IDOCK:   -6.18 KCAL/MOL
REMARK 922        TOTAL FREE ENERGY PREDICTED BY IDOCK:   -7.88 KCAL/MOL
REMARK 923 INTER-LIGAND FREE ENERGY PREDICTED BY IDOCK:   -7.35 KCAL/MOL
REMARK 924 INTRA-LIGAND FREE ENERGY PREDICTED BY IDOCK:   -0.53 KCAL/MOL
REMARK 927      BINDING AFFINITY PREDICTED BY RF-SCORE:    0.00 PKD
ROOT
HETATM    1  C   UNL     1     -12.859   8.618  72.536  1.00  0.00    -0.352 C  
HETATM    2  C   UNL     1     -11.551   8.321  71.803  1.00  0.00    -0.299 C  
HETATM    3  O   UNL     1     -10.874   9.559  71.481  1.00  0.00    -0.355 OA 
HETATM    4  C   UNL     1     -10.612   7.626  72.818  1.00  0.00    -0.325 C  
HETATM    5  C   UNL     1     -11.715   7.333  70.641  1.00  0.00    -0.310 C  
HETATM    6  O   UNL     1      -9.417   8.254  72.968  1.00  0.00    -0.264 OA 
HETATM    7  O   UNL     1     -10.881   6.600  73.428  1.00  0.00    -0.279 OA 
ENDROOT
BRANCH   3   8
HETATM    8  C   UNL     1     -11.032  10.180  70.279  1.00  0.00    -0.317 A  
HETATM    9  C   UNL     1     -10.520   9.751  69.059  1.00  0.00    -0.229 A  
HETATM   10  C   UNL     1     -10.705  10.528  67.910  1.00  0.00    -0.305 A  
HETATM   11  C   UNL     1     -11.425  11.726  67.975  1.00  0.00    -0.388 A  
HETATM   12  C   UNL     1     -11.826  11.330  70.323  1.00  0.00    -0.446 A  
HETATM   13  C   UNL     1     -12.032  12.099  69.176  1.00  0.00    -0.311 A  
BRANCH  11  14
HETATM   14  C   UNL     1     -11.530  12.559  66.752  1.00  0.00    -0.362 C  
HETATM   15  O   UNL     1     -12.331  12.229  65.881  1.00  0.00    -0.618 OA 
BRANCH  14  16
HETATM   16  C   UNL     1     -10.662  13.750  66.532  1.00  0.00    -0.284 A  
HETATM   17  C   UNL     1      -9.402  13.777  67.149  1.00  0.00    -0.240 A  
HETATM   18  C   UNL     1      -8.573  14.891  67.010  1.00  0.00    -0.265 A  
HETATM   19  C   UNL     1      -9.000  15.986  66.259  1.00  0.00    -0.345 A  
HETATM   20  C   UNL     1     -10.251  15.973  65.645  1.00  0.00    -0.412 A  
HETATM   21 CL   UNL     1      -7.990  17.369  66.107  1.00  0.00    -0.304 Cl 
HETATM   22  C   UNL     1     -11.088  14.861  65.791  1.00  0.00    -0.342 A  
ENDBRANCH  14  16
ENDBRANCH  11  14
ENDBRANCH   3   8
TORSDOF 3
ENDMDL
MODEL       20
REMARK 921   NORMALIZED FREE ENERGY PREDICTED BY IDOCK:   -6.17 KCAL/MOL
REMARK 922        TOTAL FREE ENERGY PREDICTED BY IDOCK:   -7.88 KCAL/MOL
REMARK 923 INTER-LIGAND FREE ENERGY PREDICTED BY IDOCK:   -7.60 KCAL/MOL
REMARK 924 INTRA-LIGAND FREE ENERGY PREDICTED BY IDOCK:   -0.28 KCAL/MOL
REMARK 927      BINDING AFFINITY PREDICTED BY RF-SCORE:    0.00 PKD
ROOT
HETATM    1  C   UNL     1     -13.544   6.658  71.970  1.00  0.00     0.024 C  
HETATM    2  C   UNL     1     -12.040   6.916  71.882  1.00  0.00    -0.333 C  
HETATM    3  O   UNL     1     -11.741   8.255  72.342  1.00  0.00    -0.362 OA 
HETATM    4  C   UNL     1     -11.361   5.995  72.923  1.00  0.00    -0.196 C  
HETATM    5  C   UNL     1     -11.434   6.532  70.525  1.00  0.00    -0.448 C  
HETATM    6  O   UNL     1     -10.582   6.664  73.811  1.00  0.00    -0.315 OA 
HETATM    7  O   UNL     1     -11.478   4.777  72.958  1.00  0.00    -0.270 OA 
ENDROOT
BRANCH   3   8
HETATM    8  C   UNL     1     -11.648   9.312  71.488  1.00  0.00    -0.382 A  
HETATM    9  C   UNL     1     -10.606   9.561  70.599  1.00  0.00    -0.374 A  
HETATM   10  C   UNL     1     -10.609  10.726  69.826  1.00  0.00    -0.191 A  
HETATM   11  C   UNL     1     -11.668  11.636  69.922  1.00  0.00    -0.414 A  
HETATM   12  C   UNL     1     -12.746  10.177  71.516  1.00  0.00    -0.541 A  
HETATM   13  C   UNL     1     -12.764  11.332  70.731  1.00  0.00    -0.360 A  
BRANCH  11  14
HETATM   14  C   UNL     1     -11.593  12.897  69.144  1.00  0.00    -0.322 C  
HETATM   15  O   UNL     1     -11.499  13.961  69.752  1.00  0.00    -0.257 OA 
BRANCH  14  16
HETATM   16  C   UNL     1     -11.674  12.911  67.656  1.00  0.00    -0.422 A  
HETATM   17  C   UNL     1     -12.320  13.991  67.036  1.00  0.00    -0.278 A  
HETATM   18  C   UNL     1     -12.460  14.026  65.648  1.00  0.00    -0.531 A  
HETATM   19  C   UNL     1     -11.963  12.978  64.873  1.00  0.00    -0.396 A  
HETATM   20  C   UNL     1     -11.323  11.898  65.477  1.00  0.00    -0.334 A  
HETATM   21 CL   UNL     1     -12.157  13.007  63.164  1.00  0.00    -0.518 Cl 
HETATM   22  C   UNL     1     -11.189  11.857  66.869  1.00  0.00    -0.382 A  
ENDBRANCH  14  16
ENDBRANCH  11  14
ENDBRANCH   3   8
TORSDOF 3
ENDMDL
MODEL       21
REMARK 921   NORMALIZED FREE ENERGY PREDICTED BY IDOCK:   -6.14 KCAL/MOL
REMARK 922        TOTAL FREE ENERGY PREDICTED BY IDOCK:   -7.84 KCAL/MOL
REMARK 923 INTER-LIGAND FREE ENERGY PREDICTED BY IDOCK:   -7.00 KCAL/MOL
REMARK 924 INTRA-LIGAND FREE ENERGY PREDICTED BY IDOCK:   -0.84 KCAL/MOL
REMARK 927      BINDING AFFINITY PREDICTED BY RF-SCORE:    0.00 PKD
ROOT
HETATM    1  C   UNL     1     -12.209  12.974  63.555  1.00  0.00    -0.580 C  
HETATM    2  C   UNL     1     -11.853  13.788  64.799  1.00  0.00    -0.391 C  
HETATM    3  O   UNL     1     -10.518  13.451  65.244  1.00  0.00    -0.300 OA 
HETATM    4  C   UNL     1     -11.745  15.267  64.357  1.00  0.00    -0.285 C  
HETATM    5  C   UNL     1     -12.940  13.753  65.881  1.00  0.00    -0.240 C  
HETATM    6  O   UNL     1     -10.550  15.837  64.660  1.00  0.00    -0.479 OA 
HETATM    7  O   UNL     1     -12.637  15.896  63.804  1.00  0.00    -0.632 OA 
ENDROOT
BRANCH   3   8
HETATM    8  C   UNL     1     -10.287  12.501  66.193  1.00  0.00    -0.253 A  
HETATM    9  C   UNL     1     -10.674  11.166  66.129  1.00  0.00    -0.285 A  
HETATM   10  C   UNL     1     -10.428  10.314  67.211  1.00  0.00    -0.307 A  
HETATM   11  C   UNL     1      -9.772  10.790  68.352  1.00  0.00    -0.179 A  
HETATM   12  C   UNL     1      -9.553  12.950  67.295  1.00  0.00    -0.220 A  
HETATM   13  C   UNL     1      -9.287  12.099  68.369  1.00  0.00    -0.170 A  
BRANCH  11  14
HETATM   14  C   UNL     1      -9.602   9.875  69.507  1.00  0.00    -0.225 C  
HETATM   15  O   UNL     1      -8.467   9.655  69.923  1.00  0.00    -0.162 OA 
BRANCH  14  16
HETATM   16  C   UNL     1     -10.760   9.185  70.142  1.00  0.00    -0.263 A  
HETATM   17  C   UNL     1     -10.875   7.796  69.981  1.00  0.00    -0.243 A  
HETATM   18  C   UNL     1     -11.966   7.112  70.519  1.00  0.00    -0.258 A  
HETATM   19  C   UNL     1     -12.951   7.813  71.216  1.00  0.00    -0.221 A  
HETATM   20  C   UNL     1     -12.849   9.193  71.379  1.00  0.00    -0.376 A  
HETATM   21 CL   UNL     1     -14.309   6.976  71.858  1.00  0.00    -0.482 Cl 
HETATM   22  C   UNL     1     -11.762   9.882  70.833  1.00  0.00    -0.449 A  
ENDBRANCH  14  16
ENDBRANCH  11  14
ENDBRANCH   3   8
TORSDOF 3
ENDMDL
MODEL       22
REMARK 921   NORMALIZED FREE ENERGY PREDICTED BY IDOCK:   -6.11 KCAL/MOL
REMARK 922        TOTAL FREE ENERGY PREDICTED BY IDOCK:   -7.80 KCAL/MOL
REMARK 923 INTER-LIGAND FREE ENERGY PREDICTED BY IDOCK:   -7.33 KCAL/MOL
REMARK 924 INTRA-LIGAND FREE ENERGY PREDICTED BY IDOCK:   -0.47 KCAL/MOL
REMARK 927      BINDING AFFINITY PREDICTED BY RF-SCORE:    0.00 PKD
ROOT
HETATM    1  C   UNL     1     -11.523  15.210  66.914  1.00  0.00    -0.215 C  
HETATM    2  C   UNL     1     -11.173  14.540  65.585  1.00  0.00    -0.335 C  
HETATM    3  O   UNL     1     -11.886  13.287  65.460  1.00  0.00    -0.335 OA 
HETATM    4  C   UNL     1     -11.761  15.427  64.463  1.00  0.00    -0.277 C  
HETATM    5  C   UNL     1      -9.663  14.472  65.316  1.00  0.00    -0.088 C  
HETATM    6  O   UNL     1     -12.597  14.759  63.626  1.00  0.00    -0.749 OA 
HETATM    7  O   UNL     1     -11.505  16.613  64.304  1.00  0.00    -1.075 OA 
ENDROOT
BRANCH   3   8
HETATM    8  C   UNL     1     -11.337  12.099  65.836  1.00  0.00    -0.356 A  
HETATM    9  C   UNL     1     -10.615  11.233  65.020  1.00  0.00    -0.353 A  
HETATM   10  C   UNL     1     -10.164  10.009  65.525  1.00  0.00    -0.248 A  
HETATM   11  C   UNL     1     -10.414   9.657  66.856  1.00  0.00    -0.282 A  
HETATM   12  C   UNL     1     -11.507  11.784  67.188  1.00  0.00    -0.366 A  
HETATM   13  C   UNL     1     -11.041  10.573  67.703  1.00  0.00    -0.375 A  
BRANCH  11  14
HETATM   14  C   UNL     1      -9.989   8.317  67.328  1.00  0.00    -0.224 C  
HETATM   15  O   UNL     1      -9.334   7.604  66.570  1.00  0.00    -0.175 OA 
BRANCH  14  16
HETATM   16  C   UNL     1     -10.370   7.797  68.672  1.00  0.00    -0.221 A  
HETATM   17  C   UNL     1      -9.785   8.385  69.802  1.00  0.00    -0.180 A  
HETATM   18  C   UNL     1     -10.077   7.902  71.079  1.00  0.00    -0.212 A  
HETATM   19  C   UNL     1     -10.950   6.825  71.232  1.00  0.00    -0.249 A  
HETATM   20  C   UNL     1     -11.534   6.229  70.116  1.00  0.00    -0.452 A  
HETATM   21 CL   UNL     1     -11.291   6.213  72.802  1.00  0.00    -0.287 Cl 
HETATM   22  C   UNL     1     -11.236   6.706  68.835  1.00  0.00    -0.273 A  
ENDBRANCH  14  16
ENDBRANCH  11  14
ENDBRANCH   3   8
TORSDOF 3
ENDMDL
MODEL       23
REMARK 921   NORMALIZED FREE ENERGY PREDICTED BY IDOCK:   -6.09 KCAL/MOL
REMARK 922        TOTAL FREE ENERGY PREDICTED BY IDOCK:   -7.78 KCAL/MOL
REMARK 923 INTER-LIGAND FREE ENERGY PREDICTED BY IDOCK:   -7.31 KCAL/MOL
REMARK 924 INTRA-LIGAND FREE ENERGY PREDICTED BY IDOCK:   -0.47 KCAL/MOL
REMARK 927      BINDING AFFINITY PREDICTED BY RF-SCORE:    0.00 PKD
ROOT
HETATM    1  C   UNL     1     -10.660  11.130  64.820  1.00  0.00    -0.371 C  
HETATM    2  C   UNL     1     -10.535  11.691  66.237  1.00  0.00    -0.246 C  
HETATM    3  O   UNL     1     -11.546  12.703  66.457  1.00  0.00    -0.339 OA 
HETATM    4  C   UNL     1     -10.918  10.551  67.209  1.00  0.00    -0.260 C  
HETATM    5  C   UNL     1      -9.102  12.095  66.608  1.00  0.00    -0.206 C  
HETATM    6  O   UNL     1     -11.923  10.881  68.061  1.00  0.00    -0.586 OA 
HETATM    7  O   UNL     1     -10.376   9.455  67.247  1.00  0.00    -0.228 OA 
ENDROOT
BRANCH   3   8
HETATM    8  C   UNL     1     -11.303  14.028  66.257  1.00  0.00    -0.333 A  
HETATM    9  C   UNL     1     -11.106  14.650  65.028  1.00  0.00    -0.401 A  
HETATM   10  C   UNL     1     -10.798  16.014  64.976  1.00  0.00    -0.421 A  
HETATM   11  C   UNL     1     -10.710  16.765  66.153  1.00  0.00    -0.116 A  
HETATM   12  C   UNL     1     -11.303  14.799  67.423  1.00  0.00    -0.361 A  
HETATM   13  C   UNL     1     -11.016  16.165  67.376  1.00  0.00    -0.210 A  
BRANCH  11  14
HETATM   14  C   UNL     1     -10.303  18.188  66.058  1.00  0.00    -0.353 C  
HETATM   15  O   UNL     1     -10.880  18.915  65.253  1.00  0.00    -0.559 OA 
BRANCH  14  16
HETATM   16  C   UNL     1      -9.188  18.745  66.876  1.00  0.00    -0.316 A  
HETATM   17  C   UNL     1      -8.649  19.986  66.506  1.00  0.00    -0.366 A  
HETATM   18  C   UNL     1      -7.575  20.527  67.214  1.00  0.00    -0.386 A  
HETATM   19  C   UNL     1      -7.030  19.828  68.291  1.00  0.00    -0.298 A  
HETATM   20  C   UNL     1      -7.554  18.592  68.665  1.00  0.00    -0.341 A  
HETATM   21 CL   UNL     1      -5.690  20.481  69.149  1.00  0.00    -0.357 Cl 
HETATM   22  C   UNL     1      -8.625  18.044  67.952  1.00  0.00    -0.258 A  
ENDBRANCH  14  16
ENDBRANCH  11  14
ENDBRANCH   3   8
TORSDOF 3
ENDMDL
MODEL       24
REMARK 921   NORMALIZED FREE ENERGY PREDICTED BY IDOCK:   -6.09 KCAL/MOL
REMARK 922        TOTAL FREE ENERGY PREDICTED BY IDOCK:   -7.78 KCAL/MOL
REMARK 923 INTER-LIGAND FREE ENERGY PREDICTED BY IDOCK:   -7.15 KCAL/MOL
REMARK 924 INTRA-LIGAND FREE ENERGY PREDICTED BY IDOCK:   -0.63 KCAL/MOL
REMARK 927      BINDING AFFINITY PREDICTED BY RF-SCORE:    0.00 PKD
ROOT
HETATM    1  C   UNL     1     -10.755   7.683  69.839  1.00  0.00    -0.253 C  
HETATM    2  C   UNL     1     -11.508   8.129  71.092  1.00  0.00    -0.276 C  
HETATM    3  O   UNL     1     -12.612   8.990  70.724  1.00  0.00    -0.105 OA 
HETATM    4  C   UNL     1     -12.187   6.871  71.683  1.00  0.00    -0.361 C  
HETATM    5  C   UNL     1     -10.588   8.667  72.197  1.00  0.00    -0.411 C  
HETATM    6  O   UNL     1     -13.530   7.003  71.840  1.00  0.00    -0.301 OA 
HETATM    7  O   UNL     1     -11.599   5.848  72.007  1.00  0.00    -0.288 OA 
ENDROOT
BRANCH   3   8
HETATM    8  C   UNL     1     -12.497  10.347  70.700  1.00  0.00    -0.348 A  
HETATM    9  C   UNL     1     -12.993  11.230  71.654  1.00  0.00    -0.537 A  
HETATM   10  C   UNL     1     -12.859  12.610  71.467  1.00  0.00    -0.368 A  
HETATM   11  C   UNL     1     -12.206  13.110  70.335  1.00  0.00    -0.389 A  
HETATM   12  C   UNL     1     -11.767  10.847  69.617  1.00  0.00    -0.403 A  
HETATM   13  C   UNL     1     -11.612  12.223  69.436  1.00  0.00    -0.378 A  
BRANCH  11  14
HETATM   14  C   UNL     1     -12.156  14.579  70.135  1.00  0.00    -0.334 C  
HETATM   15  O   UNL     1     -12.975  15.283  70.722  1.00  0.00    -0.417 OA 
BRANCH  14  16
HETATM   16  C   UNL     1     -11.175  15.216  69.212  1.00  0.00    -0.287 A  
HETATM   17  C   UNL     1     -11.527  15.356  67.862  1.00  0.00    -0.306 A  
HETATM   18  C   UNL     1     -10.623  15.905  66.951  1.00  0.00    -0.309 A  
HETATM   19  C   UNL     1      -9.361  16.311  67.383  1.00  0.00    -0.221 A  
HETATM   20  C   UNL     1      -8.998  16.174  68.722  1.00  0.00    -0.236 A  
HETATM   21 CL   UNL     1      -8.236  16.965  66.258  1.00  0.00    -0.342 Cl 
HETATM   22  C   UNL     1      -9.898  15.616  69.635  1.00  0.00    -0.280 A  
ENDBRANCH  14  16
ENDBRANCH  11  14
ENDBRANCH   3   8
TORSDOF 3
ENDMDL
MODEL       25
REMARK 921   NORMALIZED FREE ENERGY PREDICTED BY IDOCK:   -6.08 KCAL/MOL
REMARK 922        TOTAL FREE ENERGY PREDICTED BY IDOCK:   -7.76 KCAL/MOL
REMARK 923 INTER-LIGAND FREE ENERGY PREDICTED BY IDOCK:   -7.36 KCAL/MOL
REMARK 924 INTRA-LIGAND FREE ENERGY PREDICTED BY IDOCK:   -0.40 KCAL/MOL
REMARK 927      BINDING AFFINITY PREDICTED BY RF-SCORE:    0.00 PKD
ROOT
HETATM    1  C   UNL     1      -9.175   7.014  70.387  1.00  0.00    -0.156 C  
HETATM    2  C   UNL     1     -10.036   7.187  71.639  1.00  0.00    -0.177 C  
HETATM    3  O   UNL     1     -11.377   7.581  71.265  1.00  0.00    -0.252 OA 
HETATM    4  C   UNL     1     -10.211   5.784  72.265  1.00  0.00    -0.196 C  
HETATM    5  C   UNL     1      -9.370   8.048  72.721  1.00  0.00    -0.330 C  
HETATM    6  O   UNL     1     -11.510   5.425  72.434  1.00  0.00    -0.235 OA 
HETATM    7  O   UNL     1      -9.291   5.051  72.604  1.00  0.00    -0.133 OA 
ENDROOT
BRANCH   3   8
HETATM    8  C   UNL     1     -11.762   8.887  71.211  1.00  0.00    -0.306 A  
HETATM    9  C   UNL     1     -11.240   9.862  70.367  1.00  0.00    -0.379 A  
HETATM   10  C   UNL     1     -11.686  11.185  70.466  1.00  0.00    -0.392 A  
HETATM   11  C   UNL     1     -12.674  11.530  71.394  1.00  0.00    -0.469 A  
HETATM   12  C   UNL     1     -12.811   9.217  72.074  1.00  0.00    -0.495 A  
HETATM   13  C   UNL     1     -13.275  10.531  72.163  1.00  0.00    -0.398 A  
BRANCH  11  14
HETATM   14  C   UNL     1     -13.060  12.957  71.522  1.00  0.00    -0.298 C  
HETATM   15  O   UNL     1     -14.015  13.247  72.238  1.00  0.00    -0.532 OA 
BRANCH  14  16
HETATM   16  C   UNL     1     -12.355  14.034  70.773  1.00  0.00    -0.443 A  
HETATM   17  C   UNL     1     -11.881  15.142  71.492  1.00  0.00    -0.436 A  
HETATM   18  C   UNL     1     -11.254  16.197  70.827  1.00  0.00    -0.356 A  
HETATM   19  C   UNL     1     -11.102  16.154  69.442  1.00  0.00    -0.335 A  
HETATM   20  C   UNL     1     -11.572  15.061  68.716  1.00  0.00    -0.357 A  
HETATM   21 CL   UNL     1     -10.352  17.465  68.619  1.00  0.00    -0.353 Cl 
HETATM   22  C   UNL     1     -12.209  14.007  69.378  1.00  0.00    -0.336 A  
ENDBRANCH  14  16
ENDBRANCH  11  14
ENDBRANCH   3   8
TORSDOF 3
ENDMDL
MODEL       26
REMARK 921   NORMALIZED FREE ENERGY PREDICTED BY IDOCK:   -6.05 KCAL/MOL
REMARK 922        TOTAL FREE ENERGY PREDICTED BY IDOCK:   -7.74 KCAL/MOL
REMARK 923 INTER-LIGAND FREE ENERGY PREDICTED BY IDOCK:   -7.01 KCAL/MOL
REMARK 924 INTRA-LIGAND FREE ENERGY PREDICTED BY IDOCK:   -0.73 KCAL/MOL
REMARK 927      BINDING AFFINITY PREDICTED BY RF-SCORE:    0.00 PKD
ROOT
HETATM    1  C   UNL     1     -11.215  15.709  67.688  1.00  0.00    -0.274 C  
HETATM    2  C   UNL     1     -10.490  15.381  66.382  1.00  0.00    -0.303 C  
HETATM    3  O   UNL     1     -11.218  14.363  65.656  1.00  0.00    -0.310 OA 
HETATM    4  C   UNL     1     -10.589  16.636  65.483  1.00  0.00    -0.258 C  
HETATM    5  C   UNL     1      -8.990  15.116  66.569  1.00  0.00    -0.326 C  
HETATM    6  O   UNL     1     -11.142  16.388  64.268  1.00  0.00    -0.845 OA 
HETATM    7  O   UNL     1     -10.198  17.752  65.798  1.00  0.00    -0.566 OA 
ENDROOT
BRANCH   3   8
HETATM    8  C   UNL     1     -10.927  13.038  65.775  1.00  0.00    -0.277 A  
HETATM    9  C   UNL     1     -11.218  12.228  66.869  1.00  0.00    -0.367 A  
HETATM   10  C   UNL     1     -10.800  10.893  66.883  1.00  0.00    -0.307 A  
HETATM   11  C   UNL     1     -10.109  10.357  65.790  1.00  0.00    -0.329 A  
HETATM   12  C   UNL     1     -10.317  12.475  64.650  1.00  0.00    -0.341 A  
HETATM   13  C   UNL     1      -9.915  11.138  64.649  1.00  0.00    -0.345 A  
BRANCH  11  14
HETATM   14  C   UNL     1      -9.614   8.962  65.879  1.00  0.00    -0.223 C  
HETATM   15  O   UNL     1      -9.026   8.482  64.912  1.00  0.00    -0.061 OA 
BRANCH  14  16
HETATM   16  C   UNL     1      -9.849   8.117  67.084  1.00  0.00    -0.281 A  
HETATM   17  C   UNL     1      -9.042   8.328  68.211  1.00  0.00    -0.135 A  
HETATM   18  C   UNL     1      -9.194   7.532  69.347  1.00  0.00    -0.149 A  
HETATM   19  C   UNL     1     -10.150   6.516  69.360  1.00  0.00    -0.172 A  
HETATM   20  C   UNL     1     -10.955   6.294  68.245  1.00  0.00    -0.408 A  
HETATM   21 CL   UNL     1     -10.323   5.517  70.749  1.00  0.00    -0.303 Cl 
HETATM   22  C   UNL     1     -10.798   7.085  67.102  1.00  0.00    -0.427 A  
ENDBRANCH  14  16
ENDBRANCH  11  14
ENDBRANCH   3   8
TORSDOF 3
ENDMDL
MODEL       27
REMARK 921   NORMALIZED FREE ENERGY PREDICTED BY IDOCK:   -6.04 KCAL/MOL
REMARK 922        TOTAL FREE ENERGY PREDICTED BY IDOCK:   -7.72 KCAL/MOL
REMARK 923 INTER-LIGAND FREE ENERGY PREDICTED BY IDOCK:   -6.95 KCAL/MOL
REMARK 924 INTRA-LIGAND FREE ENERGY PREDICTED BY IDOCK:   -0.77 KCAL/MOL
REMARK 927      BINDING AFFINITY PREDICTED BY RF-SCORE:    0.00 PKD
ROOT
HETATM    1  C   UNL     1     -12.530   6.601  72.007  1.00  0.00    -0.288 C  
HETATM    2  C   UNL     1     -11.239   6.838  71.223  1.00  0.00    -0.276 C  
HETATM    3  O   UNL     1     -10.723   8.159  71.509  1.00  0.00    -0.221 OA 
HETATM    4  C   UNL     1     -10.175   5.878  71.805  1.00  0.00    -0.203 C  
HETATM    5  C   UNL     1     -11.356   6.480  69.735  1.00  0.00    -0.456 C  
HETATM    6  O   UNL     1      -9.051   6.510  72.231  1.00  0.00    -0.139 OA 
HETATM    7  O   UNL     1     -10.294   4.662  71.872  1.00  0.00    -0.194 OA 
ENDROOT
BRANCH   3   8
HETATM    8  C   UNL     1     -11.014   9.237  70.730  1.00  0.00    -0.284 A  
HETATM    9  C   UNL     1     -12.191   9.979  70.761  1.00  0.00    -0.408 A  
HETATM   10  C   UNL     1     -12.383  11.025  69.852  1.00  0.00    -0.356 A  
HETATM   11  C   UNL     1     -11.386  11.348  68.925  1.00  0.00    -0.334 A  
HETATM   12  C   UNL     1      -9.986   9.619  69.863  1.00  0.00    -0.273 A  
HETATM   13  C   UNL     1     -10.163  10.676  68.968  1.00  0.00    -0.231 A  
BRANCH  11  14
HETATM   14  C   UNL     1     -11.662  12.411  67.928  1.00  0.00    -0.360 C  
HETATM   15  O   UNL     1     -12.110  12.089  66.830  1.00  0.00    -0.613 OA 
BRANCH  14  16
HETATM   16  C   UNL     1     -11.369  13.846  68.204  1.00  0.00    -0.324 A  
HETATM   17  C   UNL     1     -10.969  14.660  67.135  1.00  0.00    -0.316 A  
HETATM   18  C   UNL     1     -10.640  15.999  67.353  1.00  0.00    -0.316 A  
HETATM   19  C   UNL     1     -10.704  16.529  68.642  1.00  0.00    -0.334 A  
HETATM   20  C   UNL     1     -11.096  15.729  69.713  1.00  0.00    -0.322 A  
HETATM   21 CL   UNL     1     -10.275  18.172  68.917  1.00  0.00    -0.369 Cl 
HETATM   22  C   UNL     1     -11.417  14.385  69.498  1.00  0.00    -0.333 A  
ENDBRANCH  14  16
ENDBRANCH  11  14
ENDBRANCH   3   8
TORSDOF 3
ENDMDL
MODEL       28
REMARK 921   NORMALIZED FREE ENERGY PREDICTED BY IDOCK:   -6.00 KCAL/MOL
REMARK 922        TOTAL FREE ENERGY PREDICTED BY IDOCK:   -7.67 KCAL/MOL
REMARK 923 INTER-LIGAND FREE ENERGY PREDICTED BY IDOCK:   -7.13 KCAL/MOL
REMARK 924 INTRA-LIGAND FREE ENERGY PREDICTED BY IDOCK:   -0.54 KCAL/MOL
REMARK 927      BINDING AFFINITY PREDICTED BY RF-SCORE:    0.00 PKD
ROOT
HETATM    1  C   UNL     1     -12.844   8.689  72.678  1.00  0.00    -0.266 C  
HETATM    2  C   UNL     1     -11.581   8.350  71.886  1.00  0.00    -0.329 C  
HETATM    3  O   UNL     1     -10.863   9.563  71.558  1.00  0.00    -0.355 OA 
HETATM    4  C   UNL     1     -10.634   7.595  72.848  1.00  0.00    -0.354 C  
HETATM    5  C   UNL     1     -11.836   7.394  70.713  1.00  0.00    -0.288 C  
HETATM    6  O   UNL     1      -9.407   8.167  72.960  1.00  0.00    -0.251 OA 
HETATM    7  O   UNL     1     -10.923   6.569  73.449  1.00  0.00    -0.250 OA 
ENDROOT
BRANCH   3   8
HETATM    8  C   UNL     1     -11.042  10.215  70.376  1.00  0.00    -0.324 A  
HETATM    9  C   UNL     1     -10.382   9.946  69.181  1.00  0.00    -0.225 A  
HETATM   10  C   UNL     1     -10.617  10.743  68.056  1.00  0.00    -0.245 A  
HETATM   11  C   UNL     1     -11.533  11.799  68.117  1.00  0.00    -0.382 A  
HETATM   12  C   UNL     1     -12.021  11.213  70.408  1.00  0.00    -0.469 A  
HETATM   13  C   UNL     1     -12.276  11.999  69.282  1.00  0.00    -0.135 A  
BRANCH  11  14
HETATM   14  C   UNL     1     -11.694  12.669  66.926  1.00  0.00    -0.383 C  
HETATM   15  O   UNL     1     -12.275  12.219  65.941  1.00  0.00    -0.634 OA 
BRANCH  14  16
HETATM   16  C   UNL     1     -11.134  14.048  66.876  1.00  0.00    -0.310 A  
HETATM   17  C   UNL     1     -10.213  14.355  65.864  1.00  0.00    -0.341 A  
HETATM   18  C   UNL     1      -9.626  15.620  65.804  1.00  0.00    -0.361 A  
HETATM   19  C   UNL     1      -9.953  16.583  66.758  1.00  0.00    -0.276 A  
HETATM   20  C   UNL     1     -10.863  16.289  67.771  1.00  0.00    -0.315 A  
HETATM   21 CL   UNL     1      -9.213  18.135  66.701  1.00  0.00    -0.285 Cl 
HETATM   22  C   UNL     1     -11.445  15.019  67.839  1.00  0.00    -0.354 A  
ENDBRANCH  14  16
ENDBRANCH  11  14
ENDBRANCH   3   8
TORSDOF 3
ENDMDL
MODEL       29
REMARK 921   NORMALIZED FREE ENERGY PREDICTED BY IDOCK:   -5.98 KCAL/MOL
REMARK 922        TOTAL FREE ENERGY PREDICTED BY IDOCK:   -7.65 KCAL/MOL
REMARK 923 INTER-LIGAND FREE ENERGY PREDICTED BY IDOCK:   -7.79 KCAL/MOL
REMARK 924 INTRA-LIGAND FREE ENERGY PREDICTED BY IDOCK:    0.15 KCAL/MOL
REMARK 927      BINDING AFFINITY PREDICTED BY RF-SCORE:    0.00 PKD
ROOT
HETATM    1  C   UNL     1     -11.273  15.390  71.668  1.00  0.00    -0.386 C  
HETATM    2  C   UNL     1     -12.493  14.552  71.287  1.00  0.00    -0.346 C  
HETATM    3  O   UNL     1     -12.068  13.287  70.728  1.00  0.00    -0.341 OA 
HETATM    4  C   UNL     1     -13.206  14.166  72.605  1.00  0.00    -0.518 C  
HETATM    5  C   UNL     1     -13.530  15.326  70.461  1.00  0.00    -0.128 C  
HETATM    6  O   UNL     1     -13.372  12.827  72.758  1.00  0.00    -0.346 OA 
HETATM    7  O   UNL     1     -13.611  14.965  73.439  1.00  0.00    -0.439 OA 
ENDROOT
BRANCH   3   8
HETATM    8  C   UNL     1     -11.921  13.098  69.387  1.00  0.00    -0.291 A  
HETATM    9  C   UNL     1     -11.878  14.095  68.418  1.00  0.00    -0.388 A  
HETATM   10  C   UNL     1     -11.789  13.752  67.064  1.00  0.00    -0.445 A  
HETATM   11  C   UNL     1     -11.719  12.409  66.679  1.00  0.00    -0.438 A  
HETATM   12  C   UNL     1     -11.760  11.763  69.005  1.00  0.00    -0.390 A  
HETATM   13  C   UNL     1     -11.651  11.415  67.657  1.00  0.00    -0.315 A  
BRANCH  11  14
HETATM   14  C   UNL     1     -11.706  12.085  65.231  1.00  0.00    -0.252 C  
HETATM   15  O   UNL     1     -12.667  12.421  64.543  1.00  0.00    -0.594 OA 
BRANCH  14  16
HETATM   16  C   UNL     1     -10.587  11.329  64.602  1.00  0.00    -0.392 A  
HETATM   17  C   UNL     1     -10.125  11.749  63.346  1.00  0.00    -0.470 A  
HETATM   18  C   UNL     1      -9.109  11.044  62.697  1.00  0.00    -0.375 A  
HETATM   19  C   UNL     1      -8.555   9.914  63.297  1.00  0.00    -0.204 A  
HETATM   20  C   UNL     1      -9.008   9.485  64.543  1.00  0.00    -0.256 A  
HETATM   21 CL   UNL     1      -7.320   9.031  62.489  1.00  0.00    -0.098 Cl 
HETATM   22  C   UNL     1     -10.032  10.184  65.191  1.00  0.00    -0.379 A  
ENDBRANCH  14  16
ENDBRANCH  11  14
ENDBRANCH   3   8
TORSDOF 3
ENDMDL
MODEL       30
REMARK 921   NORMALIZED FREE ENERGY PREDICTED BY IDOCK:   -5.97 KCAL/MOL
REMARK 922        TOTAL FREE ENERGY PREDICTED BY IDOCK:   -7.64 KCAL/MOL
REMARK 923 INTER-LIGAND FREE ENERGY PREDICTED BY IDOCK:   -7.10 KCAL/MOL
REMARK 924 INTRA-LIGAND FREE ENERGY PREDICTED BY IDOCK:   -0.54 KCAL/MOL
REMARK 927      BINDING AFFINITY PREDICTED BY RF-SCORE:    0.00 PKD
ROOT
HETATM    1  C   UNL     1     -12.003   6.017  72.143  1.00  0.00    -0.261 C  
HETATM    2  C   UNL     1     -10.922   6.396  71.131  1.00  0.00    -0.275 C  
HETATM    3  O   UNL     1     -10.292   7.639  71.523  1.00  0.00    -0.196 OA 
HETATM    4  C   UNL     1      -9.796   5.342  71.256  1.00  0.00    -0.179 C  
HETATM    5  C   UNL     1     -11.400   6.327  69.674  1.00  0.00    -0.492 C  
HETATM    6  O   UNL     1      -8.576   5.881  71.510  1.00  0.00    -0.130 OA 
HETATM    7  O   UNL     1      -9.953   4.136  71.126  1.00  0.00    -0.188 OA 
ENDROOT
BRANCH   3   8
HETATM    8  C   UNL     1     -10.708   8.845  71.047  1.00  0.00    -0.247 A  
HETATM    9  C   UNL     1     -11.895   9.493  71.375  1.00  0.00    -0.464 A  
HETATM   10  C   UNL     1     -12.226  10.703  70.755  1.00  0.00    -0.474 A  
HETATM   11  C   UNL     1     -11.358  11.281  69.823  1.00  0.00    -0.348 A  
HETATM   12  C   UNL     1      -9.803   9.470  70.183  1.00  0.00    -0.288 A  
HETATM   13  C   UNL     1     -10.118  10.687  69.578  1.00  0.00    -0.164 A  
BRANCH  11  14
HETATM   14  C   UNL     1     -11.784  12.522  69.131  1.00  0.00    -0.321 C  
HETATM   15  O   UNL     1     -12.174  13.470  69.808  1.00  0.00    -0.313 OA 
BRANCH  14  16
HETATM   16  C   UNL     1     -11.793  12.633  67.645  1.00  0.00    -0.390 A  
HETATM   17  C   UNL     1     -12.361  13.778  67.068  1.00  0.00    -0.289 A  
HETATM   18  C   UNL     1     -12.433  13.905  65.680  1.00  0.00    -0.538 A  
HETATM   19  C   UNL     1     -11.944  12.887  64.862  1.00  0.00    -0.392 A  
HETATM   20  C   UNL     1     -11.381  11.743  65.424  1.00  0.00    -0.284 A  
HETATM   21 CL   UNL     1     -12.055  13.031  63.152  1.00  0.00    -0.518 Cl 
HETATM   22  C   UNL     1     -11.316  11.608  66.814  1.00  0.00    -0.354 A  
ENDBRANCH  14  16
ENDBRANCH  11  14
ENDBRANCH   3   8
TORSDOF 3
ENDMDL
MODEL       31
REMARK 921   NORMALIZED FREE ENERGY PREDICTED BY IDOCK:   -5.97 KCAL/MOL
REMARK 922        TOTAL FREE ENERGY PREDICTED BY IDOCK:   -7.64 KCAL/MOL
REMARK 923 INTER-LIGAND FREE ENERGY PREDICTED BY IDOCK:   -7.50 KCAL/MOL
REMARK 924 INTRA-LIGAND FREE ENERGY PREDICTED BY IDOCK:   -0.14 KCAL/MOL
REMARK 927      BINDING AFFINITY PREDICTED BY RF-SCORE:    0.00 PKD
ROOT
HETATM    1  C   UNL     1     -10.377   8.819  71.987  1.00  0.00    -0.411 C  
HETATM    2  C   UNL     1     -11.473   8.611  70.941  1.00  0.00    -0.275 C  
HETATM    3  O   UNL     1     -10.975   8.962  69.628  1.00  0.00    -0.216 OA 
HETATM    4  C   UNL     1     -11.733   7.088  70.856  1.00  0.00    -0.343 C  
HETATM    5  C   UNL     1     -12.815   9.244  71.331  1.00  0.00    -0.398 C  
HETATM    6  O   UNL     1     -11.597   6.585  69.602  1.00  0.00    -0.376 OA 
HETATM    7  O   UNL     1     -12.052   6.381  71.802  1.00  0.00    -0.340 OA 
ENDROOT
BRANCH   3   8
HETATM    8  C   UNL     1     -11.147  10.202  69.094  1.00  0.00    -0.212 A  
HETATM    9  C   UNL     1     -11.442  11.366  69.798  1.00  0.00    -0.376 A  
HETATM   10  C   UNL     1     -11.659  12.565  69.110  1.00  0.00    -0.375 A  
HETATM   11  C   UNL     1     -11.558  12.607  67.715  1.00  0.00    -0.403 A  
HETATM   12  C   UNL     1     -10.959  10.268  67.710  1.00  0.00    -0.360 A  
HETATM   13  C   UNL     1     -11.154  11.466  67.020  1.00  0.00    -0.364 A  
BRANCH  11  14
HETATM   14  C   UNL     1     -11.874  13.879  67.019  1.00  0.00    -0.415 C  
HETATM   15  O   UNL     1     -12.765  13.883  66.174  1.00  0.00    -0.429 OA 
BRANCH  14  16
HETATM   16  C   UNL     1     -11.112  15.132  67.284  1.00  0.00    -0.332 A  
HETATM   17  C   UNL     1     -10.086  15.486  66.396  1.00  0.00    -0.301 A  
HETATM   18  C   UNL     1      -9.315  16.626  66.627  1.00  0.00    -0.272 A  
HETATM   19  C   UNL     1      -9.562  17.416  67.750  1.00  0.00    -0.264 A  
HETATM   20  C   UNL     1     -10.576  17.073  68.642  1.00  0.00    -0.362 A  
HETATM   21 CL   UNL     1      -8.598  18.807  68.050  1.00  0.00    -0.312 Cl 
HETATM   22  C   UNL     1     -11.344  15.925  68.417  1.00  0.00    -0.361 A  
ENDBRANCH  14  16
ENDBRANCH  11  14
ENDBRANCH   3   8
TORSDOF 3
ENDMDL
MODEL       32
REMARK 921   NORMALIZED FREE ENERGY PREDICTED BY IDOCK:   -5.97 KCAL/MOL
REMARK 922        TOTAL FREE ENERGY PREDICTED BY IDOCK:   -7.63 KCAL/MOL
REMARK 923 INTER-LIGAND FREE ENERGY PREDICTED BY IDOCK:   -7.28 KCAL/MOL
REMARK 924 INTRA-LIGAND FREE ENERGY PREDICTED BY IDOCK:   -0.36 KCAL/MOL
REMARK 927      BINDING AFFINITY PREDICTED BY RF-SCORE:    0.00 PKD
ROOT
HETATM    1  C   UNL     1     -12.887   8.481  72.530  1.00  0.00    -0.310 C  
HETATM    2  C   UNL     1     -11.547   8.273  71.823  1.00  0.00    -0.299 C  
HETATM    3  O   UNL     1     -10.922   9.552  71.564  1.00  0.00    -0.364 OA 
HETATM    4  C   UNL     1     -10.603   7.586  72.838  1.00  0.00    -0.337 C  
HETATM    5  C   UNL     1     -11.634   7.322  70.622  1.00  0.00    -0.322 C  
HETATM    6  O   UNL     1      -9.443   8.263  73.043  1.00  0.00    -0.264 OA 
HETATM    7  O   UNL     1     -10.838   6.527  73.403  1.00  0.00    -0.268 OA 
ENDROOT
BRANCH   3   8
HETATM    8  C   UNL     1     -11.078  10.210  70.381  1.00  0.00    -0.324 A  
HETATM    9  C   UNL     1     -10.409   9.934  69.193  1.00  0.00    -0.225 A  
HETATM   10  C   UNL     1     -10.620  10.737  68.067  1.00  0.00    -0.245 A  
HETATM   11  C   UNL     1     -11.522  11.806  68.121  1.00  0.00    -0.382 A  
HETATM   12  C   UNL     1     -12.044  11.221  70.405  1.00  0.00    -0.474 A  
HETATM   13  C   UNL     1     -12.274  12.013  69.278  1.00  0.00    -0.135 A  
BRANCH  11  14
HETATM   14  C   UNL     1     -11.657  12.681  66.930  1.00  0.00    -0.373 C  
HETATM   15  O   UNL     1     -12.175  12.220  65.916  1.00  0.00    -0.634 OA 
BRANCH  14  16
HETATM   16  C   UNL     1     -11.143  14.079  66.918  1.00  0.00    -0.310 A  
HETATM   17  C   UNL     1     -11.391  14.888  68.037  1.00  0.00    -0.337 A  
HETATM   18  C   UNL     1     -10.969  16.218  68.052  1.00  0.00    -0.328 A  
HETATM   19  C   UNL     1     -10.303  16.749  66.948  1.00  0.00    -0.294 A  
HETATM   20  C   UNL     1     -10.055  15.957  65.829  1.00  0.00    -0.389 A  
HETATM   21 CL   UNL     1      -9.804  18.395  66.955  1.00  0.00    -0.325 Cl 
HETATM   22  C   UNL     1     -10.485  14.626  65.807  1.00  0.00    -0.338 A  
ENDBRANCH  14  16
ENDBRANCH  11  14
ENDBRANCH   3   8
TORSDOF 3
ENDMDL
MODEL       33
REMARK 921   NORMALIZED FREE ENERGY PREDICTED BY IDOCK:   -5.96 KCAL/MOL
REMARK 922        TOTAL FREE ENERGY PREDICTED BY IDOCK:   -7.63 KCAL/MOL
REMARK 923 INTER-LIGAND FREE ENERGY PREDICTED BY IDOCK:   -7.22 KCAL/MOL
REMARK 924 INTRA-LIGAND FREE ENERGY PREDICTED BY IDOCK:   -0.41 KCAL/MOL
REMARK 927      BINDING AFFINITY PREDICTED BY RF-SCORE:    0.00 PKD
ROOT
HETATM    1  C   UNL     1      -8.967   5.950  71.852  1.00  0.00    -0.139 C  
HETATM    2  C   UNL     1     -10.259   6.452  72.497  1.00  0.00    -0.183 C  
HETATM    3  O   UNL     1     -11.244   6.736  71.475  1.00  0.00    -0.243 OA 
HETATM    4  C   UNL     1     -10.860   5.265  73.287  1.00  0.00    -0.297 C  
HETATM    5  C   UNL     1     -10.032   7.568  73.526  1.00  0.00    -0.371 C  
HETATM    6  O   UNL     1     -12.135   4.967  72.929  1.00  0.00    -0.144 OA 
HETATM    7  O   UNL     1     -10.277   4.647  74.168  1.00  0.00    -0.177 OA 
ENDROOT
BRANCH   3   8
HETATM    8  C   UNL     1     -11.403   7.980  70.947  1.00  0.00    -0.276 A  
HETATM    9  C   UNL     1     -10.565   8.593  70.021  1.00  0.00    -0.233 A  
HETATM   10  C   UNL     1     -10.815   9.908  69.613  1.00  0.00    -0.281 A  
HETATM   11  C   UNL     1     -11.920  10.606  70.113  1.00  0.00    -0.417 A  
HETATM   12  C   UNL     1     -12.555   8.648  71.375  1.00  0.00    -0.325 A  
HETATM   13  C   UNL     1     -12.821   9.953  70.956  1.00  0.00    -0.417 A  
BRANCH  11  14
HETATM   14  C   UNL     1     -12.103  12.023  69.716  1.00  0.00    -0.248 C  
HETATM   15  O   UNL     1     -11.982  12.324  68.531  1.00  0.00    -0.317 OA 
BRANCH  14  16
HETATM   16  C   UNL     1     -12.383  13.092  70.716  1.00  0.00    -0.394 A  
HETATM   17  C   UNL     1     -11.788  14.348  70.530  1.00  0.00    -0.367 A  
HETATM   18  C   UNL     1     -11.985  15.366  71.465  1.00  0.00    -0.443 A  
HETATM   19  C   UNL     1     -12.771  15.132  72.592  1.00  0.00    -0.380 A  
HETATM   20  C   UNL     1     -13.364  13.887  72.790  1.00  0.00    -0.567 A  
HETATM   21 CL   UNL     1     -12.994  16.377  73.757  1.00  0.00    -0.481 Cl 
HETATM   22  C   UNL     1     -13.162  12.862  71.860  1.00  0.00    -0.521 A  
ENDBRANCH  14  16
ENDBRANCH  11  14
ENDBRANCH   3   8
TORSDOF 3
ENDMDL
MODEL       34
REMARK 921   NORMALIZED FREE ENERGY PREDICTED BY IDOCK:   -5.96 KCAL/MOL
REMARK 922        TOTAL FREE ENERGY PREDICTED BY IDOCK:   -7.63 KCAL/MOL
REMARK 923 INTER-LIGAND FREE ENERGY PREDICTED BY IDOCK:   -6.96 KCAL/MOL
REMARK 924 INTRA-LIGAND FREE ENERGY PREDICTED BY IDOCK:   -0.67 KCAL/MOL
REMARK 927      BINDING AFFINITY PREDICTED BY RF-SCORE:    0.00 PKD
ROOT
HETATM    1  C   UNL     1     -10.967  16.359  66.848  1.00  0.00    -0.018 C  
HETATM    2  C   UNL     1     -11.134  15.093  66.006  1.00  0.00    -0.312 C  
HETATM    3  O   UNL     1     -12.171  14.257  66.573  1.00  0.00    -0.441 OA 
HETATM    4  C   UNL     1     -11.706  15.534  64.638  1.00  0.00    -0.226 C  
HETATM    5  C   UNL     1      -9.807  14.387  65.699  1.00  0.00    -0.322 C  
HETATM    6  O   UNL     1     -12.863  14.905  64.307  1.00  0.00    -0.607 OA 
HETATM    7  O   UNL     1     -11.181  16.350  63.893  1.00  0.00    -0.807 OA 
ENDROOT
BRANCH   3   8
HETATM    8  C   UNL     1     -11.893  13.251  67.448  1.00  0.00    -0.366 A  
HETATM    9  C   UNL     1     -11.559  11.942  67.116  1.00  0.00    -0.363 A  
HETATM   10  C   UNL     1     -11.364  10.992  68.125  1.00  0.00    -0.374 A  
HETATM   11  C   UNL     1     -11.480  11.356  69.471  1.00  0.00    -0.381 A  
HETATM   12  C   UNL     1     -11.919  13.631  68.794  1.00  0.00    -0.394 A  
HETATM   13  C   UNL     1     -11.705  12.693  69.805  1.00  0.00    -0.354 A  
BRANCH  11  14
HETATM   14  C   UNL     1     -11.344  10.301  70.506  1.00  0.00    -0.341 C  
HETATM   15  O   UNL     1     -12.030  10.380  71.522  1.00  0.00    -0.333 OA 
BRANCH  14  16
HETATM   16  C   UNL     1     -10.370   9.182  70.367  1.00  0.00    -0.269 A  
HETATM   17  C   UNL     1     -10.869   7.873  70.293  1.00  0.00    -0.241 A  
HETATM   18  C   UNL     1      -9.994   6.789  70.208  1.00  0.00    -0.192 A  
HETATM   19  C   UNL     1      -8.617   7.006  70.203  1.00  0.00    -0.140 A  
HETATM   20  C   UNL     1      -8.109   8.302  70.279  1.00  0.00    -0.104 A  
HETATM   21 CL   UNL     1      -7.536   5.671  70.123  1.00  0.00    -0.083 Cl 
HETATM   22  C   UNL     1      -8.983   9.389  70.374  1.00  0.00    -0.294 A  
ENDBRANCH  14  16
ENDBRANCH  11  14
ENDBRANCH   3   8
TORSDOF 3
ENDMDL
MODEL       35
REMARK 921   NORMALIZED FREE ENERGY PREDICTED BY IDOCK:   -5.94 KCAL/MOL
REMARK 922        TOTAL FREE ENERGY PREDICTED BY IDOCK:   -7.61 KCAL/MOL
REMARK 923 INTER-LIGAND FREE ENERGY PREDICTED BY IDOCK:   -7.01 KCAL/MOL
REMARK 924 INTRA-LIGAND FREE ENERGY PREDICTED BY IDOCK:   -0.60 KCAL/MOL
REMARK 927      BINDING AFFINITY PREDICTED BY RF-SCORE:    0.00 PKD
ROOT
HETATM    1  C   UNL     1     -12.071  14.457  66.523  1.00  0.00    -0.395 C  
HETATM    2  C   UNL     1     -11.686  13.211  65.724  1.00  0.00    -0.374 C  
HETATM    3  O   UNL     1     -12.145  12.023  66.410  1.00  0.00    -0.610 OA 
HETATM    4  C   UNL     1     -12.513  13.240  64.416  1.00  0.00    -0.290 C  
HETATM    5  C   UNL     1     -10.215  13.199  65.288  1.00  0.00    -0.299 C  
HETATM    6  O   UNL     1     -13.254  12.120  64.220  1.00  0.00    -0.768 OA 
HETATM    7  O   UNL     1     -12.507  14.158  63.607  1.00  0.00    -0.819 OA 
ENDROOT
BRANCH   3   8
HETATM    8  C   UNL     1     -11.348  11.326  67.267  1.00  0.00    -0.255 A  
HETATM    9  C   UNL     1     -10.291  10.495  66.912  1.00  0.00    -0.293 A  
HETATM   10  C   UNL     1      -9.597   9.786  67.899  1.00  0.00    -0.158 A  
HETATM   11  C   UNL     1      -9.945   9.926  69.247  1.00  0.00    -0.217 A  
HETATM   12  C   UNL     1     -11.634  11.532  68.620  1.00  0.00    -0.375 A  
HETATM   13  C   UNL     1     -10.932  10.843  69.611  1.00  0.00    -0.311 A  
BRANCH  11  14
HETATM   14  C   UNL     1      -9.237   9.096  70.253  1.00  0.00    -0.218 C  
HETATM   15  O   UNL     1      -8.503   9.653  71.066  1.00  0.00    -0.234 OA 
BRANCH  14  16
HETATM   16  C   UNL     1      -9.356   7.611  70.274  1.00  0.00    -0.157 A  
HETATM   17  C   UNL     1      -8.179   6.851  70.326  1.00  0.00    -0.129 A  
HETATM   18  C   UNL     1      -8.238   5.456  70.302  1.00  0.00    -0.101 A  
HETATM   19  C   UNL     1      -9.474   4.815  70.220  1.00  0.00    -0.174 A  
HETATM   20  C   UNL     1     -10.651   5.559  70.164  1.00  0.00    -0.367 A  
HETATM   21 CL   UNL     1      -9.549   3.098  70.165  1.00  0.00    -0.218 Cl 
HETATM   22  C   UNL     1     -10.593   6.957  70.178  1.00  0.00    -0.249 A  
ENDBRANCH  14  16
ENDBRANCH  11  14
ENDBRANCH   3   8
TORSDOF 3
ENDMDL
MODEL       36
REMARK 921   NORMALIZED FREE ENERGY PREDICTED BY IDOCK:   -5.94 KCAL/MOL
REMARK 922        TOTAL FREE ENERGY PREDICTED BY IDOCK:   -7.60 KCAL/MOL
REMARK 923 INTER-LIGAND FREE ENERGY PREDICTED BY IDOCK:   -7.37 KCAL/MOL
REMARK 924 INTRA-LIGAND FREE ENERGY PREDICTED BY IDOCK:   -0.24 KCAL/MOL
REMARK 927      BINDING AFFINITY PREDICTED BY RF-SCORE:    0.00 PKD
ROOT
HETATM    1  C   UNL     1      -9.777  18.718  68.852  1.00  0.00    -0.393 C  
HETATM    2  C   UNL     1      -9.834  17.585  67.826  1.00  0.00    -0.286 C  
HETATM    3  O   UNL     1     -11.161  17.006  67.804  1.00  0.00    -0.263 OA 
HETATM    4  C   UNL     1      -9.677  18.232  66.430  1.00  0.00    -0.334 C  
HETATM    5  C   UNL     1      -8.677  16.586  67.958  1.00  0.00    -0.189 C  
HETATM    6  O   UNL     1     -10.693  17.935  65.579  1.00  0.00    -0.585 OA 
HETATM    7  O   UNL     1      -8.733  18.930  66.087  1.00  0.00    -0.431 OA 
ENDROOT
BRANCH   3   8
HETATM    8  C   UNL     1     -11.489  15.915  68.550  1.00  0.00    -0.377 A  
HETATM    9  C   UNL     1     -11.604  15.873  69.936  1.00  0.00    -0.337 A  
HETATM   10  C   UNL     1     -11.885  14.661  70.578  1.00  0.00    -0.367 A  
HETATM   11  C   UNL     1     -12.074  13.493  69.832  1.00  0.00    -0.408 A  
HETATM   12  C   UNL     1     -11.767  14.766  67.804  1.00  0.00    -0.368 A  
HETATM   13  C   UNL     1     -12.067  13.559  68.438  1.00  0.00    -0.293 A  
BRANCH  11  14
HETATM   14  C   UNL     1     -12.290  12.216  70.556  1.00  0.00    -0.272 C  
HETATM   15  O   UNL     1     -13.047  12.207  71.523  1.00  0.00    -0.384 OA 
BRANCH  14  16
HETATM   16  C   UNL     1     -11.581  10.963  70.171  1.00  0.00    -0.425 A  
HETATM   17  C   UNL     1     -11.159  10.820  68.841  1.00  0.00    -0.307 A  
HETATM   18  C   UNL     1     -10.532   9.645  68.423  1.00  0.00    -0.258 A  
HETATM   19  C   UNL     1     -10.328   8.605  69.330  1.00  0.00    -0.218 A  
HETATM   20  C   UNL     1     -10.746   8.734  70.653  1.00  0.00    -0.267 A  
HETATM   21 CL   UNL     1      -9.578   7.147  68.812  1.00  0.00    -0.144 Cl 
HETATM   22  C   UNL     1     -11.383   9.907  71.073  1.00  0.00    -0.460 A  
ENDBRANCH  14  16
ENDBRANCH  11  14
ENDBRANCH   3   8
TORSDOF 3
ENDMDL
MODEL       37
REMARK 921   NORMALIZED FREE ENERGY PREDICTED BY IDOCK:   -5.90 KCAL/MOL
REMARK 922        TOTAL FREE ENERGY PREDICTED BY IDOCK:   -7.56 KCAL/MOL
REMARK 923 INTER-LIGAND FREE ENERGY PREDICTED BY IDOCK:   -6.86 KCAL/MOL
REMARK 924 INTRA-LIGAND FREE ENERGY PREDICTED BY IDOCK:   -0.69 KCAL/MOL
REMARK 927      BINDING AFFINITY PREDICTED BY RF-SCORE:    0.00 PKD
ROOT
HETATM    1  C   UNL     1     -12.281  14.030  68.844  1.00  0.00    -0.261 C  
HETATM    2  C   UNL     1     -11.474  13.004  68.047  1.00  0.00    -0.309 C  
HETATM    3  O   UNL     1     -12.004  11.677  68.271  1.00  0.00    -0.516 OA 
HETATM    4  C   UNL     1     -11.750  13.278  66.550  1.00  0.00    -0.377 C  
HETATM    5  C   UNL     1      -9.957  13.151  68.226  1.00  0.00    -0.236 C  
HETATM    6  O   UNL     1     -12.219  12.194  65.879  1.00  0.00    -0.604 OA 
HETATM    7  O   UNL     1     -11.557  14.348  65.989  1.00  0.00    -0.350 OA 
ENDROOT
BRANCH   3   8
HETATM    8  C   UNL     1     -11.504  10.848  69.229  1.00  0.00    -0.302 A  
HETATM    9  C   UNL     1     -11.929  10.771  70.552  1.00  0.00    -0.456 A  
HETATM   10  C   UNL     1     -11.277   9.917  71.448  1.00  0.00    -0.279 A  
HETATM   11  C   UNL     1     -10.213   9.118  71.016  1.00  0.00    -0.372 A  
HETATM   12  C   UNL     1     -10.501   9.983  68.780  1.00  0.00    -0.229 A  
HETATM   13  C   UNL     1      -9.861   9.113  69.665  1.00  0.00    -0.188 A  
BRANCH  11  14
HETATM   14  C   UNL     1      -9.499   8.286  72.015  1.00  0.00    -0.236 C  
HETATM   15  O   UNL     1      -8.496   8.745  72.557  1.00  0.00    -0.403 OA 
BRANCH  14  16
HETATM   16  C   UNL     1      -9.936   6.899  72.343  1.00  0.00    -0.181 A  
HETATM   17  C   UNL     1     -10.198   6.586  73.684  1.00  0.00    -0.305 A  
HETATM   18  C   UNL     1     -10.566   5.289  74.046  1.00  0.00    -0.321 A  
HETATM   19  C   UNL     1     -10.667   4.297  73.070  1.00  0.00    -0.192 A  
HETATM   20  C   UNL     1     -10.405   4.596  71.735  1.00  0.00    -0.208 A  
HETATM   21 CL   UNL     1     -11.096   2.693  73.516  1.00  0.00    -0.310 Cl 
HETATM   22  C   UNL     1     -10.028   5.893  71.371  1.00  0.00    -0.228 A  
ENDBRANCH  14  16
ENDBRANCH  11  14
ENDBRANCH   3   8
TORSDOF 3
ENDMDL
MODEL       38
REMARK 921   NORMALIZED FREE ENERGY PREDICTED BY IDOCK:   -5.85 KCAL/MOL
REMARK 922        TOTAL FREE ENERGY PREDICTED BY IDOCK:   -7.50 KCAL/MOL
REMARK 923 INTER-LIGAND FREE ENERGY PREDICTED BY IDOCK:   -7.19 KCAL/MOL
REMARK 924 INTRA-LIGAND FREE ENERGY PREDICTED BY IDOCK:   -0.32 KCAL/MOL
REMARK 927      BINDING AFFINITY PREDICTED BY RF-SCORE:    0.00 PKD
ROOT
HETATM    1  C   UNL     1     -11.225   6.227  69.627  1.00  0.00    -0.506 C  
HETATM    2  C   UNL     1     -10.327   6.914  68.598  1.00  0.00    -0.186 C  
HETATM    3  O   UNL     1      -9.702   8.079  69.187  1.00  0.00    -0.159 OA 
HETATM    4  C   UNL     1      -9.150   5.953  68.312  1.00  0.00    -0.118 C  
HETATM    5  C   UNL     1     -11.017   7.145  67.246  1.00  0.00    -0.333 C  
HETATM    6  O   UNL     1      -7.930   6.514  68.519  1.00  0.00    -0.107 OA 
HETATM    7  O   UNL     1      -9.270   4.800  67.918  1.00  0.00    -0.113 OA 
ENDROOT
BRANCH   3   8
HETATM    8  C   UNL     1     -10.239   9.325  69.076  1.00  0.00    -0.206 A  
HETATM    9  C   UNL     1      -9.952  10.258  68.084  1.00  0.00    -0.168 A  
HETATM   10  C   UNL     1     -10.531  11.531  68.131  1.00  0.00    -0.216 A  
HETATM   11  C   UNL     1     -11.419  11.866  69.159  1.00  0.00    -0.356 A  
HETATM   12  C   UNL     1     -11.195   9.633  70.049  1.00  0.00    -0.271 A  
HETATM   13  C   UNL     1     -11.791  10.894  70.090  1.00  0.00    -0.438 A  
BRANCH  11  14
HETATM   14  C   UNL     1     -11.948  13.251  69.217  1.00  0.00    -0.303 C  
HETATM   15  O   UNL     1     -12.177  13.839  68.162  1.00  0.00    -0.331 OA 
BRANCH  14  16
HETATM   16  C   UNL     1     -12.164  13.958  70.510  1.00  0.00    -0.443 A  
HETATM   17  C   UNL     1     -11.502  15.177  70.720  1.00  0.00    -0.350 A  
HETATM   18  C   UNL     1     -11.638  15.853  71.933  1.00  0.00    -0.542 A  
HETATM   19  C   UNL     1     -12.432  15.313  72.945  1.00  0.00    -0.406 A  
HETATM   20  C   UNL     1     -13.092  14.102  72.749  1.00  0.00    -0.573 A  
HETATM   21 CL   UNL     1     -12.581  16.133  74.449  1.00  0.00    -0.635 Cl 
HETATM   22  C   UNL     1     -12.950  13.417  71.538  1.00  0.00    -0.429 A  
ENDBRANCH  14  16
ENDBRANCH  11  14
ENDBRANCH   3   8
TORSDOF 3
ENDMDL
MODEL       39
REMARK 921   NORMALIZED FREE ENERGY PREDICTED BY IDOCK:   -5.83 KCAL/MOL
REMARK 922        TOTAL FREE ENERGY PREDICTED BY IDOCK:   -7.48 KCAL/MOL
REMARK 923 INTER-LIGAND FREE ENERGY PREDICTED BY IDOCK:   -7.13 KCAL/MOL
REMARK 924 INTRA-LIGAND FREE ENERGY PREDICTED BY IDOCK:   -0.35 KCAL/MOL
REMARK 927      BINDING AFFINITY PREDICTED BY RF-SCORE:    0.00 PKD
ROOT
HETATM    1  C   UNL     1     -14.001  15.137  71.370  1.00  0.00    -0.595 C  
HETATM    2  C   UNL     1     -12.610  14.588  71.689  1.00  0.00    -0.348 C  
HETATM    3  O   UNL     1     -12.257  13.554  70.739  1.00  0.00    -0.349 OA 
HETATM    4  C   UNL     1     -11.600  15.725  71.408  1.00  0.00    -0.445 C  
HETATM    5  C   UNL     1     -12.425  14.219  73.167  1.00  0.00    -0.192 C  
HETATM    6  O   UNL     1     -10.624  15.378  70.529  1.00  0.00    -0.304 OA 
HETATM    7  O   UNL     1     -11.636  16.834  71.925  1.00  0.00    -0.266 OA 
ENDROOT
BRANCH   3   8
HETATM    8  C   UNL     1     -12.483  12.234  70.985  1.00  0.00    -0.263 A  
HETATM    9  C   UNL     1     -13.447  11.712  71.843  1.00  0.00    -0.269 A  
HETATM   10  C   UNL     1     -13.523  10.330  72.051  1.00  0.00    -0.385 A  
HETATM   11  C   UNL     1     -12.649   9.465  71.383  1.00  0.00    -0.430 A  
HETATM   12  C   UNL     1     -11.673  11.362  70.252  1.00  0.00    -0.397 A  
HETATM   13  C   UNL     1     -11.758   9.981  70.441  1.00  0.00    -0.365 A  
BRANCH  11  14
HETATM   14  C   UNL     1     -12.711   8.016  71.693  1.00  0.00    -0.326 C  
HETATM   15  O   UNL     1     -13.793   7.440  71.609  1.00  0.00    -0.385 OA 
BRANCH  14  16
HETATM   16  C   UNL     1     -11.512   7.255  72.146  1.00  0.00    -0.310 A  
HETATM   17  C   UNL     1     -11.115   6.136  71.399  1.00  0.00    -0.346 A  
HETATM   18  C   UNL     1     -10.025   5.366  71.809  1.00  0.00    -0.235 A  
HETATM   19  C   UNL     1      -9.331   5.706  72.970  1.00  0.00    -0.140 A  
HETATM   20  C   UNL     1      -9.719   6.813  73.723  1.00  0.00    -0.267 A  
HETATM   21 CL   UNL     1      -8.005   4.744  73.491  1.00  0.00    -0.102 Cl 
HETATM   22  C   UNL     1     -10.816   7.581  73.319  1.00  0.00    -0.409 A  
ENDBRANCH  14  16
ENDBRANCH  11  14
ENDBRANCH   3   8
TORSDOF 3
ENDMDL
MODEL       40
REMARK 921   NORMALIZED FREE ENERGY PREDICTED BY IDOCK:   -5.81 KCAL/MOL
REMARK 922        TOTAL FREE ENERGY PREDICTED BY IDOCK:   -7.45 KCAL/MOL
REMARK 923 INTER-LIGAND FREE ENERGY PREDICTED BY IDOCK:   -6.99 KCAL/MOL
REMARK 924 INTRA-LIGAND FREE ENERGY PREDICTED BY IDOCK:   -0.46 KCAL/MOL
REMARK 927      BINDING AFFINITY PREDICTED BY RF-SCORE:    0.00 PKD
ROOT
HETATM    1  C   UNL     1      -8.678   6.944  68.127  1.00  0.00    -0.126 C  
HETATM    2  C   UNL     1      -9.418   6.993  66.790  1.00  0.00    -0.163 C  
HETATM    3  O   UNL     1      -8.993   8.151  66.033  1.00  0.00    -0.166 OA 
HETATM    4  C   UNL     1      -8.923   5.788  65.955  1.00  0.00    -0.151 C  
HETATM    5  C   UNL     1     -10.936   6.813  66.927  1.00  0.00    -0.370 C  
HETATM    6  O   UNL     1      -8.422   6.139  64.743  1.00  0.00    -0.108 OA 
HETATM    7  O   UNL     1      -8.982   4.620  66.314  1.00  0.00    -0.115 OA 
ENDROOT
BRANCH   3   8
HETATM    8  C   UNL     1      -9.662   9.336  66.081  1.00  0.00    -0.279 A  
HETATM    9  C   UNL     1     -10.242   9.906  67.210  1.00  0.00    -0.277 A  
HETATM   10  C   UNL     1     -10.960  11.102  67.099  1.00  0.00    -0.350 A  
HETATM   11  C   UNL     1     -11.079  11.744  65.862  1.00  0.00    -0.355 A  
HETATM   12  C   UNL     1      -9.707  10.025  64.865  1.00  0.00    -0.377 A  
HETATM   13  C   UNL     1     -10.404  11.229  64.753  1.00  0.00    -0.366 A  
BRANCH  11  14
HETATM   14  C   UNL     1     -11.915  12.966  65.773  1.00  0.00    -0.443 C  
HETATM   15  O   UNL     1     -12.917  12.946  65.062  1.00  0.00    -0.777 OA 
BRANCH  14  16
HETATM   16  C   UNL     1     -11.549  14.224  66.483  1.00  0.00    -0.390 A  
HETATM   17  C   UNL     1     -10.795  15.183  65.789  1.00  0.00    -0.358 A  
HETATM   18  C   UNL     1     -10.390  16.356  66.427  1.00  0.00    -0.319 A  
HETATM   19  C   UNL     1     -10.730  16.575  67.762  1.00  0.00    -0.329 A  
HETATM   20  C   UNL     1     -11.474  15.629  68.462  1.00  0.00    -0.380 A  
HETATM   21 CL   UNL     1     -10.210  18.009  68.556  1.00  0.00    -0.388 Cl 
HETATM   22  C   UNL     1     -11.874  14.448  67.829  1.00  0.00    -0.402 A  
ENDBRANCH  14  16
ENDBRANCH  11  14
ENDBRANCH   3   8
TORSDOF 3
ENDMDL
MODEL       41
REMARK 921   NORMALIZED FREE ENERGY PREDICTED BY IDOCK:   -5.79 KCAL/MOL
REMARK 922        TOTAL FREE ENERGY PREDICTED BY IDOCK:   -7.42 KCAL/MOL
REMARK 923 INTER-LIGAND FREE ENERGY PREDICTED BY IDOCK:   -6.63 KCAL/MOL
REMARK 924 INTRA-LIGAND FREE ENERGY PREDICTED BY IDOCK:   -0.79 KCAL/MOL
REMARK 927      BINDING AFFINITY PREDICTED BY RF-SCORE:    0.00 PKD
ROOT
HETATM    1  C   UNL     1     -10.558   7.761  69.534  1.00  0.00    -0.221 C  
HETATM    2  C   UNL     1     -10.613   9.158  70.153  1.00  0.00    -0.228 C  
HETATM    3  O   UNL     1     -11.639   9.946  69.504  1.00  0.00    -0.137 OA 
HETATM    4  C   UNL     1     -11.121   8.989  71.604  1.00  0.00    -0.363 C  
HETATM    5  C   UNL     1      -9.237   9.829  70.267  1.00  0.00    -0.225 C  
HETATM    6  O   UNL     1     -12.225   9.731  71.880  1.00  0.00    -0.375 OA 
HETATM    7  O   UNL     1     -10.593   8.282  72.450  1.00  0.00    -0.293 OA 
ENDROOT
BRANCH   3   8
HETATM    8  C   UNL     1     -11.367  10.771  68.456  1.00  0.00    -0.295 A  
HETATM    9  C   UNL     1     -10.795  10.399  67.244  1.00  0.00    -0.324 A  
HETATM   10  C   UNL     1     -10.510  11.369  66.277  1.00  0.00    -0.301 A  
HETATM   11  C   UNL     1     -10.818  12.713  66.511  1.00  0.00    -0.285 A  
HETATM   12  C   UNL     1     -11.756  12.101  68.650  1.00  0.00    -0.382 A  
HETATM   13  C   UNL     1     -11.492  13.070  67.681  1.00  0.00    -0.369 A  
BRANCH  11  14
HETATM   14  C   UNL     1     -10.427  13.719  65.494  1.00  0.00    -0.318 C  
HETATM   15  O   UNL     1     -10.510  13.420  64.305  1.00  0.00    -0.429 OA 
BRANCH  14  16
HETATM   16  C   UNL     1      -9.895  15.058  65.874  1.00  0.00    -0.369 A  
HETATM   17  C   UNL     1      -8.710  15.115  66.621  1.00  0.00    -0.308 A  
HETATM   18  C   UNL     1      -8.198  16.344  67.039  1.00  0.00    -0.231 A  
HETATM   19  C   UNL     1      -8.871  17.523  66.718  1.00  0.00    -0.256 A  
HETATM   20  C   UNL     1     -10.052  17.479  65.979  1.00  0.00    -0.270 A  
HETATM   21 CL   UNL     1      -8.256  19.037  67.253  1.00  0.00    -0.288 Cl 
HETATM   22  C   UNL     1     -10.572  16.248  65.567  1.00  0.00    -0.369 A  
ENDBRANCH  14  16
ENDBRANCH  11  14
ENDBRANCH   3   8
TORSDOF 3
ENDMDL
MODEL       42
REMARK 921   NORMALIZED FREE ENERGY PREDICTED BY IDOCK:   -5.75 KCAL/MOL
REMARK 922        TOTAL FREE ENERGY PREDICTED BY IDOCK:   -7.38 KCAL/MOL
REMARK 923 INTER-LIGAND FREE ENERGY PREDICTED BY IDOCK:   -6.74 KCAL/MOL
REMARK 924 INTRA-LIGAND FREE ENERGY PREDICTED BY IDOCK:   -0.64 KCAL/MOL
REMARK 927      BINDING AFFINITY PREDICTED BY RF-SCORE:    0.00 PKD
ROOT
HETATM    1  C   UNL     1     -11.280   6.579  69.725  1.00  0.00    -0.456 C  
HETATM    2  C   UNL     1     -10.406   6.826  68.495  1.00  0.00    -0.190 C  
HETATM    3  O   UNL     1      -9.702   8.082  68.635  1.00  0.00    -0.154 OA 
HETATM    4  C   UNL     1      -9.287   5.757  68.515  1.00  0.00    -0.121 C  
HETATM    5  C   UNL     1     -11.151   6.628  67.169  1.00  0.00    -0.427 C  
HETATM    6  O   UNL     1      -8.036   6.283  68.480  1.00  0.00    -0.103 OA 
HETATM    7  O   UNL     1      -9.478   4.549  68.539  1.00  0.00    -0.135 OA 
ENDROOT
BRANCH   3   8
HETATM    8  C   UNL     1     -10.188   9.247  68.125  1.00  0.00    -0.205 A  
HETATM    9  C   UNL     1     -11.071  10.116  68.758  1.00  0.00    -0.250 A  
HETATM   10  C   UNL     1     -11.542  11.249  68.086  1.00  0.00    -0.359 A  
HETATM   11  C   UNL     1     -11.111  11.529  66.785  1.00  0.00    -0.361 A  
HETATM   12  C   UNL     1      -9.691   9.578  66.860  1.00  0.00    -0.237 A  
HETATM   13  C   UNL     1     -10.141  10.718  66.192  1.00  0.00    -0.297 A  
BRANCH  11  14
HETATM   14  C   UNL     1     -11.695  12.696  66.079  1.00  0.00    -0.417 C  
HETATM   15  O   UNL     1     -12.572  12.501  65.241  1.00  0.00    -0.645 OA 
BRANCH  14  16
HETATM   16  C   UNL     1     -11.217  14.086  66.325  1.00  0.00    -0.320 A  
HETATM   17  C   UNL     1     -11.490  14.672  67.570  1.00  0.00    -0.378 A  
HETATM   18  C   UNL     1     -11.102  15.987  67.830  1.00  0.00    -0.307 A  
HETATM   19  C   UNL     1     -10.445  16.726  66.846  1.00  0.00    -0.269 A  
HETATM   20  C   UNL     1     -10.171  16.156  65.605  1.00  0.00    -0.390 A  
HETATM   21 CL   UNL     1      -9.988  18.354  67.157  1.00  0.00    -0.329 Cl 
HETATM   22  C   UNL     1     -10.567  14.841  65.338  1.00  0.00    -0.395 A  
ENDBRANCH  14  16
ENDBRANCH  11  14
ENDBRANCH   3   8
TORSDOF 3
ENDMDL
MODEL       43
REMARK 921   NORMALIZED FREE ENERGY PREDICTED BY IDOCK:   -5.74 KCAL/MOL
REMARK 922        TOTAL FREE ENERGY PREDICTED BY IDOCK:   -7.37 KCAL/MOL
REMARK 923 INTER-LIGAND FREE ENERGY PREDICTED BY IDOCK:   -7.03 KCAL/MOL
REMARK 924 INTRA-LIGAND FREE ENERGY PREDICTED BY IDOCK:   -0.34 KCAL/MOL
REMARK 927      BINDING AFFINITY PREDICTED BY RF-SCORE:    0.00 PKD
ROOT
HETATM    1  C   UNL     1     -11.923  13.505  63.343  1.00  0.00    -0.314 C  
HETATM    2  C   UNL     1     -11.582  13.961  64.762  1.00  0.00    -0.374 C  
HETATM    3  O   UNL     1     -10.425  13.240  65.248  1.00  0.00    -0.294 OA 
HETATM    4  C   UNL     1     -11.103  15.429  64.661  1.00  0.00    -0.347 C  
HETATM    5  C   UNL     1     -12.794  13.981  65.703  1.00  0.00    -0.442 C  
HETATM    6  O   UNL     1      -9.869  15.633  65.192  1.00  0.00    -0.337 OA 
HETATM    7  O   UNL     1     -11.754  16.343  64.175  1.00  0.00    -0.921 OA 
ENDROOT
BRANCH   3   8
HETATM    8  C   UNL     1     -10.537  12.102  65.986  1.00  0.00    -0.257 A  
HETATM    9  C   UNL     1     -11.245  11.960  67.176  1.00  0.00    -0.377 A  
HETATM   10  C   UNL     1     -11.218  10.743  67.866  1.00  0.00    -0.386 A  
HETATM   11  C   UNL     1     -10.503   9.655  67.353  1.00  0.00    -0.319 A  
HETATM   12  C   UNL     1      -9.899  10.988  65.433  1.00  0.00    -0.301 A  
HETATM   13  C   UNL     1      -9.886   9.765  66.106  1.00  0.00    -0.329 A  
BRANCH  11  14
HETATM   14  C   UNL     1     -10.436   8.409  68.155  1.00  0.00    -0.174 C  
HETATM   15  O   UNL     1     -10.733   7.345  67.617  1.00  0.00    -0.237 OA 
BRANCH  14  16
HETATM   16  C   UNL     1     -10.065   8.419  69.598  1.00  0.00    -0.199 A  
HETATM   17  C   UNL     1      -8.714   8.587  69.935  1.00  0.00    -0.132 A  
HETATM   18  C   UNL     1      -8.312   8.558  71.272  1.00  0.00    -0.193 A  
HETATM   19  C   UNL     1      -9.257   8.355  72.277  1.00  0.00    -0.259 A  
HETATM   20  C   UNL     1     -10.601   8.183  71.955  1.00  0.00    -0.324 A  
HETATM   21 CL   UNL     1      -8.760   8.294  73.923  1.00  0.00    -0.260 Cl 
HETATM   22  C   UNL     1     -11.005   8.203  70.616  1.00  0.00    -0.255 A  
ENDBRANCH  14  16
ENDBRANCH  11  14
ENDBRANCH   3   8
TORSDOF 3
ENDMDL
MODEL       44
REMARK 921   NORMALIZED FREE ENERGY PREDICTED BY IDOCK:   -5.74 KCAL/MOL
REMARK 922        TOTAL FREE ENERGY PREDICTED BY IDOCK:   -7.37 KCAL/MOL
REMARK 923 INTER-LIGAND FREE ENERGY PREDICTED BY IDOCK:   -6.61 KCAL/MOL
REMARK 924 INTRA-LIGAND FREE ENERGY PREDICTED BY IDOCK:   -0.76 KCAL/MOL
REMARK 927      BINDING AFFINITY PREDICTED BY RF-SCORE:    0.00 PKD
ROOT
HETATM    1  C   UNL     1      -8.315  18.094  68.336  1.00  0.00    -0.311 C  
HETATM    2  C   UNL     1      -9.185  17.720  67.135  1.00  0.00    -0.253 C  
HETATM    3  O   UNL     1     -10.456  17.198  67.590  1.00  0.00    -0.335 OA 
HETATM    4  C   UNL     1      -9.550  19.039  66.414  1.00  0.00    -0.353 C  
HETATM    5  C   UNL     1      -8.451  16.863  66.095  1.00  0.00    -0.281 C  
HETATM    6  O   UNL     1     -10.887  19.225  66.270  1.00  0.00    -0.383 OA 
HETATM    7  O   UNL     1      -8.738  19.847  65.985  1.00  0.00    -0.366 OA 
ENDROOT
BRANCH   3   8
HETATM    8  C   UNL     1     -10.675  15.865  67.756  1.00  0.00    -0.320 A  
HETATM    9  C   UNL     1     -10.165  15.070  68.778  1.00  0.00    -0.235 A  
HETATM   10  C   UNL     1     -10.420  13.694  68.788  1.00  0.00    -0.214 A  
HETATM   11  C   UNL     1     -11.206  13.113  67.787  1.00  0.00    -0.308 A  
HETATM   12  C   UNL     1     -11.533  15.297  66.810  1.00  0.00    -0.123 A  
HETATM   13  C   UNL     1     -11.807  13.928  66.826  1.00  0.00    -0.452 A  
BRANCH  11  14
HETATM   14  C   UNL     1     -11.385  11.640  67.790  1.00  0.00    -0.288 C  
HETATM   15  O   UNL     1     -12.145  11.140  68.615  1.00  0.00    -0.556 OA 
BRANCH  14  16
HETATM   16  C   UNL     1     -10.637  10.754  66.854  1.00  0.00    -0.312 A  
HETATM   17  C   UNL     1     -10.375   9.436  67.255  1.00  0.00    -0.325 A  
HETATM   18  C   UNL     1      -9.639   8.582  66.432  1.00  0.00    -0.314 A  
HETATM   19  C   UNL     1      -9.155   9.043  65.207  1.00  0.00    -0.167 A  
HETATM   20  C   UNL     1      -9.405  10.352  64.800  1.00  0.00    -0.301 A  
HETATM   21 CL   UNL     1      -8.227   8.000  64.203  1.00  0.00    -0.106 Cl 
HETATM   22  C   UNL     1     -10.135  11.212  65.627  1.00  0.00    -0.304 A  
ENDBRANCH  14  16
ENDBRANCH  11  14
ENDBRANCH   3   8
TORSDOF 3
ENDMDL
MODEL       45
REMARK 921   NORMALIZED FREE ENERGY PREDICTED BY IDOCK:   -5.72 KCAL/MOL
REMARK 922        TOTAL FREE ENERGY PREDICTED BY IDOCK:   -7.34 KCAL/MOL
REMARK 923 INTER-LIGAND FREE ENERGY PREDICTED BY IDOCK:   -7.23 KCAL/MOL
REMARK 924 INTRA-LIGAND FREE ENERGY PREDICTED BY IDOCK:   -0.12 KCAL/MOL
REMARK 927      BINDING AFFINITY PREDICTED BY RF-SCORE:    0.00 PKD
ROOT
HETATM    1  C   UNL     1     -12.449  14.127  65.373  1.00  0.00    -0.488 C  
HETATM    2  C   UNL     1     -11.429  14.484  66.455  1.00  0.00    -0.360 C  
HETATM    3  O   UNL     1     -10.824  13.279  66.980  1.00  0.00    -0.265 OA 
HETATM    4  C   UNL     1     -10.264  15.221  65.752  1.00  0.00    -0.349 C  
HETATM    5  C   UNL     1     -11.972  15.464  67.504  1.00  0.00     0.201 C  
HETATM    6  O   UNL     1      -9.052  14.648  65.970  1.00  0.00    -0.182 OA 
HETATM    7  O   UNL     1     -10.386  16.234  65.077  1.00  0.00    -0.593 OA 
ENDROOT
BRANCH   3   8
HETATM    8  C   UNL     1     -11.302  12.651  68.089  1.00  0.00    -0.290 A  
HETATM    9  C   UNL     1     -11.743  13.267  69.256  1.00  0.00    -0.380 A  
HETATM   10  C   UNL     1     -12.147  12.491  70.348  1.00  0.00    -0.380 A  
HETATM   11  C   UNL     1     -12.134  11.094  70.266  1.00  0.00    -0.462 A  
HETATM   12  C   UNL     1     -11.375  11.259  67.980  1.00  0.00    -0.372 A  
HETATM   13  C   UNL     1     -11.797  10.479  69.059  1.00  0.00    -0.183 A  
BRANCH  11  14
HETATM   14  C   UNL     1     -12.494  10.309  71.472  1.00  0.00    -0.422 C  
HETATM   15  O   UNL     1     -13.222  10.826  72.317  1.00  0.00    -0.402 OA 
BRANCH  14  16
HETATM   16  C   UNL     1     -11.962   8.937  71.707  1.00  0.00    -0.429 A  
HETATM   17  C   UNL     1     -10.603   8.797  72.024  1.00  0.00    -0.414 A  
HETATM   18  C   UNL     1     -10.050   7.529  72.208  1.00  0.00    -0.244 A  
HETATM   19  C   UNL     1     -10.850   6.395  72.071  1.00  0.00    -0.239 A  
HETATM   20  C   UNL     1     -12.200   6.521  71.753  1.00  0.00    -0.374 A  
HETATM   21 CL   UNL     1     -10.164   4.831  72.273  1.00  0.00    -0.244 Cl 
HETATM   22  C   UNL     1     -12.756   7.790  71.559  1.00  0.00    -0.355 A  
ENDBRANCH  14  16
ENDBRANCH  11  14
ENDBRANCH   3   8
TORSDOF 3
ENDMDL
MODEL       46
REMARK 921   NORMALIZED FREE ENERGY PREDICTED BY IDOCK:   -5.71 KCAL/MOL
REMARK 922        TOTAL FREE ENERGY PREDICTED BY IDOCK:   -7.33 KCAL/MOL
REMARK 923 INTER-LIGAND FREE ENERGY PREDICTED BY IDOCK:   -6.53 KCAL/MOL
REMARK 924 INTRA-LIGAND FREE ENERGY PREDICTED BY IDOCK:   -0.80 KCAL/MOL
REMARK 927      BINDING AFFINITY PREDICTED BY RF-SCORE:    0.00 PKD
ROOT
HETATM    1  C   UNL     1      -9.577   4.092  69.212  1.00  0.00    -0.247 C  
HETATM    2  C   UNL     1      -8.832   5.336  69.697  1.00  0.00    -0.107 C  
HETATM    3  O   UNL     1      -9.229   5.651  71.053  1.00  0.00    -0.149 OA 
HETATM    4  C   UNL     1      -7.339   4.951  69.817  1.00  0.00    -0.056 C  
HETATM    5  C   UNL     1      -8.886   6.504  68.703  1.00  0.00    -0.121 C  
HETATM    6  O   UNL     1      -6.819   5.177  71.051  1.00  0.00    -0.044 OA 
HETATM    7  O   UNL     1      -6.658   4.504  68.903  1.00  0.00    -0.042 OA 
ENDROOT
BRANCH   3   8
HETATM    8  C   UNL     1     -10.228   6.533  71.330  1.00  0.00    -0.197 A  
HETATM    9  C   UNL     1     -11.578   6.365  71.036  1.00  0.00    -0.386 A  
HETATM   10  C   UNL     1     -12.489   7.389  71.320  1.00  0.00    -0.381 A  
HETATM   11  C   UNL     1     -12.055   8.575  71.921  1.00  0.00    -0.411 A  
HETATM   12  C   UNL     1      -9.814   7.682  72.012  1.00  0.00    -0.211 A  
HETATM   13  C   UNL     1     -10.722   8.698  72.316  1.00  0.00    -0.383 A  
BRANCH  11  14
HETATM   14  C   UNL     1     -13.039   9.665  72.132  1.00  0.00    -0.431 C  
HETATM   15  O   UNL     1     -14.084   9.410  72.726  1.00  0.00    -0.417 OA 
BRANCH  14  16
HETATM   16  C   UNL     1     -12.814  11.041  71.606  1.00  0.00    -0.540 A  
HETATM   17  C   UNL     1     -13.367  12.120  72.312  1.00  0.00    -0.316 A  
HETATM   18  C   UNL     1     -13.222  13.423  71.834  1.00  0.00    -0.522 A  
HETATM   19  C   UNL     1     -12.530  13.655  70.645  1.00  0.00    -0.347 A  
HETATM   20  C   UNL     1     -11.979  12.591  69.933  1.00  0.00    -0.371 A  
HETATM   21 CL   UNL     1     -12.371  15.257  70.041  1.00  0.00    -0.374 Cl 
HETATM   22  C   UNL     1     -12.131  11.283  70.406  1.00  0.00    -0.474 A  
ENDBRANCH  14  16
ENDBRANCH  11  14
ENDBRANCH   3   8
TORSDOF 3
ENDMDL
MODEL       47
REMARK 921   NORMALIZED FREE ENERGY PREDICTED BY IDOCK:   -5.64 KCAL/MOL
REMARK 922        TOTAL FREE ENERGY PREDICTED BY IDOCK:   -7.25 KCAL/MOL
REMARK 923 INTER-LIGAND FREE ENERGY PREDICTED BY IDOCK:   -6.60 KCAL/MOL
REMARK 924 INTRA-LIGAND FREE ENERGY PREDICTED BY IDOCK:   -0.65 KCAL/MOL
REMARK 927      BINDING AFFINITY PREDICTED BY RF-SCORE:    0.00 PKD
ROOT
HETATM    1  C   UNL     1     -12.058  13.287  63.209  1.00  0.00    -0.407 C  
HETATM    2  C   UNL     1     -11.802  13.847  64.609  1.00  0.00    -0.407 C  
HETATM    3  O   UNL     1     -10.564  13.313  65.135  1.00  0.00    -0.304 OA 
HETATM    4  C   UNL     1     -11.526  15.360  64.447  1.00  0.00    -0.255 C  
HETATM    5  C   UNL     1     -13.017  13.740  65.539  1.00  0.00    -0.363 C  
HETATM    6  O   UNL     1     -10.339  15.754  64.978  1.00  0.00    -0.468 OA 
HETATM    7  O   UNL     1     -12.289  16.155  63.916  1.00  0.00    -0.895 OA 
ENDROOT
BRANCH   3   8
HETATM    8  C   UNL     1     -10.529  12.202  65.922  1.00  0.00    -0.254 A  
HETATM    9  C   UNL     1     -10.707  12.167  67.302  1.00  0.00    -0.264 A  
HETATM   10  C   UNL     1     -10.578  10.958  67.994  1.00  0.00    -0.239 A  
HETATM   11  C   UNL     1     -10.294   9.774  67.303  1.00  0.00    -0.308 A  
HETATM   12  C   UNL     1     -10.335  11.005  65.226  1.00  0.00    -0.338 A  
HETATM   13  C   UNL     1     -10.226   9.792  65.909  1.00  0.00    -0.245 A  
BRANCH  11  14
HETATM   14  C   UNL     1     -10.087   8.529  68.083  1.00  0.00    -0.200 C  
HETATM   15  O   UNL     1     -10.104   8.592  69.310  1.00  0.00    -0.190 OA 
BRANCH  14  16
HETATM   16  C   UNL     1      -9.816   7.222  67.422  1.00  0.00    -0.206 A  
HETATM   17  C   UNL     1     -10.908   6.404  67.095  1.00  0.00    -0.467 A  
HETATM   18  C   UNL     1     -10.701   5.151  66.516  1.00  0.00    -0.262 A  
HETATM   19  C   UNL     1      -9.403   4.706  66.267  1.00  0.00    -0.151 A  
HETATM   20  C   UNL     1      -8.311   5.507  66.590  1.00  0.00    -0.109 A  
HETATM   21 CL   UNL     1      -9.146   3.152  65.577  1.00  0.00    -0.148 Cl 
HETATM   22  C   UNL     1      -8.514   6.760  67.179  1.00  0.00    -0.120 A  
ENDBRANCH  14  16
ENDBRANCH  11  14
ENDBRANCH   3   8
TORSDOF 3
ENDMDL
MODEL       48
REMARK 921   NORMALIZED FREE ENERGY PREDICTED BY IDOCK:   -5.61 KCAL/MOL
REMARK 922        TOTAL FREE ENERGY PREDICTED BY IDOCK:   -7.22 KCAL/MOL
REMARK 923 INTER-LIGAND FREE ENERGY PREDICTED BY IDOCK:   -6.65 KCAL/MOL
REMARK 924 INTRA-LIGAND FREE ENERGY PREDICTED BY IDOCK:   -0.57 KCAL/MOL
REMARK 927      BINDING AFFINITY PREDICTED BY RF-SCORE:    0.00 PKD
ROOT
HETATM    1  C   UNL     1     -11.325  13.195  63.907  1.00  0.00    -0.420 C  
HETATM    2  C   UNL     1     -11.511  14.091  65.131  1.00  0.00    -0.328 C  
HETATM    3  O   UNL     1     -10.551  13.735  66.154  1.00  0.00    -0.284 OA 
HETATM    4  C   UNL     1     -11.107  15.523  64.709  1.00  0.00    -0.407 C  
HETATM    5  C   UNL     1     -12.970  14.188  65.598  1.00  0.00    -0.284 C  
HETATM    6  O   UNL     1     -10.140  16.066  65.494  1.00  0.00    -0.382 OA 
HETATM    7  O   UNL     1     -11.603  16.142  63.778  1.00  0.00    -0.803 OA 
ENDROOT
BRANCH   3   8
HETATM    8  C   UNL     1     -10.844  12.856  67.152  1.00  0.00    -0.256 A  
HETATM    9  C   UNL     1     -11.149  13.182  68.470  1.00  0.00    -0.296 A  
HETATM   10  C   UNL     1     -11.366  12.167  69.409  1.00  0.00    -0.311 A  
HETATM   11  C   UNL     1     -11.302  10.823  69.026  1.00  0.00    -0.349 A  
HETATM   12  C   UNL     1     -10.870  11.516  66.753  1.00  0.00    -0.330 A  
HETATM   13  C   UNL     1     -11.106  10.500  67.681  1.00  0.00    -0.375 A  
BRANCH  11  14
HETATM   14  C   UNL     1     -11.459   9.780  70.068  1.00  0.00    -0.180 C  
HETATM   15  O   UNL     1     -12.059  10.064  71.102  1.00  0.00    -0.322 OA 
BRANCH  14  16
HETATM   16  C   UNL     1     -10.874   8.418  69.914  1.00  0.00    -0.207 A  
HETATM   17  C   UNL     1     -11.721   7.310  70.062  1.00  0.00    -0.022 A  
HETATM   18  C   UNL     1     -11.210   6.015  69.972  1.00  0.00    -0.425 A  
HETATM   19  C   UNL     1      -9.848   5.819  69.740  1.00  0.00    -0.178 A  
HETATM   20  C   UNL     1      -8.996   6.912  69.595  1.00  0.00    -0.144 A  
HETATM   21 CL   UNL     1      -9.212   4.224  69.653  1.00  0.00    -0.184 Cl 
HETATM   22  C   UNL     1      -9.504   8.211  69.694  1.00  0.00    -0.159 A  
ENDBRANCH  14  16
ENDBRANCH  11  14
ENDBRANCH   3   8
TORSDOF 3
ENDMDL
MODEL       49
REMARK 921   NORMALIZED FREE ENERGY PREDICTED BY IDOCK:   -5.58 KCAL/MOL
REMARK 922        TOTAL FREE ENERGY PREDICTED BY IDOCK:   -7.17 KCAL/MOL
REMARK 923 INTER-LIGAND FREE ENERGY PREDICTED BY IDOCK:   -6.46 KCAL/MOL
REMARK 924 INTRA-LIGAND FREE ENERGY PREDICTED BY IDOCK:   -0.71 KCAL/MOL
REMARK 927      BINDING AFFINITY PREDICTED BY RF-SCORE:    0.00 PKD
ROOT
HETATM    1  C   UNL     1      -8.452   9.526  65.529  1.00  0.00    -0.150 C  
HETATM    2  C   UNL     1      -9.330   9.313  66.762  1.00  0.00    -0.156 C  
HETATM    3  O   UNL     1     -10.644   9.876  66.536  1.00  0.00    -0.176 OA 
HETATM    4  C   UNL     1      -9.582   7.791  66.880  1.00  0.00    -0.198 C  
HETATM    5  C   UNL     1      -8.650   9.727  68.074  1.00  0.00    -0.122 C  
HETATM    6  O   UNL     1     -10.899   7.461  66.912  1.00  0.00    -0.357 OA 
HETATM    7  O   UNL     1      -8.704   6.943  66.958  1.00  0.00    -0.116 OA 
ENDROOT
BRANCH   3   8
HETATM    8  C   UNL     1     -10.968  11.141  66.921  1.00  0.00    -0.273 A  
HETATM    9  C   UNL     1     -10.839  12.292  66.150  1.00  0.00    -0.314 A  
HETATM   10  C   UNL     1     -11.150  13.541  66.700  1.00  0.00    -0.309 A  
HETATM   11  C   UNL     1     -11.614  13.638  68.016  1.00  0.00    -0.368 A  
HETATM   12  C   UNL     1     -11.517  11.233  68.204  1.00  0.00    -0.376 A  
HETATM   13  C   UNL     1     -11.848  12.474  68.751  1.00  0.00    -0.347 A  
BRANCH  11  14
HETATM   14  C   UNL     1     -11.855  14.987  68.586  1.00  0.00    -0.296 C  
HETATM   15  O   UNL     1     -11.801  15.961  67.839  1.00  0.00    -0.111 OA 
BRANCH  14  16
HETATM   16  C   UNL     1     -12.114  15.193  70.039  1.00  0.00    -0.384 A  
HETATM   17  C   UNL     1     -11.014  15.362  70.892  1.00  0.00    -0.330 A  
HETATM   18  C   UNL     1     -11.205  15.513  72.267  1.00  0.00    -0.240 A  
HETATM   19  C   UNL     1     -12.496  15.491  72.796  1.00  0.00    -0.418 A  
HETATM   20  C   UNL     1     -13.596  15.320  71.958  1.00  0.00    -0.571 A  
HETATM   21 CL   UNL     1     -12.731  15.652  74.491  1.00  0.00    -0.548 Cl 
HETATM   22  C   UNL     1     -13.407  15.159  70.582  1.00  0.00    -0.304 A  
ENDBRANCH  14  16
ENDBRANCH  11  14
ENDBRANCH   3   8
TORSDOF 3
ENDMDL
MODEL       50
REMARK 921   NORMALIZED FREE ENERGY PREDICTED BY IDOCK:   -5.56 KCAL/MOL
REMARK 922        TOTAL FREE ENERGY PREDICTED BY IDOCK:   -7.15 KCAL/MOL
REMARK 923 INTER-LIGAND FREE ENERGY PREDICTED BY IDOCK:   -6.41 KCAL/MOL
REMARK 924 INTRA-LIGAND FREE ENERGY PREDICTED BY IDOCK:   -0.74 KCAL/MOL
REMARK 927      BINDING AFFINITY PREDICTED BY RF-SCORE:    0.00 PKD
ROOT
HETATM    1  C   UNL     1      -7.033   8.649  65.094  1.00  0.00    -0.072 C  
HETATM    2  C   UNL     1      -7.885   8.676  66.364  1.00  0.00    -0.099 C  
HETATM    3  O   UNL     1      -9.289   8.693  66.016  1.00  0.00    -0.212 OA 
HETATM    4  C   UNL     1      -7.684   7.314  67.071  1.00  0.00    -0.111 C  
HETATM    5  C   UNL     1      -7.439   9.742  67.374  1.00  0.00    -0.091 C  
HETATM    6  O   UNL     1      -8.845   6.649  67.305  1.00  0.00    -0.117 OA 
HETATM    7  O   UNL     1      -6.601   6.861  67.417  1.00  0.00    -0.047 OA 
ENDROOT
BRANCH   3   8
HETATM    8  C   UNL     1      -9.995   9.853  65.905  1.00  0.00    -0.277 A  
HETATM    9  C   UNL     1     -10.129  10.625  64.755  1.00  0.00    -0.412 A  
HETATM   10  C   UNL     1     -10.832  11.834  64.802  1.00  0.00    -0.358 A  
HETATM   11  C   UNL     1     -11.424  12.261  65.996  1.00  0.00    -0.434 A  
HETATM   12  C   UNL     1     -10.664  10.238  67.071  1.00  0.00    -0.281 A  
HETATM   13  C   UNL     1     -11.384  11.433  67.119  1.00  0.00    -0.327 A  
BRANCH  11  14
HETATM   14  C   UNL     1     -12.092  13.586  66.022  1.00  0.00    -0.445 C  
HETATM   15  O   UNL     1     -13.159  13.721  65.427  1.00  0.00    -0.727 OA 
BRANCH  14  16
HETATM   16  C   UNL     1     -11.485  14.761  66.708  1.00  0.00    -0.343 A  
HETATM   17  C   UNL     1     -11.779  14.963  68.065  1.00  0.00    -0.344 A  
HETATM   18  C   UNL     1     -11.271  16.075  68.738  1.00  0.00    -0.360 A  
HETATM   19  C   UNL     1     -10.470  16.993  68.059  1.00  0.00    -0.353 A  
HETATM   20  C   UNL     1     -10.174  16.805  66.710  1.00  0.00    -0.304 A  
HETATM   21 CL   UNL     1      -9.863  18.376  68.880  1.00  0.00    -0.375 Cl 
HETATM   22  C   UNL     1     -10.690  15.697  66.031  1.00  0.00    -0.322 A  
ENDBRANCH  14  16
ENDBRANCH  11  14
ENDBRANCH   3   8
TORSDOF 3
ENDMDL
MODEL       51
REMARK 921   NORMALIZED FREE ENERGY PREDICTED BY IDOCK:   -5.56 KCAL/MOL
REMARK 922        TOTAL FREE ENERGY PREDICTED BY IDOCK:   -7.15 KCAL/MOL
REMARK 923 INTER-LIGAND FREE ENERGY PREDICTED BY IDOCK:   -6.51 KCAL/MOL
REMARK 924 INTRA-LIGAND FREE ENERGY PREDICTED BY IDOCK:   -0.65 KCAL/MOL
REMARK 927      BINDING AFFINITY PREDICTED BY RF-SCORE:    0.00 PKD
ROOT
HETATM    1  C   UNL     1      -8.365  16.444  66.217  1.00  0.00    -0.362 C  
HETATM    2  C   UNL     1      -9.871  16.330  66.452  1.00  0.00    -0.291 C  
HETATM    3  O   UNL     1     -10.128  15.563  67.652  1.00  0.00    -0.239 OA 
HETATM    4  C   UNL     1     -10.385  17.750  66.790  1.00  0.00    -0.343 C  
HETATM    5  C   UNL     1     -10.650  15.890  65.205  1.00  0.00    -0.441 C  
HETATM    6  O   UNL     1     -11.047  17.819  67.974  1.00  0.00    -0.195 OA 
HETATM    7  O   UNL     1     -10.242  18.732  66.074  1.00  0.00    -0.455 OA 
ENDROOT
BRANCH   3   8
HETATM    8  C   UNL     1     -10.356  14.221  67.621  1.00  0.00    -0.248 A  
HETATM    9  C   UNL     1     -11.599  13.601  67.539  1.00  0.00    -0.384 A  
HETATM   10  C   UNL     1     -11.689  12.205  67.583  1.00  0.00    -0.386 A  
HETATM   11  C   UNL     1     -10.532  11.425  67.684  1.00  0.00    -0.225 A  
HETATM   12  C   UNL     1      -9.198  13.437  67.631  1.00  0.00    -0.212 A  
HETATM   13  C   UNL     1      -9.281  12.043  67.654  1.00  0.00    -0.182 A  
BRANCH  11  14
HETATM   14  C   UNL     1     -10.677   9.954  67.808  1.00  0.00    -0.277 C  
HETATM   15  O   UNL     1     -10.777   9.282  66.784  1.00  0.00    -0.176 OA 
BRANCH  14  16
HETATM   16  C   UNL     1     -10.751   9.278  69.134  1.00  0.00    -0.202 A  
HETATM   17  C   UNL     1     -10.980  10.068  70.270  1.00  0.00    -0.377 A  
HETATM   18  C   UNL     1     -11.012   9.486  71.539  1.00  0.00    -0.369 A  
HETATM   19  C   UNL     1     -10.808   8.113  71.679  1.00  0.00    -0.249 A  
HETATM   20  C   UNL     1     -10.576   7.319  70.558  1.00  0.00    -0.237 A  
HETATM   21 CL   UNL     1     -10.822   7.398  73.243  1.00  0.00    -0.437 Cl 
HETATM   22  C   UNL     1     -10.534   7.901  69.287  1.00  0.00    -0.221 A  
ENDBRANCH  14  16
ENDBRANCH  11  14
ENDBRANCH   3   8
TORSDOF 3
ENDMDL
MODEL       52
REMARK 921   NORMALIZED FREE ENERGY PREDICTED BY IDOCK:   -5.54 KCAL/MOL
REMARK 922        TOTAL FREE ENERGY PREDICTED BY IDOCK:   -7.14 KCAL/MOL
REMARK 923 INTER-LIGAND FREE ENERGY PREDICTED BY IDOCK:   -6.49 KCAL/MOL
REMARK 924 INTRA-LIGAND FREE ENERGY PREDICTED BY IDOCK:   -0.65 KCAL/MOL
REMARK 927      BINDING AFFINITY PREDICTED BY RF-SCORE:    0.00 PKD
ROOT
HETATM    1  C   UNL     1     -11.876  14.153  67.234  1.00  0.00    -0.452 C  
HETATM    2  C   UNL     1     -10.964  12.984  66.859  1.00  0.00    -0.265 C  
HETATM    3  O   UNL     1     -11.669  11.732  67.034  1.00  0.00    -0.555 OA 
HETATM    4  C   UNL     1     -10.718  13.074  65.335  1.00  0.00    -0.291 C  
HETATM    5  C   UNL     1      -9.577  13.060  67.512  1.00  0.00    -0.204 C  
HETATM    6  O   UNL     1     -11.055  11.942  64.664  1.00  0.00    -0.303 OA 
HETATM    7  O   UNL     1     -10.249  14.047  64.760  1.00  0.00    -0.416 OA 
ENDROOT
BRANCH   3   8
HETATM    8  C   UNL     1     -11.588  11.008  68.184  1.00  0.00    -0.272 A  
HETATM    9  C   UNL     1     -10.825   9.861  68.380  1.00  0.00    -0.263 A  
HETATM   10  C   UNL     1     -10.889   9.177  69.600  1.00  0.00    -0.210 A  
HETATM   11  C   UNL     1     -11.700   9.654  70.636  1.00  0.00    -0.353 A  
HETATM   12  C   UNL     1     -12.326  11.530  69.251  1.00  0.00    -0.121 A  
HETATM   13  C   UNL     1     -12.378  10.864  70.477  1.00  0.00    -0.463 A  
BRANCH  11  14
HETATM   14  C   UNL     1     -11.800   8.857  71.883  1.00  0.00    -0.370 C  
HETATM   15  O   UNL     1     -12.807   8.973  72.577  1.00  0.00    -0.404 OA 
BRANCH  14  16
HETATM   16  C   UNL     1     -10.700   7.960  72.335  1.00  0.00    -0.367 A  
HETATM   17  C   UNL     1     -10.927   6.576  72.331  1.00  0.00    -0.279 A  
HETATM   18  C   UNL     1      -9.943   5.699  72.789  1.00  0.00    -0.195 A  
HETATM   19  C   UNL     1      -8.730   6.200  73.259  1.00  0.00    -0.123 A  
HETATM   20  C   UNL     1      -8.494   7.573  73.272  1.00  0.00    -0.181 A  
HETATM   21 CL   UNL     1      -7.525   5.122  73.847  1.00  0.00    -0.086 Cl 
HETATM   22  C   UNL     1      -9.482   8.455  72.822  1.00  0.00    -0.312 A  
ENDBRANCH  14  16
ENDBRANCH  11  14
ENDBRANCH   3   8
TORSDOF 3
ENDMDL
MODEL       53
REMARK 921   NORMALIZED FREE ENERGY PREDICTED BY IDOCK:   -5.52 KCAL/MOL
REMARK 922        TOTAL FREE ENERGY PREDICTED BY IDOCK:   -7.11 KCAL/MOL
REMARK 923 INTER-LIGAND FREE ENERGY PREDICTED BY IDOCK:   -6.48 KCAL/MOL
REMARK 924 INTRA-LIGAND FREE ENERGY PREDICTED BY IDOCK:   -0.63 KCAL/MOL
REMARK 927      BINDING AFFINITY PREDICTED BY RF-SCORE:    0.00 PKD
ROOT
HETATM    1  C   UNL     1     -12.147  14.024  68.911  1.00  0.00    -0.351 C  
HETATM    2  C   UNL     1     -11.485  13.001  67.988  1.00  0.00    -0.309 C  
HETATM    3  O   UNL     1     -12.154  11.723  68.107  1.00  0.00    -0.556 OA 
HETATM    4  C   UNL     1     -11.773  13.449  66.536  1.00  0.00    -0.373 C  
HETATM    5  C   UNL     1      -9.956  12.963  68.119  1.00  0.00    -0.234 C  
HETATM    6  O   UNL     1     -12.381  12.494  65.786  1.00  0.00    -0.627 OA 
HETATM    7  O   UNL     1     -11.478  14.541  66.071  1.00  0.00    -0.341 OA 
ENDROOT
BRANCH   3   8
HETATM    8  C   UNL     1     -11.722  10.754  68.961  1.00  0.00    -0.286 A  
HETATM    9  C   UNL     1     -10.803   9.751  68.669  1.00  0.00    -0.223 A  
HETATM   10  C   UNL     1     -10.501   8.778  69.627  1.00  0.00    -0.220 A  
HETATM   11  C   UNL     1     -11.099   8.820  70.891  1.00  0.00    -0.320 A  
HETATM   12  C   UNL     1     -12.249  10.845  70.254  1.00  0.00    -0.432 A  
HETATM   13  C   UNL     1     -11.935   9.888  71.221  1.00  0.00    -0.489 A  
BRANCH  11  14
HETATM   14  C   UNL     1     -10.811   7.725  71.849  1.00  0.00    -0.235 C  
HETATM   15  O   UNL     1     -11.335   7.760  72.960  1.00  0.00    -0.399 OA 
BRANCH  14  16
HETATM   16  C   UNL     1      -9.874   6.614  71.519  1.00  0.00    -0.182 A  
HETATM   17  C   UNL     1     -10.392   5.475  70.885  1.00  0.00    -0.310 A  
HETATM   18  C   UNL     1      -9.562   4.391  70.596  1.00  0.00    -0.262 A  
HETATM   19  C   UNL     1      -8.212   4.436  70.945  1.00  0.00    -0.079 A  
HETATM   20  C   UNL     1      -7.687   5.560  71.579  1.00  0.00    -0.106 A  
HETATM   21 CL   UNL     1      -7.193   3.091  70.613  1.00  0.00    -0.033 Cl 
HETATM   22  C   UNL     1      -8.519   6.645  71.877  1.00  0.00    -0.114 A  
ENDBRANCH  14  16
ENDBRANCH  11  14
ENDBRANCH   3   8
TORSDOF 3
ENDMDL
MODEL       54
REMARK 921   NORMALIZED FREE ENERGY PREDICTED BY IDOCK:   -5.48 KCAL/MOL
REMARK 922        TOTAL FREE ENERGY PREDICTED BY IDOCK:   -7.07 KCAL/MOL
REMARK 923 INTER-LIGAND FREE ENERGY PREDICTED BY IDOCK:   -6.50 KCAL/MOL
REMARK 924 INTRA-LIGAND FREE ENERGY PREDICTED BY IDOCK:   -0.57 KCAL/MOL
REMARK 927      BINDING AFFINITY PREDICTED BY RF-SCORE:    0.00 PKD
ROOT
HETATM    1  C   UNL     1     -10.126   3.848  71.851  1.00  0.00    -0.204 C  
HETATM    2  C   UNL     1      -9.429   4.870  70.954  1.00  0.00    -0.165 C  
HETATM    3  O   UNL     1      -9.120   6.063  71.713  1.00  0.00    -0.145 OA 
HETATM    4  C   UNL     1      -8.045   4.282  70.589  1.00  0.00    -0.063 C  
HETATM    5  C   UNL     1     -10.150   5.102  69.620  1.00  0.00    -0.332 C  
HETATM    6  O   UNL     1      -7.008   5.097  70.912  1.00  0.00    -0.051 OA 
HETATM    7  O   UNL     1      -7.869   3.201  70.044  1.00  0.00    -0.044 OA 
ENDROOT
BRANCH   3   8
HETATM    8  C   UNL     1      -9.955   7.139  71.745  1.00  0.00    -0.175 A  
HETATM    9  C   UNL     1     -11.221   7.180  72.321  1.00  0.00    -0.297 A  
HETATM   10  C   UNL     1     -11.998   8.339  72.221  1.00  0.00    -0.448 A  
HETATM   11  C   UNL     1     -11.501   9.470  71.564  1.00  0.00    -0.466 A  
HETATM   12  C   UNL     1      -9.426   8.299  71.170  1.00  0.00    -0.206 A  
HETATM   13  C   UNL     1     -10.189   9.465  71.085  1.00  0.00    -0.361 A  
BRANCH  11  14
HETATM   14  C   UNL     1     -12.387  10.649  71.412  1.00  0.00    -0.350 C  
HETATM   15  O   UNL     1     -13.345  10.770  72.172  1.00  0.00    -0.442 OA 
BRANCH  14  16
HETATM   16  C   UNL     1     -12.175  11.661  70.338  1.00  0.00    -0.434 A  
HETATM   17  C   UNL     1     -11.893  11.205  69.042  1.00  0.00    -0.418 A  
HETATM   18  C   UNL     1     -11.642  12.115  68.014  1.00  0.00    -0.411 A  
HETATM   19  C   UNL     1     -11.665  13.484  68.277  1.00  0.00    -0.359 A  
HETATM   20  C   UNL     1     -11.939  13.949  69.561  1.00  0.00    -0.396 A  
HETATM   21 CL   UNL     1     -11.331  14.606  67.017  1.00  0.00    -0.349 Cl 
HETATM   22  C   UNL     1     -12.182  13.039  70.595  1.00  0.00    -0.390 A  
ENDBRANCH  14  16
ENDBRANCH  11  14
ENDBRANCH   3   8
TORSDOF 3
ENDMDL
MODEL       55
REMARK 921   NORMALIZED FREE ENERGY PREDICTED BY IDOCK:   -5.46 KCAL/MOL
REMARK 922        TOTAL FREE ENERGY PREDICTED BY IDOCK:   -7.04 KCAL/MOL
REMARK 923 INTER-LIGAND FREE ENERGY PREDICTED BY IDOCK:   -6.23 KCAL/MOL
REMARK 924 INTRA-LIGAND FREE ENERGY PREDICTED BY IDOCK:   -0.81 KCAL/MOL
REMARK 927      BINDING AFFINITY PREDICTED BY RF-SCORE:    0.00 PKD
ROOT
HETATM    1  C   UNL     1     -10.675   7.805  73.012  1.00  0.00    -0.446 C  
HETATM    2  C   UNL     1     -11.042   7.036  71.742  1.00  0.00    -0.239 C  
HETATM    3  O   UNL     1      -9.995   7.184  70.754  1.00  0.00    -0.189 OA 
HETATM    4  C   UNL     1     -11.017   5.532  72.102  1.00  0.00    -0.231 C  
HETATM    5  C   UNL     1     -12.466   7.324  71.247  1.00  0.00    -0.402 C  
HETATM    6  O   UNL     1     -10.193   4.799  71.309  1.00  0.00    -0.197 OA 
HETATM    7  O   UNL     1     -11.677   5.017  72.994  1.00  0.00    -0.297 OA 
ENDROOT
BRANCH   3   8
HETATM    8  C   UNL     1     -10.034   8.150  69.795  1.00  0.00    -0.191 A  
HETATM    9  C   UNL     1      -9.817   9.511  69.990  1.00  0.00    -0.269 A  
HETATM   10  C   UNL     1      -9.955  10.402  68.920  1.00  0.00    -0.208 A  
HETATM   11  C   UNL     1     -10.286   9.930  67.645  1.00  0.00    -0.275 A  
HETATM   12  C   UNL     1     -10.276   7.673  68.503  1.00  0.00    -0.220 A  
HETATM   13  C   UNL     1     -10.394   8.555  67.427  1.00  0.00    -0.356 A  
BRANCH  11  14
HETATM   14  C   UNL     1     -10.500  10.915  66.557  1.00  0.00    -0.253 C  
HETATM   15  O   UNL     1     -10.520  10.517  65.395  1.00  0.00    -0.244 OA 
BRANCH  14  16
HETATM   16  C   UNL     1     -10.646  12.373  66.832  1.00  0.00    -0.251 A  
HETATM   17  C   UNL     1      -9.526  13.198  66.651  1.00  0.00    -0.260 A  
HETATM   18  C   UNL     1      -9.601  14.561  66.938  1.00  0.00    -0.258 A  
HETATM   19  C   UNL     1     -10.794  15.107  67.414  1.00  0.00    -0.302 A  
HETATM   20  C   UNL     1     -11.912  14.297  67.601  1.00  0.00    -0.400 A  
HETATM   21 CL   UNL     1     -10.882  16.782  67.792  1.00  0.00    -0.322 Cl 
HETATM   22  C   UNL     1     -11.837  12.928  67.322  1.00  0.00    -0.416 A  
ENDBRANCH  14  16
ENDBRANCH  11  14
ENDBRANCH   3   8
TORSDOF 3
ENDMDL
MODEL       56
REMARK 921   NORMALIZED FREE ENERGY PREDICTED BY IDOCK:   -5.43 KCAL/MOL
REMARK 922        TOTAL FREE ENERGY PREDICTED BY IDOCK:   -7.00 KCAL/MOL
REMARK 923 INTER-LIGAND FREE ENERGY PREDICTED BY IDOCK:   -6.47 KCAL/MOL
REMARK 924 INTRA-LIGAND FREE ENERGY PREDICTED BY IDOCK:   -0.53 KCAL/MOL
REMARK 927      BINDING AFFINITY PREDICTED BY RF-SCORE:    0.00 PKD
ROOT
HETATM    1  C   UNL     1     -10.727  16.769  67.857  1.00  0.00    -0.347 C  
HETATM    2  C   UNL     1     -10.302  16.208  66.500  1.00  0.00    -0.308 C  
HETATM    3  O   UNL     1     -11.114  15.059  66.164  1.00  0.00    -0.336 OA 
HETATM    4  C   UNL     1     -10.680  17.266  65.436  1.00  0.00    -0.066 C  
HETATM    5  C   UNL     1      -8.786  16.008  66.371  1.00  0.00    -0.362 C  
HETATM    6  O   UNL     1     -11.480  16.782  64.452  1.00  0.00    -1.024 OA 
HETATM    7  O   UNL     1     -10.296  18.428  65.440  1.00  0.00    -0.493 OA 
ENDROOT
BRANCH   3   8
HETATM    8  C   UNL     1     -10.724  13.786  66.451  1.00  0.00    -0.281 A  
HETATM    9  C   UNL     1     -10.423  12.791  65.527  1.00  0.00    -0.306 A  
HETATM   10  C   UNL     1     -10.099  11.502  65.966  1.00  0.00    -0.270 A  
HETATM   11  C   UNL     1     -10.052  11.212  67.334  1.00  0.00    -0.213 A  
HETATM   12  C   UNL     1     -10.588  13.517  67.817  1.00  0.00    -0.252 A  
HETATM   13  C   UNL     1     -10.245  12.238  68.261  1.00  0.00    -0.221 A  
BRANCH  11  14
HETATM   14  C   UNL     1      -9.782   9.816  67.755  1.00  0.00    -0.141 C  
HETATM   15  O   UNL     1      -9.609   8.962  66.889  1.00  0.00    -0.162 OA 
BRANCH  14  16
HETATM   16  C   UNL     1      -9.763   9.415  69.190  1.00  0.00    -0.165 A  
HETATM   17  C   UNL     1      -8.518   9.237  69.813  1.00  0.00    -0.152 A  
HETATM   18  C   UNL     1      -8.449   8.818  71.142  1.00  0.00    -0.233 A  
HETATM   19  C   UNL     1      -9.622   8.569  71.855  1.00  0.00    -0.283 A  
HETATM   20  C   UNL     1     -10.864   8.739  71.246  1.00  0.00    -0.347 A  
HETATM   21 CL   UNL     1      -9.539   8.029  73.485  1.00  0.00    -0.293 Cl 
HETATM   22  C   UNL     1     -10.936   9.150  69.911  1.00  0.00    -0.218 A  
ENDBRANCH  14  16
ENDBRANCH  11  14
ENDBRANCH   3   8
TORSDOF 3
ENDMDL
MODEL       57
REMARK 921   NORMALIZED FREE ENERGY PREDICTED BY IDOCK:   -5.43 KCAL/MOL
REMARK 922        TOTAL FREE ENERGY PREDICTED BY IDOCK:   -7.00 KCAL/MOL
REMARK 923 INTER-LIGAND FREE ENERGY PREDICTED BY IDOCK:   -6.33 KCAL/MOL
REMARK 924 INTRA-LIGAND FREE ENERGY PREDICTED BY IDOCK:   -0.67 KCAL/MOL
REMARK 927      BINDING AFFINITY PREDICTED BY RF-SCORE:    0.00 PKD
ROOT
HETATM    1  C   UNL     1     -13.271   7.012  71.672  1.00  0.00    -0.368 C  
HETATM    2  C   UNL     1     -11.764   7.247  71.575  1.00  0.00    -0.289 C  
HETATM    3  O   UNL     1     -11.462   8.637  71.846  1.00  0.00    -0.302 OA 
HETATM    4  C   UNL     1     -11.110   6.479  72.748  1.00  0.00    -0.245 C  
HETATM    5  C   UNL     1     -11.139   6.671  70.297  1.00  0.00    -0.379 C  
HETATM    6  O   UNL     1     -10.340   7.263  73.546  1.00  0.00    -0.321 OA 
HETATM    7  O   UNL     1     -11.237   5.280  72.953  1.00  0.00    -0.279 OA 
ENDROOT
BRANCH   3   8
HETATM    8  C   UNL     1     -11.346   9.561  70.853  1.00  0.00    -0.341 A  
HETATM    9  C   UNL     1     -10.207   9.812  70.093  1.00  0.00    -0.328 A  
HETATM   10  C   UNL     1     -10.210  10.842  69.147  1.00  0.00    -0.215 A  
HETATM   11  C   UNL     1     -11.362  11.610  68.941  1.00  0.00    -0.328 A  
HETATM   12  C   UNL     1     -12.520  10.271  70.582  1.00  0.00    -0.407 A  
HETATM   13  C   UNL     1     -12.535  11.287  69.625  1.00  0.00    -0.160 A  
BRANCH  11  14
HETATM   14  C   UNL     1     -11.298  12.744  67.986  1.00  0.00    -0.292 C  
HETATM   15  O   UNL     1     -11.989  12.700  66.972  1.00  0.00    -0.445 OA 
BRANCH  14  16
HETATM   16  C   UNL     1     -10.389  13.905  68.201  1.00  0.00    -0.247 A  
HETATM   17  C   UNL     1      -9.299  14.065  67.333  1.00  0.00    -0.220 A  
HETATM   18  C   UNL     1      -8.395  15.111  67.522  1.00  0.00    -0.188 A  
HETATM   19  C   UNL     1      -8.571  15.999  68.583  1.00  0.00    -0.206 A  
HETATM   20  C   UNL     1      -9.647  15.848  69.455  1.00  0.00    -0.265 A  
HETATM   21 CL   UNL     1      -7.444  17.274  68.832  1.00  0.00    -0.254 Cl 
HETATM   22  C   UNL     1     -10.550  14.795  69.273  1.00  0.00    -0.248 A  
ENDBRANCH  14  16
ENDBRANCH  11  14
ENDBRANCH   3   8
TORSDOF 3
ENDMDL
MODEL       58
REMARK 921   NORMALIZED FREE ENERGY PREDICTED BY IDOCK:   -5.36 KCAL/MOL
REMARK 922        TOTAL FREE ENERGY PREDICTED BY IDOCK:   -6.92 KCAL/MOL
REMARK 923 INTER-LIGAND FREE ENERGY PREDICTED BY IDOCK:   -6.40 KCAL/MOL
REMARK 924 INTRA-LIGAND FREE ENERGY PREDICTED BY IDOCK:   -0.52 KCAL/MOL
REMARK 927      BINDING AFFINITY PREDICTED BY RF-SCORE:    0.00 PKD
ROOT
HETATM    1  C   UNL     1     -10.789   5.541  70.056  1.00  0.00    -0.301 C  
HETATM    2  C   UNL     1      -9.935   6.363  69.090  1.00  0.00    -0.149 C  
HETATM    3  O   UNL     1      -9.387   7.516  69.773  1.00  0.00    -0.151 OA 
HETATM    4  C   UNL     1      -8.697   5.505  68.738  1.00  0.00    -0.102 C  
HETATM    5  C   UNL     1     -10.635   6.655  67.756  1.00  0.00    -0.311 C  
HETATM    6  O   UNL     1      -7.517   6.125  68.996  1.00  0.00    -0.083 OA 
HETATM    7  O   UNL     1      -8.742   4.382  68.253  1.00  0.00    -0.097 OA 
ENDROOT
BRANCH   3   8
HETATM    8  C   UNL     1     -10.003   8.730  69.756  1.00  0.00    -0.190 A  
HETATM    9  C   UNL     1     -11.152   9.079  70.459  1.00  0.00    -0.297 A  
HETATM   10  C   UNL     1     -11.715  10.349  70.294  1.00  0.00    -0.406 A  
HETATM   11  C   UNL     1     -11.115  11.283  69.443  1.00  0.00    -0.316 A  
HETATM   12  C   UNL     1      -9.357   9.695  68.977  1.00  0.00    -0.159 A  
HETATM   13  C   UNL     1      -9.903  10.971  68.825  1.00  0.00    -0.206 A  
BRANCH  11  14
HETATM   14  C   UNL     1     -11.788  12.589  69.236  1.00  0.00    -0.304 C  
HETATM   15  O   UNL     1     -12.073  12.931  68.090  1.00  0.00    -0.300 OA 
BRANCH  14  16
HETATM   16  C   UNL     1     -12.084  13.511  70.368  1.00  0.00    -0.415 A  
HETATM   17  C   UNL     1     -12.965  13.074  71.368  1.00  0.00    -0.373 A  
HETATM   18  C   UNL     1     -13.307  13.919  72.424  1.00  0.00    -0.629 A  
HETATM   19  C   UNL     1     -12.777  15.208  72.483  1.00  0.00    -0.356 A  
HETATM   20  C   UNL     1     -11.905  15.655  71.493  1.00  0.00    -0.493 A  
HETATM   21 CL   UNL     1     -13.218  16.260  73.770  1.00  0.00    -0.431 Cl 
HETATM   22  C   UNL     1     -11.567  14.813  70.429  1.00  0.00    -0.333 A  
ENDBRANCH  14  16
ENDBRANCH  11  14
ENDBRANCH   3   8
TORSDOF 3
ENDMDL
MODEL       59
REMARK 921   NORMALIZED FREE ENERGY PREDICTED BY IDOCK:   -5.35 KCAL/MOL
REMARK 922        TOTAL FREE ENERGY PREDICTED BY IDOCK:   -6.92 KCAL/MOL
REMARK 923 INTER-LIGAND FREE ENERGY PREDICTED BY IDOCK:   -6.08 KCAL/MOL
REMARK 924 INTRA-LIGAND FREE ENERGY PREDICTED BY IDOCK:   -0.84 KCAL/MOL
REMARK 927      BINDING AFFINITY PREDICTED BY RF-SCORE:    0.00 PKD
ROOT
HETATM    1  C   UNL     1     -10.686   7.341  67.188  1.00  0.00    -0.413 C  
HETATM    2  C   UNL     1      -9.397   8.157  67.086  1.00  0.00    -0.145 C  
HETATM    3  O   UNL     1      -9.473   9.311  67.957  1.00  0.00    -0.137 OA 
HETATM    4  C   UNL     1      -8.267   7.294  67.696  1.00  0.00    -0.114 C  
HETATM    5  C   UNL     1      -8.971   8.445  65.640  1.00  0.00    -0.183 C  
HETATM    6  O   UNL     1      -7.596   7.913  68.702  1.00  0.00    -0.097 OA 
HETATM    7  O   UNL     1      -7.967   6.170  67.318  1.00  0.00    -0.101 OA 
ENDROOT
BRANCH   3   8
HETATM    8  C   UNL     1      -9.898  10.527  67.514  1.00  0.00    -0.168 A  
HETATM    9  C   UNL     1     -11.221  10.919  67.333  1.00  0.00    -0.345 A  
HETATM   10  C   UNL     1     -11.511  12.182  66.806  1.00  0.00    -0.418 A  
HETATM   11  C   UNL     1     -10.477  13.067  66.481  1.00  0.00    -0.284 A  
HETATM   12  C   UNL     1      -8.872  11.446  67.273  1.00  0.00    -0.153 A  
HETATM   13  C   UNL     1      -9.156  12.716  66.766  1.00  0.00    -0.214 A  
BRANCH  11  14
HETATM   14  C   UNL     1     -10.825  14.364  65.851  1.00  0.00    -0.304 C  
HETATM   15  O   UNL     1     -11.180  14.373  64.674  1.00  0.00    -0.377 OA 
BRANCH  14  16
HETATM   16  C   UNL     1     -10.712  15.654  66.589  1.00  0.00    -0.296 A  
HETATM   17  C   UNL     1     -10.327  16.797  65.873  1.00  0.00    -0.341 A  
HETATM   18  C   UNL     1     -10.164  18.018  66.530  1.00  0.00    -0.383 A  
HETATM   19  C   UNL     1     -10.378  18.101  67.905  1.00  0.00    -0.396 A  
HETATM   20  C   UNL     1     -10.756  16.972  68.628  1.00  0.00    -0.333 A  
HETATM   21 CL   UNL     1     -10.153  19.599  68.720  1.00  0.00    -0.547 Cl 
HETATM   22  C   UNL     1     -10.912  15.745  67.974  1.00  0.00    -0.330 A  
ENDBRANCH  14  16
ENDBRANCH  11  14
ENDBRANCH   3   8
TORSDOF 3
ENDMDL
MODEL       60
REMARK 921   NORMALIZED FREE ENERGY PREDICTED BY IDOCK:   -5.35 KCAL/MOL
REMARK 922        TOTAL FREE ENERGY PREDICTED BY IDOCK:   -6.92 KCAL/MOL
REMARK 923 INTER-LIGAND FREE ENERGY PREDICTED BY IDOCK:   -6.09 KCAL/MOL
REMARK 924 INTRA-LIGAND FREE ENERGY PREDICTED BY IDOCK:   -0.83 KCAL/MOL
REMARK 927      BINDING AFFINITY PREDICTED BY RF-SCORE:    0.00 PKD
ROOT
HETATM    1  C   UNL     1      -9.856  18.146  68.688  1.00  0.00    -0.389 C  
HETATM    2  C   UNL     1      -9.683  17.956  67.180  1.00  0.00    -0.289 C  
HETATM    3  O   UNL     1     -10.790  17.191  66.649  1.00  0.00    -0.137 OA 
HETATM    4  C   UNL     1      -9.836  19.351  66.529  1.00  0.00    -0.386 C  
HETATM    5  C   UNL     1      -8.285  17.462  66.786  1.00  0.00    -0.279 C  
HETATM    6  O   UNL     1     -10.799  19.399  65.572  1.00  0.00    -0.421 OA 
HETATM    7  O   UNL     1      -9.160  20.331  66.812  1.00  0.00    -0.338 OA 
ENDROOT
BRANCH   3   8
HETATM    8  C   UNL     1     -10.732  15.838  66.501  1.00  0.00    -0.283 A  
HETATM    9  C   UNL     1     -10.864  14.894  67.515  1.00  0.00    -0.292 A  
HETATM   10  C   UNL     1     -10.715  13.533  67.227  1.00  0.00    -0.272 A  
HETATM   11  C   UNL     1     -10.458  13.111  65.919  1.00  0.00    -0.288 A  
HETATM   12  C   UNL     1     -10.565  15.407  65.181  1.00  0.00    -0.458 A  
HETATM   13  C   UNL     1     -10.436  14.049  64.885  1.00  0.00    -0.453 A  
BRANCH  11  14
HETATM   14  C   UNL     1     -10.228  11.666  65.671  1.00  0.00    -0.243 C  
HETATM   15  O   UNL     1     -10.455  11.216  64.551  1.00  0.00    -0.318 OA 
BRANCH  14  16
HETATM   16  C   UNL     1      -9.777  10.744  66.751  1.00  0.00    -0.221 A  
HETATM   17  C   UNL     1      -8.436  10.805  67.159  1.00  0.00    -0.126 A  
HETATM   18  C   UNL     1      -7.956   9.930  68.135  1.00  0.00    -0.100 A  
HETATM   19  C   UNL     1      -8.811   8.986  68.703  1.00  0.00    -0.137 A  
HETATM   20  C   UNL     1     -10.143   8.913  68.303  1.00  0.00    -0.219 A  
HETATM   21 CL   UNL     1      -8.214   7.891  69.887  1.00  0.00    -0.119 Cl 
HETATM   22  C   UNL     1     -10.625   9.782  67.319  1.00  0.00    -0.320 A  
ENDBRANCH  14  16
ENDBRANCH  11  14
ENDBRANCH   3   8
TORSDOF 3
ENDMDL
MODEL       61
REMARK 921   NORMALIZED FREE ENERGY PREDICTED BY IDOCK:   -5.33 KCAL/MOL
REMARK 922        TOTAL FREE ENERGY PREDICTED BY IDOCK:   -6.89 KCAL/MOL
REMARK 923 INTER-LIGAND FREE ENERGY PREDICTED BY IDOCK:   -6.21 KCAL/MOL
REMARK 924 INTRA-LIGAND FREE ENERGY PREDICTED BY IDOCK:   -0.68 KCAL/MOL
REMARK 927      BINDING AFFINITY PREDICTED BY RF-SCORE:    0.00 PKD
ROOT
HETATM    1  C   UNL     1     -11.531  15.216  66.911  1.00  0.00    -0.215 C  
HETATM    2  C   UNL     1     -11.185  14.511  65.599  1.00  0.00    -0.335 C  
HETATM    3  O   UNL     1     -11.908  13.261  65.505  1.00  0.00    -0.335 OA 
HETATM    4  C   UNL     1     -11.765  15.375  64.455  1.00  0.00    -0.277 C  
HETATM    5  C   UNL     1      -9.676  14.424  65.334  1.00  0.00    -0.156 C  
HETATM    6  O   UNL     1     -12.605  14.693  63.634  1.00  0.00    -0.773 OA 
HETATM    7  O   UNL     1     -11.499  16.555  64.268  1.00  0.00    -1.000 OA 
ENDROOT
BRANCH   3   8
HETATM    8  C   UNL     1     -11.369  12.078  65.910  1.00  0.00    -0.337 A  
HETATM    9  C   UNL     1     -10.633  11.198  65.122  1.00  0.00    -0.319 A  
HETATM   10  C   UNL     1     -10.195   9.981  65.655  1.00  0.00    -0.258 A  
HETATM   11  C   UNL     1     -10.472   9.651  66.986  1.00  0.00    -0.302 A  
HETATM   12  C   UNL     1     -11.566  11.786  67.263  1.00  0.00    -0.344 A  
HETATM   13  C   UNL     1     -11.113  10.582  67.806  1.00  0.00    -0.382 A  
BRANCH  11  14
HETATM   14  C   UNL     1     -10.058   8.318  67.488  1.00  0.00    -0.225 C  
HETATM   15  O   UNL     1     -10.632   7.321  67.056  1.00  0.00    -0.306 OA 
BRANCH  14  16
HETATM   16  C   UNL     1      -9.004   8.160  68.530  1.00  0.00    -0.137 A  
HETATM   17  C   UNL     1      -7.662   8.170  68.123  1.00  0.00    -0.110 A  
HETATM   18  C   UNL     1      -6.642   7.980  69.056  1.00  0.00    -0.048 A  
HETATM   19  C   UNL     1      -6.957   7.773  70.399  1.00  0.00    -0.046 A  
HETATM   20  C   UNL     1      -8.287   7.757  70.814  1.00  0.00    -0.116 A  
HETATM   21 CL   UNL     1      -5.703   7.514  71.546  1.00  0.00    -0.036 Cl 
HETATM   22  C   UNL     1      -9.312   7.938  69.880  1.00  0.00    -0.156 A  
ENDBRANCH  14  16
ENDBRANCH  11  14
ENDBRANCH   3   8
TORSDOF 3
ENDMDL
MODEL       62
REMARK 921   NORMALIZED FREE ENERGY PREDICTED BY IDOCK:   -5.32 KCAL/MOL
REMARK 922        TOTAL FREE ENERGY PREDICTED BY IDOCK:   -6.88 KCAL/MOL
REMARK 923 INTER-LIGAND FREE ENERGY PREDICTED BY IDOCK:   -6.40 KCAL/MOL
REMARK 924 INTRA-LIGAND FREE ENERGY PREDICTED BY IDOCK:   -0.48 KCAL/MOL
REMARK 927      BINDING AFFINITY PREDICTED BY RF-SCORE:    0.00 PKD
ROOT
HETATM    1  C   UNL     1     -11.725  13.145  63.777  1.00  0.00    -0.519 C  
HETATM    2  C   UNL     1     -11.483  14.108  64.940  1.00  0.00    -0.366 C  
HETATM    3  O   UNL     1     -10.078  14.117  65.289  1.00  0.00    -0.354 OA 
HETATM    4  C   UNL     1     -11.752  15.536  64.407  1.00  0.00    -0.242 C  
HETATM    5  C   UNL     1     -12.456  13.907  66.110  1.00  0.00    -0.478 C  
HETATM    6  O   UNL     1     -10.704  16.383  64.577  1.00  0.00    -0.648 OA 
HETATM    7  O   UNL     1     -12.801  15.903  63.897  1.00  0.00    -0.516 OA 
ENDROOT
BRANCH   3   8
HETATM    8  C   UNL     1      -9.569  13.317  66.267  1.00  0.00    -0.235 A  
HETATM    9  C   UNL     1      -9.023  13.741  67.474  1.00  0.00    -0.201 A  
HETATM   10  C   UNL     1      -8.473  12.808  68.360  1.00  0.00    -0.115 A  
HETATM   11  C   UNL     1      -8.492  11.444  68.051  1.00  0.00    -0.145 A  
HETATM   12  C   UNL     1      -9.667  11.947  66.003  1.00  0.00    -0.257 A  
HETATM   13  C   UNL     1      -9.139  11.010  66.893  1.00  0.00    -0.165 A  
BRANCH  11  14
HETATM   14  C   UNL     1      -7.828  10.497  68.981  1.00  0.00    -0.129 C  
HETATM   15  O   UNL     1      -6.614  10.333  68.889  1.00  0.00    -0.051 OA 
BRANCH  14  16
HETATM   16  C   UNL     1      -8.597   9.709  69.985  1.00  0.00    -0.237 A  
HETATM   17  C   UNL     1      -9.997   9.806  69.975  1.00  0.00    -0.299 A  
HETATM   18  C   UNL     1     -10.757   9.123  70.925  1.00  0.00    -0.343 A  
HETATM   19  C   UNL     1     -10.124   8.345  71.895  1.00  0.00    -0.267 A  
HETATM   20  C   UNL     1      -8.734   8.245  71.917  1.00  0.00    -0.230 A  
HETATM   21 CL   UNL     1     -11.058   7.523  73.081  1.00  0.00    -0.424 Cl 
HETATM   22  C   UNL     1      -7.969   8.935  70.972  1.00  0.00    -0.183 A  
ENDBRANCH  14  16
ENDBRANCH  11  14
ENDBRANCH   3   8
TORSDOF 3
ENDMDL
MODEL       63
REMARK 921   NORMALIZED FREE ENERGY PREDICTED BY IDOCK:   -5.32 KCAL/MOL
REMARK 922        TOTAL FREE ENERGY PREDICTED BY IDOCK:   -6.87 KCAL/MOL
REMARK 923 INTER-LIGAND FREE ENERGY PREDICTED BY IDOCK:   -6.39 KCAL/MOL
REMARK 924 INTRA-LIGAND FREE ENERGY PREDICTED BY IDOCK:   -0.48 KCAL/MOL
REMARK 927      BINDING AFFINITY PREDICTED BY RF-SCORE:    0.00 PKD
ROOT
HETATM    1  C   UNL     1     -12.150  14.420  67.036  1.00  0.00    -0.374 C  
HETATM    2  C   UNL     1     -11.683  13.240  66.183  1.00  0.00    -0.374 C  
HETATM    3  O   UNL     1     -12.146  11.997  66.763  1.00  0.00    -0.613 OA 
HETATM    4  C   UNL     1     -12.433  13.333  64.833  1.00  0.00    -0.409 C  
HETATM    5  C   UNL     1     -10.189  13.293  65.836  1.00  0.00    -0.295 C  
HETATM    6  O   UNL     1     -13.129  12.209  64.522  1.00  0.00    -0.720 OA 
HETATM    7  O   UNL     1     -12.407  14.302  64.086  1.00  0.00    -0.630 OA 
ENDROOT
BRANCH   3   8
HETATM    8  C   UNL     1     -11.380  11.267  67.620  1.00  0.00    -0.282 A  
HETATM    9  C   UNL     1     -10.272  10.497  67.279  1.00  0.00    -0.260 A  
HETATM   10  C   UNL     1      -9.617   9.741  68.257  1.00  0.00    -0.155 A  
HETATM   11  C   UNL     1     -10.054   9.773  69.586  1.00  0.00    -0.250 A  
HETATM   12  C   UNL     1     -11.758  11.366  68.963  1.00  0.00    -0.409 A  
HETATM   13  C   UNL     1     -11.095  10.631  69.947  1.00  0.00    -0.364 A  
BRANCH  11  14
HETATM   14  C   UNL     1      -9.381   8.897  70.576  1.00  0.00    -0.202 C  
HETATM   15  O   UNL     1      -9.300   9.277  71.741  1.00  0.00    -0.309 OA 
BRANCH  14  16
HETATM   16  C   UNL     1      -8.765   7.597  70.187  1.00  0.00    -0.141 A  
HETATM   17  C   UNL     1      -9.538   6.433  70.308  1.00  0.00    -0.177 A  
HETATM   18  C   UNL     1      -8.990   5.187  69.999  1.00  0.00    -0.153 A  
HETATM   19  C   UNL     1      -7.664   5.097  69.573  1.00  0.00    -0.068 A  
HETATM   20  C   UNL     1      -6.885   6.246  69.452  1.00  0.00    -0.065 A  
HETATM   21 CL   UNL     1      -6.979   3.561  69.216  1.00  0.00    -0.044 Cl 
HETATM   22  C   UNL     1      -7.430   7.495  69.770  1.00  0.00    -0.091 A  
ENDBRANCH  14  16
ENDBRANCH  11  14
ENDBRANCH   3   8
TORSDOF 3
ENDMDL
MODEL       64
REMARK 921   NORMALIZED FREE ENERGY PREDICTED BY IDOCK:   -5.32 KCAL/MOL
REMARK 922        TOTAL FREE ENERGY PREDICTED BY IDOCK:   -6.87 KCAL/MOL
REMARK 923 INTER-LIGAND FREE ENERGY PREDICTED BY IDOCK:   -6.49 KCAL/MOL
REMARK 924 INTRA-LIGAND FREE ENERGY PREDICTED BY IDOCK:   -0.39 KCAL/MOL
REMARK 927      BINDING AFFINITY PREDICTED BY RF-SCORE:    0.00 PKD
ROOT
HETATM    1  C   UNL     1     -11.626   7.136  71.056  1.00  0.00    -0.345 C  
HETATM    2  C   UNL     1     -10.642   6.987  69.895  1.00  0.00    -0.229 C  
HETATM    3  O   UNL     1      -9.927   8.229  69.692  1.00  0.00    -0.185 OA 
HETATM    4  C   UNL     1      -9.552   5.989  70.352  1.00  0.00    -0.164 C  
HETATM    5  C   UNL     1     -11.272   6.373  68.638  1.00  0.00    -0.338 C  
HETATM    6  O   UNL     1      -8.291   6.487  70.264  1.00  0.00    -0.123 OA 
HETATM    7  O   UNL     1      -9.768   4.849  70.740  1.00  0.00    -0.170 OA 
ENDROOT
BRANCH   3   8
HETATM    8  C   UNL     1     -10.343   9.168  68.798  1.00  0.00    -0.214 A  
HETATM    9  C   UNL     1     -10.050   9.194  67.438  1.00  0.00    -0.289 A  
HETATM   10  C   UNL     1     -10.491  10.261  66.648  1.00  0.00    -0.260 A  
HETATM   11  C   UNL     1     -11.247  11.294  67.212  1.00  0.00    -0.364 A  
HETATM   12  C   UNL     1     -11.174  10.154  69.339  1.00  0.00    -0.265 A  
HETATM   13  C   UNL     1     -11.634  11.211  68.551  1.00  0.00    -0.385 A  
BRANCH  11  14
HETATM   14  C   UNL     1     -11.626  12.445  66.357  1.00  0.00    -0.384 C  
HETATM   15  O   UNL     1     -12.303  12.237  65.353  1.00  0.00    -0.582 OA 
BRANCH  14  16
HETATM   16  C   UNL     1     -11.173  13.833  66.657  1.00  0.00    -0.327 A  
HETATM   17  C   UNL     1     -10.620  14.590  65.614  1.00  0.00    -0.343 A  
HETATM   18  C   UNL     1     -10.140  15.878  65.857  1.00  0.00    -0.376 A  
HETATM   19  C   UNL     1     -10.204  16.413  67.143  1.00  0.00    -0.282 A  
HETATM   20  C   UNL     1     -10.748  15.669  68.188  1.00  0.00    -0.287 A  
HETATM   21 CL   UNL     1      -9.590  17.990  67.449  1.00  0.00    -0.268 Cl 
HETATM   22  C   UNL     1     -11.222  14.375  67.949  1.00  0.00    -0.304 A  
ENDBRANCH  14  16
ENDBRANCH  11  14
ENDBRANCH   3   8
TORSDOF 3
ENDMDL
MODEL       65
REMARK 921   NORMALIZED FREE ENERGY PREDICTED BY IDOCK:   -5.32 KCAL/MOL
REMARK 922        TOTAL FREE ENERGY PREDICTED BY IDOCK:   -6.87 KCAL/MOL
REMARK 923 INTER-LIGAND FREE ENERGY PREDICTED BY IDOCK:   -6.33 KCAL/MOL
REMARK 924 INTRA-LIGAND FREE ENERGY PREDICTED BY IDOCK:   -0.54 KCAL/MOL
REMARK 927      BINDING AFFINITY PREDICTED BY RF-SCORE:    0.00 PKD
ROOT
HETATM    1  C   UNL     1      -9.770  18.325  68.751  1.00  0.00    -0.348 C  
HETATM    2  C   UNL     1      -9.588  17.675  67.379  1.00  0.00    -0.267 C  
HETATM    3  O   UNL     1     -10.604  16.665  67.174  1.00  0.00    -0.316 OA 
HETATM    4  C   UNL     1      -9.905  18.756  66.320  1.00  0.00    -0.353 C  
HETATM    5  C   UNL     1      -8.146  17.229  67.104  1.00  0.00    -0.225 C  
HETATM    6  O   UNL     1     -10.874  18.387  65.443  1.00  0.00    -0.577 OA 
HETATM    7  O   UNL     1      -9.344  19.840  66.240  1.00  0.00    -0.367 OA 
ENDROOT
BRANCH   3   8
HETATM    8  C   UNL     1     -10.392  15.352  67.468  1.00  0.00    -0.264 A  
HETATM    9  C   UNL     1     -10.366  14.789  68.740  1.00  0.00    -0.248 A  
HETATM   10  C   UNL     1     -10.070  13.431  68.899  1.00  0.00    -0.010 A  
HETATM   11  C   UNL     1      -9.823  12.626  67.782  1.00  0.00    -0.212 A  
HETATM   12  C   UNL     1     -10.234  14.526  66.350  1.00  0.00    -0.293 A  
HETATM   13  C   UNL     1      -9.958  13.166  66.501  1.00  0.00    -0.268 A  
BRANCH  11  14
HETATM   14  C   UNL     1      -9.435  11.211  67.998  1.00  0.00    -0.174 C  
HETATM   15  O   UNL     1      -8.717  10.661  67.166  1.00  0.00    -0.130 OA 
BRANCH  14  16
HETATM   16  C   UNL     1      -9.926  10.429  69.168  1.00  0.00    -0.237 A  
HETATM   17  C   UNL     1     -11.259  10.600  69.568  1.00  0.00    -0.331 A  
HETATM   18  C   UNL     1     -11.752   9.924  70.685  1.00  0.00    -0.404 A  
HETATM   19  C   UNL     1     -10.914   9.078  71.412  1.00  0.00    -0.324 A  
HETATM   20  C   UNL     1      -9.586   8.904  71.027  1.00  0.00    -0.321 A  
HETATM   21 CL   UNL     1     -11.512   8.264  72.803  1.00  0.00    -0.423 Cl 
HETATM   22  C   UNL     1      -9.087   9.587  69.913  1.00  0.00    -0.237 A  
ENDBRANCH  14  16
ENDBRANCH  11  14
ENDBRANCH   3   8
TORSDOF 3
ENDMDL
MODEL       66
REMARK 921   NORMALIZED FREE ENERGY PREDICTED BY IDOCK:   -5.28 KCAL/MOL
REMARK 922        TOTAL FREE ENERGY PREDICTED BY IDOCK:   -6.83 KCAL/MOL
REMARK 923 INTER-LIGAND FREE ENERGY PREDICTED BY IDOCK:   -6.06 KCAL/MOL
REMARK 924 INTRA-LIGAND FREE ENERGY PREDICTED BY IDOCK:   -0.77 KCAL/MOL
REMARK 927      BINDING AFFINITY PREDICTED BY RF-SCORE:    0.00 PKD
ROOT
HETATM    1  C   UNL     1      -9.278  11.954  68.149  1.00  0.00    -0.187 C  
HETATM    2  C   UNL     1     -10.436  12.907  67.851  1.00  0.00    -0.224 C  
HETATM    3  O   UNL     1     -10.214  13.572  66.584  1.00  0.00    -0.265 OA 
HETATM    4  C   UNL     1     -11.689  12.034  67.608  1.00  0.00    -0.294 C  
HETATM    5  C   UNL     1     -10.787  13.826  69.029  1.00  0.00    -0.247 C  
HETATM    6  O   UNL     1     -12.286  12.263  66.410  1.00  0.00    -0.613 OA 
HETATM    7  O   UNL     1     -12.137  11.220  68.405  1.00  0.00    -0.598 OA 
ENDROOT
BRANCH   3   8
HETATM    8  C   UNL     1      -9.612  14.791  66.500  1.00  0.00    -0.284 A  
HETATM    9  C   UNL     1      -8.242  15.035  66.539  1.00  0.00     0.115 A  
HETATM   10  C   UNL     1      -7.765  16.349  66.508  1.00  0.00    -0.295 A  
HETATM   11  C   UNL     1      -8.656  17.424  66.415  1.00  0.00    -0.282 A  
HETATM   12  C   UNL     1     -10.493  15.860  66.317  1.00  0.00    -0.324 A  
HETATM   13  C   UNL     1     -10.021  17.173  66.265  1.00  0.00    -0.316 A  
BRANCH  11  14
HETATM   14  C   UNL     1      -8.113  18.803  66.467  1.00  0.00    -0.289 C  
HETATM   15  O   UNL     1      -8.291  19.544  65.502  1.00  0.00    -0.299 OA 
BRANCH  14  16
HETATM   16  C   UNL     1      -7.323  19.296  67.630  1.00  0.00    -0.265 A  
HETATM   17  C   UNL     1      -7.640  18.805  68.905  1.00  0.00    -0.312 A  
HETATM   18  C   UNL     1      -6.959  19.271  70.030  1.00  0.00     0.140 A  
HETATM   19  C   UNL     1      -5.961  20.235  69.888  1.00  0.00    -0.355 A  
HETATM   20  C   UNL     1      -5.640  20.734  68.627  1.00  0.00    -0.382 A  
HETATM   21 CL   UNL     1      -5.137  20.829  71.276  1.00  0.00    -0.227 Cl 
HETATM   22  C   UNL     1      -6.327  20.275  67.499  1.00  0.00    -0.257 A  
ENDBRANCH  14  16
ENDBRANCH  11  14
ENDBRANCH   3   8
TORSDOF 3
ENDMDL
MODEL       67
REMARK 921   NORMALIZED FREE ENERGY PREDICTED BY IDOCK:   -5.27 KCAL/MOL
REMARK 922        TOTAL FREE ENERGY PREDICTED BY IDOCK:   -6.82 KCAL/MOL
REMARK 923 INTER-LIGAND FREE ENERGY PREDICTED BY IDOCK:   -6.28 KCAL/MOL
REMARK 924 INTRA-LIGAND FREE ENERGY PREDICTED BY IDOCK:   -0.54 KCAL/MOL
REMARK 927      BINDING AFFINITY PREDICTED BY RF-SCORE:    0.00 PKD
ROOT
HETATM    1  C   UNL     1     -11.759  14.338  66.529  1.00  0.00    -0.409 C  
HETATM    2  C   UNL     1     -11.488  13.239  65.501  1.00  0.00    -0.311 C  
HETATM    3  O   UNL     1     -11.858  11.951  66.047  1.00  0.00    -0.497 OA 
HETATM    4  C   UNL     1     -12.480  13.458  64.334  1.00  0.00    -0.277 C  
HETATM    5  C   UNL     1     -10.087  13.319  64.881  1.00  0.00    -0.247 C  
HETATM    6  O   UNL     1     -13.245  12.370  64.063  1.00  0.00    -0.748 OA 
HETATM    7  O   UNL     1     -12.576  14.491  63.685  1.00  0.00    -0.798 OA 
ENDROOT
BRANCH   3   8
HETATM    8  C   UNL     1     -10.958  11.142  66.672  1.00  0.00    -0.228 A  
HETATM    9  C   UNL     1     -10.328  10.032  66.119  1.00  0.00    -0.225 A  
HETATM   10  C   UNL     1      -9.472   9.250  66.902  1.00  0.00    -0.211 A  
HETATM   11  C   UNL     1      -9.226   9.592  68.236  1.00  0.00    -0.132 A  
HETATM   12  C   UNL     1     -10.639  11.532  67.977  1.00  0.00    -0.222 A  
HETATM   13  C   UNL     1      -9.770  10.767  68.757  1.00  0.00    -0.197 A  
BRANCH  11  14
HETATM   14  C   UNL     1      -8.376   8.692  69.054  1.00  0.00    -0.119 C  
HETATM   15  O   UNL     1      -7.226   8.467  68.682  1.00  0.00    -0.077 OA 
BRANCH  14  16
HETATM   16  C   UNL     1      -8.890   8.022  70.282  1.00  0.00    -0.145 A  
HETATM   17  C   UNL     1      -9.116   6.638  70.238  1.00  0.00    -0.156 A  
HETATM   18  C   UNL     1      -9.640   5.974  71.348  1.00  0.00    -0.180 A  
HETATM   19  C   UNL     1      -9.947   6.690  72.505  1.00  0.00    -0.170 A  
HETATM   20  C   UNL     1      -9.731   8.066  72.559  1.00  0.00    -0.325 A  
HETATM   21 CL   UNL     1     -10.616   5.878  73.866  1.00  0.00    -0.277 Cl 
HETATM   22  C   UNL     1      -9.215   8.735  71.445  1.00  0.00    -0.325 A  
ENDBRANCH  14  16
ENDBRANCH  11  14
ENDBRANCH   3   8
TORSDOF 3
ENDMDL
MODEL       68
REMARK 921   NORMALIZED FREE ENERGY PREDICTED BY IDOCK:   -5.27 KCAL/MOL
REMARK 922        TOTAL FREE ENERGY PREDICTED BY IDOCK:   -6.82 KCAL/MOL
REMARK 923 INTER-LIGAND FREE ENERGY PREDICTED BY IDOCK:   -6.15 KCAL/MOL
REMARK 924 INTRA-LIGAND FREE ENERGY PREDICTED BY IDOCK:   -0.67 KCAL/MOL
REMARK 927      BINDING AFFINITY PREDICTED BY RF-SCORE:    0.00 PKD
ROOT
HETATM    1  C   UNL     1      -9.529   7.476  66.333  1.00  0.00    -0.208 C  
HETATM    2  C   UNL     1      -8.427   8.514  66.548  1.00  0.00    -0.115 C  
HETATM    3  O   UNL     1      -8.610   9.172  67.823  1.00  0.00    -0.120 OA 
HETATM    4  C   UNL     1      -7.099   7.737  66.706  1.00  0.00    -0.080 C  
HETATM    5  C   UNL     1      -8.226   9.445  65.345  1.00  0.00    -0.126 C  
HETATM    6  O   UNL     1      -6.441   8.020  67.860  1.00  0.00    -0.050 OA 
HETATM    7  O   UNL     1      -6.648   6.951  65.884  1.00  0.00    -0.049 OA 
ENDROOT
BRANCH   3   8
HETATM    8  C   UNL     1      -9.294  10.344  67.944  1.00  0.00    -0.138 A  
HETATM    9  C   UNL     1      -8.741  11.621  67.946  1.00  0.00    -0.154 A  
HETATM   10  C   UNL     1      -9.559  12.738  68.146  1.00  0.00    -0.223 A  
HETATM   11  C   UNL     1     -10.938  12.581  68.321  1.00  0.00    -0.270 A  
HETATM   12  C   UNL     1     -10.682  10.198  68.029  1.00  0.00    -0.305 A  
HETATM   13  C   UNL     1     -11.506  11.311  68.208  1.00  0.00    -0.378 A  
BRANCH  11  14
HETATM   14  C   UNL     1     -11.758  13.784  68.609  1.00  0.00    -0.356 C  
HETATM   15  O   UNL     1     -12.269  14.389  67.670  1.00  0.00    -0.328 OA 
BRANCH  14  16
HETATM   16  C   UNL     1     -11.939  14.300  69.995  1.00  0.00    -0.396 A  
HETATM   17  C   UNL     1     -12.683  13.528  70.900  1.00  0.00    -0.366 A  
HETATM   18  C   UNL     1     -12.918  13.991  72.195  1.00  0.00    -0.458 A  
HETATM   19  C   UNL     1     -12.417  15.231  72.592  1.00  0.00    -0.380 A  
HETATM   20  C   UNL     1     -11.680  16.009  71.701  1.00  0.00    -0.583 A  
HETATM   21 CL   UNL     1     -12.726  15.814  74.179  1.00  0.00    -0.700 Cl 
HETATM   22  C   UNL     1     -11.451  15.551  70.399  1.00  0.00    -0.364 A  
ENDBRANCH  14  16
ENDBRANCH  11  14
ENDBRANCH   3   8
TORSDOF 3
ENDMDL
MODEL       69
REMARK 921   NORMALIZED FREE ENERGY PREDICTED BY IDOCK:   -5.18 KCAL/MOL
REMARK 922        TOTAL FREE ENERGY PREDICTED BY IDOCK:   -6.71 KCAL/MOL
REMARK 923 INTER-LIGAND FREE ENERGY PREDICTED BY IDOCK:   -5.96 KCAL/MOL
REMARK 924 INTRA-LIGAND FREE ENERGY PREDICTED BY IDOCK:   -0.74 KCAL/MOL
REMARK 927      BINDING AFFINITY PREDICTED BY RF-SCORE:    0.00 PKD
ROOT
HETATM    1  C   UNL     1      -9.304   8.418  72.165  1.00  0.00    -0.339 C  
HETATM    2  C   UNL     1     -10.313   7.729  71.245  1.00  0.00    -0.198 C  
HETATM    3  O   UNL     1      -9.628   7.138  70.116  1.00  0.00    -0.168 OA 
HETATM    4  C   UNL     1     -10.880   6.519  72.023  1.00  0.00    -0.234 C  
HETATM    5  C   UNL     1     -11.522   8.609  70.900  1.00  0.00    -0.315 C  
HETATM    6  O   UNL     1     -10.734   5.338  71.369  1.00  0.00    -0.211 OA 
HETATM    7  O   UNL     1     -11.431   6.587  73.114  1.00  0.00    -0.081 OA 
ENDROOT
BRANCH   3   8
HETATM    8  C   UNL     1      -9.481   7.794  68.931  1.00  0.00    -0.150 A  
HETATM    9  C   UNL     1      -8.516   8.752  68.637  1.00  0.00    -0.129 A  
HETATM   10  C   UNL     1      -8.525   9.395  67.394  1.00  0.00    -0.125 A  
HETATM   11  C   UNL     1      -9.486   9.064  66.433  1.00  0.00    -0.288 A  
HETATM   12  C   UNL     1     -10.384   7.402  67.937  1.00  0.00    -0.258 A  
HETATM   13  C   UNL     1     -10.384   8.026  66.688  1.00  0.00    -0.273 A  
BRANCH  11  14
HETATM   14  C   UNL     1      -9.509   9.826  65.160  1.00  0.00    -0.273 C  
HETATM   15  O   UNL     1      -8.876   9.391  64.201  1.00  0.00    -0.214 OA 
BRANCH  14  16
HETATM   16  C   UNL     1     -10.237  11.119  65.029  1.00  0.00    -0.354 A  
HETATM   17  C   UNL     1     -10.929  11.374  63.836  1.00  0.00    -0.442 A  
HETATM   18  C   UNL     1     -11.588  12.590  63.649  1.00  0.00    -0.580 A  
HETATM   19  C   UNL     1     -11.554  13.560  64.651  1.00  0.00    -0.368 A  
HETATM   20  C   UNL     1     -10.866  13.321  65.839  1.00  0.00    -0.289 A  
HETATM   21 CL   UNL     1     -12.344  15.069  64.412  1.00  0.00    -0.408 Cl 
HETATM   22  C   UNL     1     -10.198  12.106  66.025  1.00  0.00    -0.265 A  
ENDBRANCH  14  16
ENDBRANCH  11  14
ENDBRANCH   3   8
TORSDOF 3
ENDMDL
MODEL       70
REMARK 921   NORMALIZED FREE ENERGY PREDICTED BY IDOCK:   -5.18 KCAL/MOL
REMARK 922        TOTAL FREE ENERGY PREDICTED BY IDOCK:   -6.71 KCAL/MOL
REMARK 923 INTER-LIGAND FREE ENERGY PREDICTED BY IDOCK:   -6.67 KCAL/MOL
REMARK 924 INTRA-LIGAND FREE ENERGY PREDICTED BY IDOCK:   -0.04 KCAL/MOL
REMARK 927      BINDING AFFINITY PREDICTED BY RF-SCORE:    0.00 PKD
ROOT
HETATM    1  C   UNL     1      -9.974   4.221  70.829  1.00  0.00    -0.224 C  
HETATM    2  C   UNL     1     -10.370   5.659  71.166  1.00  0.00    -0.232 C  
HETATM    3  O   UNL     1     -11.346   6.138  70.211  1.00  0.00    -0.365 OA 
HETATM    4  C   UNL     1     -11.140   5.613  72.507  1.00  0.00    -0.276 C  
HETATM    5  C   UNL     1      -9.168   6.582  71.405  1.00  0.00    -0.148 C  
HETATM    6  O   UNL     1     -12.378   6.168  72.440  1.00  0.00    -0.219 OA 
HETATM    7  O   UNL     1     -10.699   5.147  73.549  1.00  0.00    -0.236 OA 
ENDROOT
BRANCH   3   8
HETATM    8  C   UNL     1     -10.989   6.837  69.098  1.00  0.00    -0.244 A  
HETATM    9  C   UNL     1     -10.976   6.354  67.793  1.00  0.00    -0.425 A  
HETATM   10  C   UNL     1     -10.521   7.168  66.750  1.00  0.00    -0.300 A  
HETATM   11  C   UNL     1     -10.099   8.477  67.007  1.00  0.00    -0.347 A  
HETATM   12  C   UNL     1     -10.653   8.174  69.337  1.00  0.00    -0.206 A  
HETATM   13  C   UNL     1     -10.217   8.997  68.297  1.00  0.00    -0.241 A  
BRANCH  11  14
HETATM   14  C   UNL     1      -9.550   9.279  65.886  1.00  0.00    -0.275 C  
HETATM   15  O   UNL     1      -8.516   8.900  65.341  1.00  0.00    -0.141 OA 
BRANCH  14  16
HETATM   16  C   UNL     1     -10.189  10.548  65.437  1.00  0.00    -0.340 A  
HETATM   17  C   UNL     1     -10.779  11.373  66.405  1.00  0.00    -0.325 A  
HETATM   18  C   UNL     1     -11.429  12.549  66.027  1.00  0.00    -0.423 A  
HETATM   19  C   UNL     1     -11.499  12.903  64.680  1.00  0.00    -0.327 A  
HETATM   20  C   UNL     1     -10.920  12.089  63.708  1.00  0.00    -0.492 A  
HETATM   21 CL   UNL     1     -12.321  14.338  64.210  1.00  0.00    -0.458 Cl 
HETATM   22  C   UNL     1     -10.276  10.905  64.083  1.00  0.00    -0.424 A  
ENDBRANCH  14  16
ENDBRANCH  11  14
ENDBRANCH   3   8
TORSDOF 3
ENDMDL
MODEL       71
REMARK 921   NORMALIZED FREE ENERGY PREDICTED BY IDOCK:   -5.16 KCAL/MOL
REMARK 922        TOTAL FREE ENERGY PREDICTED BY IDOCK:   -6.68 KCAL/MOL
REMARK 923 INTER-LIGAND FREE ENERGY PREDICTED BY IDOCK:   -5.90 KCAL/MOL
REMARK 924 INTRA-LIGAND FREE ENERGY PREDICTED BY IDOCK:   -0.78 KCAL/MOL
REMARK 927      BINDING AFFINITY PREDICTED BY RF-SCORE:    0.00 PKD
ROOT
HETATM    1  C   UNL     1      -7.008   8.400  66.583  1.00  0.00    -0.072 C  
HETATM    2  C   UNL     1      -8.227   8.390  65.660  1.00  0.00    -0.132 C  
HETATM    3  O   UNL     1      -8.249   9.595  64.859  1.00  0.00    -0.128 OA 
HETATM    4  C   UNL     1      -8.008   7.253  64.634  1.00  0.00    -0.115 C  
HETATM    5  C   UNL     1      -9.537   8.052  66.385  1.00  0.00    -0.267 C  
HETATM    6  O   UNL     1      -8.073   7.670  63.343  1.00  0.00    -0.125 OA 
HETATM    7  O   UNL     1      -7.812   6.081  64.923  1.00  0.00    -0.093 OA 
ENDROOT
BRANCH   3   8
HETATM    8  C   UNL     1      -8.945  10.704  65.235  1.00  0.00    -0.190 A  
HETATM    9  C   UNL     1      -8.658  11.523  66.323  1.00  0.00    -0.133 A  
HETATM   10  C   UNL     1      -9.501  12.596  66.632  1.00  0.00    -0.244 A  
HETATM   11  C   UNL     1     -10.621  12.867  65.838  1.00  0.00    -0.287 A  
HETATM   12  C   UNL     1     -10.012  11.031  64.393  1.00  0.00    -0.368 A  
HETATM   13  C   UNL     1     -10.845  12.113  64.684  1.00  0.00    -0.351 A  
BRANCH  11  14
HETATM   14  C   UNL     1     -11.532  13.965  66.246  1.00  0.00    -0.339 C  
HETATM   15  O   UNL     1     -12.285  14.450  65.405  1.00  0.00    -0.387 OA 
BRANCH  14  16
HETATM   16  C   UNL     1     -11.526  14.520  67.629  1.00  0.00    -0.374 A  
HETATM   17  C   UNL     1     -12.048  13.732  68.664  1.00  0.00    -0.333 A  
HETATM   18  C   UNL     1     -12.106  14.227  69.968  1.00  0.00    -0.400 A  
HETATM   19  C   UNL     1     -11.647  15.516  70.242  1.00  0.00    -0.335 A  
HETATM   20  C   UNL     1     -11.129  16.310  69.221  1.00  0.00    -0.325 A  
HETATM   21 CL   UNL     1     -11.739  16.137  71.843  1.00  0.00    -0.579 Cl 
HETATM   22  C   UNL     1     -11.079  15.819  67.913  1.00  0.00    -0.326 A  
ENDBRANCH  14  16
ENDBRANCH  11  14
ENDBRANCH   3   8
TORSDOF 3
ENDMDL
MODEL       72
REMARK 921   NORMALIZED FREE ENERGY PREDICTED BY IDOCK:   -5.15 KCAL/MOL
REMARK 922        TOTAL FREE ENERGY PREDICTED BY IDOCK:   -6.67 KCAL/MOL
REMARK 923 INTER-LIGAND FREE ENERGY PREDICTED BY IDOCK:   -5.95 KCAL/MOL
REMARK 924 INTRA-LIGAND FREE ENERGY PREDICTED BY IDOCK:   -0.72 KCAL/MOL
REMARK 927      BINDING AFFINITY PREDICTED BY RF-SCORE:    0.00 PKD
ROOT
HETATM    1  C   UNL     1     -10.514   8.482  67.307  1.00  0.00    -0.366 C  
HETATM    2  C   UNL     1      -9.592   9.444  68.058  1.00  0.00    -0.138 C  
HETATM    3  O   UNL     1     -10.356  10.559  68.573  1.00  0.00    -0.164 OA 
HETATM    4  C   UNL     1      -9.099   8.702  69.322  1.00  0.00    -0.149 C  
HETATM    5  C   UNL     1      -8.328   9.814  67.270  1.00  0.00    -0.121 C  
HETATM    6  O   UNL     1      -9.359   9.369  70.477  1.00  0.00    -0.237 OA 
HETATM    7  O   UNL     1      -8.511   7.629  69.317  1.00  0.00    -0.135 OA 
ENDROOT
BRANCH   3   8
HETATM    8  C   UNL     1     -10.486  11.729  67.888  1.00  0.00    -0.196 A  
HETATM    9  C   UNL     1     -11.386  11.981  66.857  1.00  0.00    -0.400 A  
HETATM   10  C   UNL     1     -11.364  13.213  66.194  1.00  0.00    -0.343 A  
HETATM   11  C   UNL     1     -10.456  14.205  66.577  1.00  0.00    -0.280 A  
HETATM   12  C   UNL     1      -9.642  12.754  68.326  1.00  0.00    -0.211 A  
HETATM   13  C   UNL     1      -9.629  13.992  67.682  1.00  0.00    -0.221 A  
BRANCH  11  14
HETATM   14  C   UNL     1     -10.412  15.466  65.796  1.00  0.00    -0.355 C  
HETATM   15  O   UNL     1     -11.014  15.519  64.727  1.00  0.00    -0.428 OA 
BRANCH  14  16
HETATM   16  C   UNL     1      -9.624  16.647  66.250  1.00  0.00    -0.325 A  
HETATM   17  C   UNL     1     -10.316  17.738  66.794  1.00  0.00    -0.343 A  
HETATM   18  C   UNL     1      -9.626  18.884  67.192  1.00  0.00    -0.344 A  
HETATM   19  C   UNL     1      -8.240  18.948  67.041  1.00  0.00    -0.270 A  
HETATM   20  C   UNL     1      -7.542  17.872  66.498  1.00  0.00    -0.285 A  
HETATM   21 CL   UNL     1      -7.391  20.369  67.507  1.00  0.00    -0.339 Cl 
HETATM   22  C   UNL     1      -8.232  16.726  66.091  1.00  0.00    -0.300 A  
ENDBRANCH  14  16
ENDBRANCH  11  14
ENDBRANCH   3   8
TORSDOF 3
ENDMDL
MODEL       73
REMARK 921   NORMALIZED FREE ENERGY PREDICTED BY IDOCK:   -5.14 KCAL/MOL
REMARK 922        TOTAL FREE ENERGY PREDICTED BY IDOCK:   -6.67 KCAL/MOL
REMARK 923 INTER-LIGAND FREE ENERGY PREDICTED BY IDOCK:   -6.34 KCAL/MOL
REMARK 924 INTRA-LIGAND FREE ENERGY PREDICTED BY IDOCK:   -0.33 KCAL/MOL
REMARK 927      BINDING AFFINITY PREDICTED BY RF-SCORE:    0.00 PKD
ROOT
HETATM    1  C   UNL     1      -7.852   8.524  65.399  1.00  0.00    -0.107 C  
HETATM    2  C   UNL     1      -8.455   8.435  66.801  1.00  0.00    -0.114 C  
HETATM    3  O   UNL     1      -9.876   8.703  66.746  1.00  0.00    -0.205 OA 
HETATM    4  C   UNL     1      -8.363   6.954  67.239  1.00  0.00    -0.121 C  
HETATM    5  C   UNL     1      -7.671   9.232  67.852  1.00  0.00    -0.088 C  
HETATM    6  O   UNL     1      -9.560   6.420  67.595  1.00  0.00    -0.122 OA 
HETATM    7  O   UNL     1      -7.327   6.306  67.291  1.00  0.00    -0.080 OA 
ENDROOT
BRANCH   3   8
HETATM    8  C   UNL     1     -10.389   9.948  66.953  1.00  0.00    -0.235 A  
HETATM    9  C   UNL     1     -10.329  11.019  66.067  1.00  0.00    -0.311 A  
HETATM   10  C   UNL     1     -10.842  12.266  66.441  1.00  0.00    -0.299 A  
HETATM   11  C   UNL     1     -11.439  12.438  67.695  1.00  0.00    -0.399 A  
HETATM   12  C   UNL     1     -11.065  10.100  68.168  1.00  0.00    -0.290 A  
HETATM   13  C   UNL     1     -11.597  11.336  68.538  1.00  0.00    -0.384 A  
BRANCH  11  14
HETATM   14  C   UNL     1     -11.898  13.794  68.083  1.00  0.00    -0.376 C  
HETATM   15  O   UNL     1     -12.145  14.609  67.197  1.00  0.00    -0.362 OA 
BRANCH  14  16
HETATM   16  C   UNL     1     -12.022  14.206  69.509  1.00  0.00    -0.389 A  
HETATM   17  C   UNL     1     -12.774  13.395  70.372  1.00  0.00    -0.136 A  
HETATM   18  C   UNL     1     -12.957  13.763  71.706  1.00  0.00    -0.441 A  
HETATM   19  C   UNL     1     -12.395  14.947  72.183  1.00  0.00    -0.351 A  
HETATM   20  C   UNL     1     -11.649  15.763  71.335  1.00  0.00    -0.511 A  
HETATM   21 CL   UNL     1     -12.639  15.415  73.819  1.00  0.00    -0.682 Cl 
HETATM   22  C   UNL     1     -11.472  15.401  69.995  1.00  0.00    -0.335 A  
ENDBRANCH  14  16
ENDBRANCH  11  14
ENDBRANCH   3   8
TORSDOF 3
ENDMDL
MODEL       74
REMARK 921   NORMALIZED FREE ENERGY PREDICTED BY IDOCK:   -5.11 KCAL/MOL
REMARK 922        TOTAL FREE ENERGY PREDICTED BY IDOCK:   -6.63 KCAL/MOL
REMARK 923 INTER-LIGAND FREE ENERGY PREDICTED BY IDOCK:   -5.94 KCAL/MOL
REMARK 924 INTRA-LIGAND FREE ENERGY PREDICTED BY IDOCK:   -0.69 KCAL/MOL
REMARK 927      BINDING AFFINITY PREDICTED BY RF-SCORE:    0.00 PKD
ROOT
HETATM    1  C   UNL     1     -12.050   8.446  72.311  1.00  0.00    -0.456 C  
HETATM    2  C   UNL     1     -10.610   7.999  72.061  1.00  0.00    -0.248 C  
HETATM    3  O   UNL     1      -9.801   9.133  71.670  1.00  0.00    -0.305 OA 
HETATM    4  C   UNL     1     -10.027   7.568  73.428  1.00  0.00    -0.323 C  
HETATM    5  C   UNL     1     -10.503   6.766  71.154  1.00  0.00    -0.239 C  
HETATM    6  O   UNL     1      -8.886   8.225  73.761  1.00  0.00    -0.237 OA 
HETATM    7  O   UNL     1     -10.511   6.710  74.154  1.00  0.00    -0.353 OA 
ENDROOT
BRANCH   3   8
HETATM    8  C   UNL     1      -9.587   9.457  70.365  1.00  0.00    -0.266 A  
HETATM    9  C   UNL     1      -8.476   9.107  69.603  1.00  0.00    -0.133 A  
HETATM   10  C   UNL     1      -8.357   9.566  68.287  1.00  0.00    -0.118 A  
HETATM   11  C   UNL     1      -9.362  10.358  67.721  1.00  0.00    -0.155 A  
HETATM   12  C   UNL     1     -10.630  10.171  69.767  1.00  0.00    -0.298 A  
HETATM   13  C   UNL     1     -10.526  10.615  68.447  1.00  0.00    -0.212 A  
BRANCH  11  14
HETATM   14  C   UNL     1      -9.159  10.889  66.351  1.00  0.00    -0.172 C  
HETATM   15  O   UNL     1      -8.420  10.277  65.584  1.00  0.00    -0.147 OA 
BRANCH  14  16
HETATM   16  C   UNL     1      -9.789  12.162  65.898  1.00  0.00    -0.265 A  
HETATM   17  C   UNL     1     -10.800  12.095  64.928  1.00  0.00    -0.352 A  
HETATM   18  C   UNL     1     -11.388  13.263  64.440  1.00  0.00    -0.415 A  
HETATM   19  C   UNL     1     -10.964  14.504  64.914  1.00  0.00    -0.410 A  
HETATM   20  C   UNL     1      -9.958  14.584  65.875  1.00  0.00    -0.352 A  
HETATM   21 CL   UNL     1     -11.669  15.946  64.296  1.00  0.00    -0.295 Cl 
HETATM   22  C   UNL     1      -9.361  13.415  66.359  1.00  0.00    -0.185 A  
ENDBRANCH  14  16
ENDBRANCH  11  14
ENDBRANCH   3   8
TORSDOF 3
ENDMDL
MODEL       75
REMARK 921   NORMALIZED FREE ENERGY PREDICTED BY IDOCK:   -5.06 KCAL/MOL
REMARK 922        TOTAL FREE ENERGY PREDICTED BY IDOCK:   -6.57 KCAL/MOL
REMARK 923 INTER-LIGAND FREE ENERGY PREDICTED BY IDOCK:   -5.75 KCAL/MOL
REMARK 924 INTRA-LIGAND FREE ENERGY PREDICTED BY IDOCK:   -0.82 KCAL/MOL
REMARK 927      BINDING AFFINITY PREDICTED BY RF-SCORE:    0.00 PKD
ROOT
HETATM    1  C   UNL     1     -12.350  14.156  66.647  1.00  0.00    -0.375 C  
HETATM    2  C   UNL     1     -11.577  13.580  65.461  1.00  0.00    -0.320 C  
HETATM    3  O   UNL     1     -11.826  12.159  65.352  1.00  0.00    -0.375 OA 
HETATM    4  C   UNL     1     -12.204  14.177  64.180  1.00  0.00    -0.390 C  
HETATM    5  C   UNL     1     -10.100  13.997  65.437  1.00  0.00    -0.343 C  
HETATM    6  O   UNL     1     -12.624  13.237  63.294  1.00  0.00    -0.711 OA 
HETATM    7  O   UNL     1     -12.310  15.374  63.947  1.00  0.00    -0.656 OA 
ENDROOT
BRANCH   3   8
HETATM    8  C   UNL     1     -11.008  11.232  65.923  1.00  0.00    -0.157 A  
HETATM    9  C   UNL     1     -10.958  10.901  67.274  1.00  0.00    -0.355 A  
HETATM   10  C   UNL     1     -10.016   9.973  67.733  1.00  0.00    -0.203 A  
HETATM   11  C   UNL     1      -9.137   9.356  66.837  1.00  0.00    -0.160 A  
HETATM   12  C   UNL     1     -10.189  10.547  65.019  1.00  0.00    -0.365 A  
HETATM   13  C   UNL     1      -9.262   9.606  65.469  1.00  0.00    -0.291 A  
BRANCH  11  14
HETATM   14  C   UNL     1      -8.103   8.439  67.375  1.00  0.00    -0.106 C  
HETATM   15  O   UNL     1      -7.038   8.914  67.764  1.00  0.00    -0.077 OA 
BRANCH  14  16
HETATM   16  C   UNL     1      -8.302   6.963  67.415  1.00  0.00    -0.122 A  
HETATM   17  C   UNL     1      -7.935   6.213  66.288  1.00  0.00    -0.106 A  
HETATM   18  C   UNL     1      -8.144   4.833  66.261  1.00  0.00    -0.107 A  
HETATM   19  C   UNL     1      -8.727   4.197  67.357  1.00  0.00    -0.107 A  
HETATM   20  C   UNL     1      -9.100   4.932  68.480  1.00  0.00    -0.143 A  
HETATM   21 CL   UNL     1      -9.009   2.501  67.316  1.00  0.00    -0.167 Cl 
HETATM   22  C   UNL     1      -8.899   6.316  68.507  1.00  0.00    -0.114 A  
ENDBRANCH  14  16
ENDBRANCH  11  14
ENDBRANCH   3   8
TORSDOF 3
ENDMDL
MODEL       76
REMARK 921   NORMALIZED FREE ENERGY PREDICTED BY IDOCK:   -5.05 KCAL/MOL
REMARK 922        TOTAL FREE ENERGY PREDICTED BY IDOCK:   -6.56 KCAL/MOL
REMARK 923 INTER-LIGAND FREE ENERGY PREDICTED BY IDOCK:   -5.81 KCAL/MOL
REMARK 924 INTRA-LIGAND FREE ENERGY PREDICTED BY IDOCK:   -0.75 KCAL/MOL
REMARK 927      BINDING AFFINITY PREDICTED BY RF-SCORE:    0.00 PKD
ROOT
HETATM    1  C   UNL     1      -7.859   8.197  67.466  1.00  0.00    -0.110 C  
HETATM    2  C   UNL     1      -9.307   8.283  67.949  1.00  0.00    -0.138 C  
HETATM    3  O   UNL     1     -10.036   9.248  67.154  1.00  0.00    -0.186 OA 
HETATM    4  C   UNL     1      -9.976   6.929  67.613  1.00  0.00    -0.144 C  
HETATM    5  C   UNL     1      -9.433   8.447  69.469  1.00  0.00    -0.166 C  
HETATM    6  O   UNL     1     -11.096   7.052  66.855  1.00  0.00    -0.359 OA 
HETATM    7  O   UNL     1      -9.573   5.838  67.994  1.00  0.00    -0.115 OA 
ENDROOT
BRANCH   3   8
HETATM    8  C   UNL     1     -10.169  10.549  67.534  1.00  0.00    -0.206 A  
HETATM    9  C   UNL     1      -9.149  11.492  67.607  1.00  0.00    -0.168 A  
HETATM   10  C   UNL     1      -9.420  12.781  68.081  1.00  0.00    -0.219 A  
HETATM   11  C   UNL     1     -10.719  13.136  68.461  1.00  0.00    -0.277 A  
HETATM   12  C   UNL     1     -11.481  10.934  67.829  1.00  0.00    -0.323 A  
HETATM   13  C   UNL     1     -11.761  12.224  68.283  1.00  0.00    -0.392 A  
BRANCH  11  14
HETATM   14  C   UNL     1     -10.948  14.486  69.032  1.00  0.00    -0.257 C  
HETATM   15  O   UNL     1     -11.384  14.576  70.177  1.00  0.00    -0.252 OA 
BRANCH  14  16
HETATM   16  C   UNL     1     -10.707  15.727  68.243  1.00  0.00    -0.281 A  
HETATM   17  C   UNL     1     -10.565  16.938  68.936  1.00  0.00    -0.353 A  
HETATM   18  C   UNL     1     -10.384  18.132  68.237  1.00  0.00    -0.377 A  
HETATM   19  C   UNL     1     -10.349  18.124  66.843  1.00  0.00    -0.375 A  
HETATM   20  C   UNL     1     -10.493  16.928  66.143  1.00  0.00    -0.276 A  
HETATM   21 CL   UNL     1     -10.151  19.598  65.980  1.00  0.00    -0.544 Cl 
HETATM   22  C   UNL     1     -10.684  15.730  66.840  1.00  0.00    -0.299 A  
ENDBRANCH  14  16
ENDBRANCH  11  14
ENDBRANCH   3   8
TORSDOF 3
ENDMDL
MODEL       77
REMARK 921   NORMALIZED FREE ENERGY PREDICTED BY IDOCK:   -5.05 KCAL/MOL
REMARK 922        TOTAL FREE ENERGY PREDICTED BY IDOCK:   -6.55 KCAL/MOL
REMARK 923 INTER-LIGAND FREE ENERGY PREDICTED BY IDOCK:   -5.96 KCAL/MOL
REMARK 924 INTRA-LIGAND FREE ENERGY PREDICTED BY IDOCK:   -0.59 KCAL/MOL
REMARK 927      BINDING AFFINITY PREDICTED BY RF-SCORE:    0.00 PKD
ROOT
HETATM    1  C   UNL     1     -11.448  15.092  65.009  1.00  0.00    -0.364 C  
HETATM    2  C   UNL     1     -10.583  15.137  66.269  1.00  0.00    -0.310 C  
HETATM    3  O   UNL     1      -9.705  13.988  66.306  1.00  0.00    -0.288 OA 
HETATM    4  C   UNL     1      -9.627  16.343  66.117  1.00  0.00    -0.325 C  
HETATM    5  C   UNL     1     -11.387  15.399  67.550  1.00  0.00    -0.269 C  
HETATM    6  O   UNL     1      -8.315  16.012  66.234  1.00  0.00    -0.308 OA 
HETATM    7  O   UNL     1      -9.985  17.498  65.929  1.00  0.00    -0.511 OA 
ENDROOT
BRANCH   3   8
HETATM    8  C   UNL     1     -10.036  12.842  66.963  1.00  0.00    -0.240 A  
HETATM    9  C   UNL     1     -11.257  12.178  66.892  1.00  0.00    -0.375 A  
HETATM   10  C   UNL     1     -11.483  11.042  67.677  1.00  0.00    -0.303 A  
HETATM   11  C   UNL     1     -10.478  10.553  68.519  1.00  0.00    -0.210 A  
HETATM   12  C   UNL     1      -9.005  12.299  67.736  1.00  0.00    -0.177 A  
HETATM   13  C   UNL     1      -9.218  11.154  68.506  1.00  0.00    -0.183 A  
BRANCH  11  14
HETATM   14  C   UNL     1     -10.785   9.394  69.393  1.00  0.00    -0.217 C  
HETATM   15  O   UNL     1     -11.293   9.603  70.492  1.00  0.00    -0.260 OA 
BRANCH  14  16
HETATM   16  C   UNL     1     -10.455   7.997  68.994  1.00  0.00    -0.212 A  
HETATM   17  C   UNL     1     -10.447   7.680  67.628  1.00  0.00    -0.313 A  
HETATM   18  C   UNL     1     -10.187   6.374  67.209  1.00  0.00    -0.237 A  
HETATM   19  C   UNL     1      -9.941   5.377  68.153  1.00  0.00    -0.158 A  
HETATM   20  C   UNL     1      -9.950   5.679  69.513  1.00  0.00    -0.263 A  
HETATM   21 CL   UNL     1      -9.646   3.763  67.640  1.00  0.00    -0.228 Cl 
HETATM   22  C   UNL     1     -10.219   6.985  69.936  1.00  0.00    -0.213 A  
ENDBRANCH  14  16
ENDBRANCH  11  14
ENDBRANCH   3   8
TORSDOF 3
ENDMDL
MODEL       78
REMARK 921   NORMALIZED FREE ENERGY PREDICTED BY IDOCK:   -5.03 KCAL/MOL
REMARK 922        TOTAL FREE ENERGY PREDICTED BY IDOCK:   -6.54 KCAL/MOL
REMARK 923 INTER-LIGAND FREE ENERGY PREDICTED BY IDOCK:   -5.69 KCAL/MOL
REMARK 924 INTRA-LIGAND FREE ENERGY PREDICTED BY IDOCK:   -0.85 KCAL/MOL
REMARK 927      BINDING AFFINITY PREDICTED BY RF-SCORE:    0.00 PKD
ROOT
HETATM    1  C   UNL     1      -8.526  19.499  68.742  1.00  0.00    -0.337 C  
HETATM    2  C   UNL     1      -8.052  18.788  67.475  1.00  0.00    -0.256 C  
HETATM    3  O   UNL     1      -9.192  18.384  66.680  1.00  0.00    -0.288 OA 
HETATM    4  C   UNL     1      -7.335  19.847  66.604  1.00  0.00    -0.250 C  
HETATM    5  C   UNL     1      -7.011  17.693  67.744  1.00  0.00    -0.187 C  
HETATM    6  O   UNL     1      -7.849  19.955  65.351  1.00  0.00    -0.335 OA 
HETATM    7  O   UNL     1      -6.383  20.523  66.969  1.00  0.00    -0.201 OA 
ENDROOT
BRANCH   3   8
HETATM    8  C   UNL     1      -9.746  17.144  66.783  1.00  0.00    -0.271 A  
HETATM    9  C   UNL     1     -10.608  16.710  67.785  1.00  0.00    -0.342 A  
HETATM   10  C   UNL     1     -11.049  15.383  67.802  1.00  0.00    -0.320 A  
HETATM   11  C   UNL     1     -10.648  14.491  66.801  1.00  0.00    -0.276 A  
HETATM   12  C   UNL     1      -9.420  16.276  65.736  1.00  0.00    -0.229 A  
HETATM   13  C   UNL     1      -9.874  14.956  65.736  1.00  0.00    -0.380 A  
BRANCH  11  14
HETATM   14  C   UNL     1     -11.075  13.074  66.900  1.00  0.00    -0.277 C  
HETATM   15  O   UNL     1     -12.246  12.828  67.180  1.00  0.00    -0.404 OA 
BRANCH  14  16
HETATM   16  C   UNL     1     -10.116  11.948  66.716  1.00  0.00    -0.225 A  
HETATM   17  C   UNL     1     -10.473  10.908  65.845  1.00  0.00    -0.285 A  
HETATM   18  C   UNL     1      -9.628   9.810  65.675  1.00  0.00    -0.329 A  
HETATM   19  C   UNL     1      -8.426   9.743  66.379  1.00  0.00    -0.124 A  
HETATM   20  C   UNL     1      -8.062  10.768  67.249  1.00  0.00    -0.117 A  
HETATM   21 CL   UNL     1      -7.395   8.379  66.190  1.00  0.00    -0.083 Cl 
HETATM   22  C   UNL     1      -8.911  11.865  67.429  1.00  0.00    -0.173 A  
ENDBRANCH  14  16
ENDBRANCH  11  14
ENDBRANCH   3   8
TORSDOF 3
ENDMDL
MODEL       79
REMARK 921   NORMALIZED FREE ENERGY PREDICTED BY IDOCK:   -5.03 KCAL/MOL
REMARK 922        TOTAL FREE ENERGY PREDICTED BY IDOCK:   -6.53 KCAL/MOL
REMARK 923 INTER-LIGAND FREE ENERGY PREDICTED BY IDOCK:   -6.44 KCAL/MOL
REMARK 924 INTRA-LIGAND FREE ENERGY PREDICTED BY IDOCK:   -0.09 KCAL/MOL
REMARK 927      BINDING AFFINITY PREDICTED BY RF-SCORE:    0.00 PKD
ROOT
HETATM    1  C   UNL     1      -9.411  10.822  64.043  1.00  0.00    -0.312 C  
HETATM    2  C   UNL     1      -8.627   9.849  64.924  1.00  0.00    -0.169 C  
HETATM    3  O   UNL     1      -9.541   8.986  65.641  1.00  0.00    -0.247 OA 
HETATM    4  C   UNL     1      -7.866   8.893  63.975  1.00  0.00    -0.137 C  
HETATM    5  C   UNL     1      -7.553  10.533  65.780  1.00  0.00    -0.142 C  
HETATM    6  O   UNL     1      -8.132   7.581  64.201  1.00  0.00    -0.131 OA 
HETATM    7  O   UNL     1      -7.079   9.251  63.109  1.00  0.00    -0.089 OA 
ENDROOT
BRANCH   3   8
HETATM    8  C   UNL     1      -9.974   9.274  66.900  1.00  0.00    -0.233 A  
HETATM    9  C   UNL     1      -9.575   8.638  68.072  1.00  0.00    -0.168 A  
HETATM   10  C   UNL     1     -10.155   8.995  69.294  1.00  0.00    -0.197 A  
HETATM   11  C   UNL     1     -11.120  10.006  69.350  1.00  0.00    -0.265 A  
HETATM   12  C   UNL     1     -10.872  10.343  66.973  1.00  0.00    -0.269 A  
HETATM   13  C   UNL     1     -11.439  10.717  68.192  1.00  0.00    -0.346 A  
BRANCH  11  14
HETATM   14  C   UNL     1     -11.767  10.297  70.653  1.00  0.00    -0.348 C  
HETATM   15  O   UNL     1     -11.876   9.390  71.474  1.00  0.00    -0.333 OA 
BRANCH  14  16
HETATM   16  C   UNL     1     -12.326  11.641  70.972  1.00  0.00    -0.405 A  
HETATM   17  C   UNL     1     -13.261  11.742  72.013  1.00  0.00    -0.460 A  
HETATM   18  C   UNL     1     -13.846  12.972  72.318  1.00  0.00    -0.529 A  
HETATM   19  C   UNL     1     -13.504  14.106  71.582  1.00  0.00    -0.369 A  
HETATM   20  C   UNL     1     -12.579  14.018  70.543  1.00  0.00    -0.399 A  
HETATM   21 CL   UNL     1     -14.241  15.618  71.940  1.00  0.00    -0.535 Cl 
HETATM   22  C   UNL     1     -11.999  12.785  70.229  1.00  0.00    -0.358 A  
ENDBRANCH  14  16
ENDBRANCH  11  14
ENDBRANCH   3   8
TORSDOF 3
ENDMDL
MODEL       80
REMARK 921   NORMALIZED FREE ENERGY PREDICTED BY IDOCK:   -5.02 KCAL/MOL
REMARK 922        TOTAL FREE ENERGY PREDICTED BY IDOCK:   -6.53 KCAL/MOL
REMARK 923 INTER-LIGAND FREE ENERGY PREDICTED BY IDOCK:   -5.98 KCAL/MOL
REMARK 924 INTRA-LIGAND FREE ENERGY PREDICTED BY IDOCK:   -0.55 KCAL/MOL
REMARK 927      BINDING AFFINITY PREDICTED BY RF-SCORE:    0.00 PKD
ROOT
HETATM    1  C   UNL     1      -8.918   6.612  70.816  1.00  0.00    -0.151 C  
HETATM    2  C   UNL     1     -10.124   7.356  71.390  1.00  0.00    -0.186 C  
HETATM    3  O   UNL     1     -11.100   7.592  70.348  1.00  0.00    -0.259 OA 
HETATM    4  C   UNL     1     -10.833   6.384  72.363  1.00  0.00    -0.236 C  
HETATM    5  C   UNL     1      -9.741   8.582  72.229  1.00  0.00    -0.380 C  
HETATM    6  O   UNL     1     -12.144   6.186  72.070  1.00  0.00    -0.318 OA 
HETATM    7  O   UNL     1     -10.299   5.845  73.323  1.00  0.00    -0.191 OA 
ENDROOT
BRANCH   3   8
HETATM    8  C   UNL     1     -11.132   8.751  69.633  1.00  0.00    -0.028 A  
HETATM    9  C   UNL     1     -11.587   9.985  70.088  1.00  0.00    -0.320 A  
HETATM   10  C   UNL     1     -11.624  11.081  69.219  1.00  0.00    -0.384 A  
HETATM   11  C   UNL     1     -11.184  10.951  67.898  1.00  0.00    -0.387 A  
HETATM   12  C   UNL     1     -10.610   8.648  68.340  1.00  0.00    -0.169 A  
HETATM   13  C   UNL     1     -10.625   9.743  67.474  1.00  0.00    -0.335 A  
BRANCH  11  14
HETATM   14  C   UNL     1     -11.315  12.115  66.988  1.00  0.00    -0.337 C  
HETATM   15  O   UNL     1     -12.285  12.171  66.237  1.00  0.00    -0.604 OA 
BRANCH  14  16
HETATM   16  C   UNL     1     -10.283  13.189  66.929  1.00  0.00    -0.245 A  
HETATM   17  C   UNL     1      -8.983  12.886  67.358  1.00  0.00    -0.199 A  
HETATM   18  C   UNL     1      -7.995  13.871  67.365  1.00  0.00    -0.184 A  
HETATM   19  C   UNL     1      -8.302  15.166  66.948  1.00  0.00    -0.232 A  
HETATM   20  C   UNL     1      -9.591  15.481  66.523  1.00  0.00    -0.295 A  
HETATM   21 CL   UNL     1      -7.092  16.388  66.979  1.00  0.00    -0.240 Cl 
HETATM   22  C   UNL     1     -10.586  14.498  66.525  1.00  0.00    -0.297 A  
ENDBRANCH  14  16
ENDBRANCH  11  14
ENDBRANCH   3   8
TORSDOF 3
ENDMDL
MODEL       81
REMARK 921   NORMALIZED FREE ENERGY PREDICTED BY IDOCK:   -4.99 KCAL/MOL
REMARK 922        TOTAL FREE ENERGY PREDICTED BY IDOCK:   -6.49 KCAL/MOL
REMARK 923 INTER-LIGAND FREE ENERGY PREDICTED BY IDOCK:   -5.74 KCAL/MOL
REMARK 924 INTRA-LIGAND FREE ENERGY PREDICTED BY IDOCK:   -0.75 KCAL/MOL
REMARK 927      BINDING AFFINITY PREDICTED BY RF-SCORE:    0.00 PKD
ROOT
HETATM    1  C   UNL     1     -10.377   8.152  66.708  1.00  0.00    -0.361 C  
HETATM    2  C   UNL     1      -9.350   9.216  66.321  1.00  0.00    -0.216 C  
HETATM    3  O   UNL     1      -8.870   9.892  67.507  1.00  0.00    -0.128 OA 
HETATM    4  C   UNL     1      -8.109   8.469  65.779  1.00  0.00    -0.116 C  
HETATM    5  C   UNL     1      -9.820  10.130  65.182  1.00  0.00    -0.394 C  
HETATM    6  O   UNL     1      -6.959   8.787  66.429  1.00  0.00    -0.079 OA 
HETATM    7  O   UNL     1      -8.123   7.679  64.844  1.00  0.00    -0.134 OA 
ENDROOT
BRANCH   3   8
HETATM    8  C   UNL     1      -9.425  11.052  67.956  1.00  0.00    -0.166 A  
HETATM    9  C   UNL     1     -10.688  11.192  68.522  1.00  0.00    -0.235 A  
HETATM   10  C   UNL     1     -11.158  12.461  68.879  1.00  0.00    -0.307 A  
HETATM   11  C   UNL     1     -10.354  13.591  68.694  1.00  0.00    -0.220 A  
HETATM   12  C   UNL     1      -8.591  12.170  67.856  1.00  0.00    -0.167 A  
HETATM   13  C   UNL     1      -9.046  13.435  68.230  1.00  0.00    -0.181 A  
BRANCH  11  14
HETATM   14  C   UNL     1     -10.920  14.925  69.012  1.00  0.00    -0.245 C  
HETATM   15  O   UNL     1     -11.677  15.030  69.974  1.00  0.00    -0.267 OA 
BRANCH  14  16
HETATM   16  C   UNL     1     -10.632  16.123  68.174  1.00  0.00    -0.290 A  
HETATM   17  C   UNL     1     -10.408  17.347  68.821  1.00  0.00    -0.357 A  
HETATM   18  C   UNL     1     -10.179  18.506  68.076  1.00  0.00    -0.415 A  
HETATM   19  C   UNL     1     -10.181  18.448  66.683  1.00  0.00    -0.394 A  
HETATM   20  C   UNL     1     -10.406  17.239  66.029  1.00  0.00    -0.312 A  
HETATM   21 CL   UNL     1      -9.924  19.879  65.764  1.00  0.00    -0.461 Cl 
HETATM   22  C   UNL     1     -10.644  16.078  66.772  1.00  0.00    -0.297 A  
ENDBRANCH  14  16
ENDBRANCH  11  14
ENDBRANCH   3   8
TORSDOF 3
ENDMDL
MODEL       82
REMARK 921   NORMALIZED FREE ENERGY PREDICTED BY IDOCK:   -4.96 KCAL/MOL
REMARK 922        TOTAL FREE ENERGY PREDICTED BY IDOCK:   -6.45 KCAL/MOL
REMARK 923 INTER-LIGAND FREE ENERGY PREDICTED BY IDOCK:   -5.70 KCAL/MOL
REMARK 924 INTRA-LIGAND FREE ENERGY PREDICTED BY IDOCK:   -0.75 KCAL/MOL
REMARK 927      BINDING AFFINITY PREDICTED BY RF-SCORE:    0.00 PKD
ROOT
HETATM    1  C   UNL     1     -11.024  14.928  69.740  1.00  0.00    -0.280 C  
HETATM    2  C   UNL     1     -10.808  14.208  68.409  1.00  0.00    -0.254 C  
HETATM    3  O   UNL     1     -11.777  13.144  68.261  1.00  0.00    -0.309 OA 
HETATM    4  C   UNL     1     -11.170  15.212  67.289  1.00  0.00    -0.324 C  
HETATM    5  C   UNL     1      -9.346  13.813  68.160  1.00  0.00    -0.211 C  
HETATM    6  O   UNL     1     -12.119  14.750  66.433  1.00  0.00    -0.264 OA 
HETATM    7  O   UNL     1     -10.658  16.314  67.147  1.00  0.00    -0.312 OA 
ENDROOT
BRANCH   3   8
HETATM    8  C   UNL     1     -11.508  11.861  68.630  1.00  0.00    -0.294 A  
HETATM    9  C   UNL     1     -11.613  11.337  69.915  1.00  0.00    -0.413 A  
HETATM   10  C   UNL     1     -11.238  10.012  70.164  1.00  0.00    -0.367 A  
HETATM   11  C   UNL     1     -10.779   9.200  69.121  1.00  0.00    -0.190 A  
HETATM   12  C   UNL     1     -11.135  11.021  67.576  1.00  0.00    -0.366 A  
HETATM   13  C   UNL     1     -10.779   9.692  67.815  1.00  0.00    -0.316 A  
BRANCH  11  14
HETATM   14  C   UNL     1     -10.317   7.827  69.442  1.00  0.00    -0.219 C  
HETATM   15  O   UNL     1     -10.164   7.516  70.620  1.00  0.00    -0.201 OA 
BRANCH  14  16
HETATM   16  C   UNL     1      -9.992   6.836  68.377  1.00  0.00    -0.153 A  
HETATM   17  C   UNL     1      -8.642   6.577  68.101  1.00  0.00    -0.118 A  
HETATM   18  C   UNL     1      -8.288   5.691  67.082  1.00  0.00    -0.104 A  
HETATM   19  C   UNL     1      -9.282   5.065  66.330  1.00  0.00    -0.144 A  
HETATM   20  C   UNL     1     -10.626   5.317  66.592  1.00  0.00    -0.334 A  
HETATM   21 CL   UNL     1      -8.848   3.992  65.058  1.00  0.00    -0.123 Cl 
HETATM   22  C   UNL     1     -10.983   6.211  67.606  1.00  0.00    -0.400 A  
ENDBRANCH  14  16
ENDBRANCH  11  14
ENDBRANCH   3   8
TORSDOF 3
ENDMDL
MODEL       83
REMARK 921   NORMALIZED FREE ENERGY PREDICTED BY IDOCK:   -4.95 KCAL/MOL
REMARK 922        TOTAL FREE ENERGY PREDICTED BY IDOCK:   -6.44 KCAL/MOL
REMARK 923 INTER-LIGAND FREE ENERGY PREDICTED BY IDOCK:   -5.89 KCAL/MOL
REMARK 924 INTRA-LIGAND FREE ENERGY PREDICTED BY IDOCK:   -0.55 KCAL/MOL
REMARK 927      BINDING AFFINITY PREDICTED BY RF-SCORE:    0.00 PKD
ROOT
HETATM    1  C   UNL     1     -11.086   5.931  70.006  1.00  0.00    -0.411 C  
HETATM    2  C   UNL     1      -9.875   6.710  69.492  1.00  0.00    -0.152 C  
HETATM    3  O   UNL     1      -9.642   7.869  70.327  1.00  0.00    -0.171 OA 
HETATM    4  C   UNL     1      -8.632   5.818  69.723  1.00  0.00    -0.127 C  
HETATM    5  C   UNL     1      -9.921   6.980  67.982  1.00  0.00    -0.178 C  
HETATM    6  O   UNL     1      -7.662   6.421  70.458  1.00  0.00    -0.100 OA 
HETATM    7  O   UNL     1      -8.497   4.684  69.285  1.00  0.00    -0.079 OA 
ENDROOT
BRANCH   3   8
HETATM    8  C   UNL     1     -10.154   9.094  70.027  1.00  0.00    -0.206 A  
HETATM    9  C   UNL     1      -9.640   9.995  69.099  1.00  0.00    -0.217 A  
HETATM   10  C   UNL     1     -10.233  11.252  68.941  1.00  0.00    -0.195 A  
HETATM   11  C   UNL     1     -11.359  11.603  69.693  1.00  0.00    -0.308 A  
HETATM   12  C   UNL     1     -11.331   9.414  70.711  1.00  0.00    -0.363 A  
HETATM   13  C   UNL     1     -11.940  10.659  70.542  1.00  0.00    -0.446 A  
BRANCH  11  14
HETATM   14  C   UNL     1     -11.908  12.973  69.552  1.00  0.00    -0.323 C  
HETATM   15  O   UNL     1     -12.595  13.431  70.462  1.00  0.00    -0.286 OA 
BRANCH  14  16
HETATM   16  C   UNL     1     -11.689  13.788  68.323  1.00  0.00    -0.394 A  
HETATM   17  C   UNL     1     -12.259  13.343  67.121  1.00  0.00    -0.306 A  
HETATM   18  C   UNL     1     -12.044  14.048  65.936  1.00  0.00    -0.448 A  
HETATM   19  C   UNL     1     -11.252  15.196  65.944  1.00  0.00    -0.280 A  
HETATM   20  C   UNL     1     -10.677  15.645  67.131  1.00  0.00    -0.314 A  
HETATM   21 CL   UNL     1     -10.964  16.052  64.481  1.00  0.00    -0.330 Cl 
HETATM   22  C   UNL     1     -10.884  14.936  68.319  1.00  0.00    -0.257 A  
ENDBRANCH  14  16
ENDBRANCH  11  14
ENDBRANCH   3   8
TORSDOF 3
ENDMDL
MODEL       84
REMARK 921   NORMALIZED FREE ENERGY PREDICTED BY IDOCK:   -4.93 KCAL/MOL
REMARK 922        TOTAL FREE ENERGY PREDICTED BY IDOCK:   -6.42 KCAL/MOL
REMARK 923 INTER-LIGAND FREE ENERGY PREDICTED BY IDOCK:   -5.79 KCAL/MOL
REMARK 924 INTRA-LIGAND FREE ENERGY PREDICTED BY IDOCK:   -0.63 KCAL/MOL
REMARK 927      BINDING AFFINITY PREDICTED BY RF-SCORE:    0.00 PKD
ROOT
HETATM    1  C   UNL     1     -12.740   7.605  72.119  1.00  0.00    -0.191 C  
HETATM    2  C   UNL     1     -11.353   7.094  71.730  1.00  0.00    -0.252 C  
HETATM    3  O   UNL     1     -10.366   8.129  71.951  1.00  0.00    -0.204 OA 
HETATM    4  C   UNL     1     -10.978   5.987  72.744  1.00  0.00    -0.264 C  
HETATM    5  C   UNL     1     -11.314   6.427  70.349  1.00  0.00    -0.453 C  
HETATM    6  O   UNL     1      -9.802   6.215  73.384  1.00  0.00    -0.156 OA 
HETATM    7  O   UNL     1     -11.643   4.983  72.958  1.00  0.00    -0.312 OA 
ENDROOT
BRANCH   3   8
HETATM    8  C   UNL     1      -9.976   8.983  70.964  1.00  0.00    -0.279 A  
HETATM    9  C   UNL     1      -8.730   9.009  70.346  1.00  0.00    -0.224 A  
HETATM   10  C   UNL     1      -8.444   9.989  69.389  1.00  0.00    -0.176 A  
HETATM   11  C   UNL     1      -9.414  10.931  69.029  1.00  0.00    -0.160 A  
HETATM   12  C   UNL     1     -10.971   9.868  70.538  1.00  0.00    -0.391 A  
HETATM   13  C   UNL     1     -10.698  10.835  69.568  1.00  0.00    -0.268 A  
BRANCH  11  14
HETATM   14  C   UNL     1      -9.044  12.000  68.070  1.00  0.00    -0.188 C  
HETATM   15  O   UNL     1      -8.066  12.702  68.316  1.00  0.00    -0.152 OA 
BRANCH  14  16
HETATM   16  C   UNL     1      -9.848  12.273  66.845  1.00  0.00    -0.216 A  
HETATM   17  C   UNL     1     -10.002  11.241  65.908  1.00  0.00    -0.277 A  
HETATM   18  C   UNL     1     -10.709  11.463  64.725  1.00  0.00    -0.362 A  
HETATM   19  C   UNL     1     -11.260  12.719  64.470  1.00  0.00    -0.333 A  
HETATM   20  C   UNL     1     -11.110  13.753  65.391  1.00  0.00    -0.304 A  
HETATM   21 CL   UNL     1     -12.110  13.001  63.002  1.00  0.00    -0.343 Cl 
HETATM   22  C   UNL     1     -10.395  13.535  66.574  1.00  0.00    -0.282 A  
ENDBRANCH  14  16
ENDBRANCH  11  14
ENDBRANCH   3   8
TORSDOF 3
ENDMDL
MODEL       85
REMARK 921   NORMALIZED FREE ENERGY PREDICTED BY IDOCK:   -4.92 KCAL/MOL
REMARK 922        TOTAL FREE ENERGY PREDICTED BY IDOCK:   -6.40 KCAL/MOL
REMARK 923 INTER-LIGAND FREE ENERGY PREDICTED BY IDOCK:   -5.60 KCAL/MOL
REMARK 924 INTRA-LIGAND FREE ENERGY PREDICTED BY IDOCK:   -0.80 KCAL/MOL
REMARK 927      BINDING AFFINITY PREDICTED BY RF-SCORE:    0.00 PKD
ROOT
HETATM    1  C   UNL     1      -9.875   4.871  68.604  1.00  0.00    -0.221 C  
HETATM    2  C   UNL     1      -9.366   4.994  67.167  1.00  0.00    -0.125 C  
HETATM    3  O   UNL     1      -8.518   6.160  67.042  1.00  0.00    -0.106 OA 
HETATM    4  C   UNL     1      -8.413   3.801  66.921  1.00  0.00    -0.105 C  
HETATM    5  C   UNL     1     -10.477   4.867  66.116  1.00  0.00    -0.346 C  
HETATM    6  O   UNL     1      -7.174   4.174  66.510  1.00  0.00    -0.072 OA 
HETATM    7  O   UNL     1      -8.720   2.624  67.055  1.00  0.00    -0.106 OA 
ENDROOT
BRANCH   3   8
HETATM    8  C   UNL     1      -8.999   7.367  66.635  1.00  0.00    -0.146 A  
HETATM    9  C   UNL     1      -9.983   8.117  67.273  1.00  0.00    -0.283 A  
HETATM   10  C   UNL     1     -10.429   9.315  66.704  1.00  0.00    -0.237 A  
HETATM   11  C   UNL     1      -9.875   9.778  65.506  1.00  0.00    -0.378 A  
HETATM   12  C   UNL     1      -8.385   7.878  65.488  1.00  0.00    -0.152 A  
HETATM   13  C   UNL     1      -8.812   9.083  64.926  1.00  0.00    -0.190 A  
BRANCH  11  14
HETATM   14  C   UNL     1     -10.432  11.010  64.895  1.00  0.00    -0.303 C  
HETATM   15  O   UNL     1     -10.619  11.035  63.681  1.00  0.00    -0.362 OA 
BRANCH  14  16
HETATM   16  C   UNL     1     -10.726  12.227  65.704  1.00  0.00    -0.302 A  
HETATM   17  C   UNL     1      -9.682  12.800  66.445  1.00  0.00    -0.261 A  
HETATM   18  C   UNL     1      -9.920  13.913  67.253  1.00  0.00    -0.242 A  
HETATM   19  C   UNL     1     -11.203  14.455  67.330  1.00  0.00    -0.323 A  
HETATM   20  C   UNL     1     -12.249  13.892  66.601  1.00  0.00    -0.465 A  
HETATM   21 CL   UNL     1     -11.503  15.811  68.344  1.00  0.00    -0.374 Cl 
HETATM   22  C   UNL     1     -12.015  12.771  65.798  1.00  0.00    -0.502 A  
ENDBRANCH  14  16
ENDBRANCH  11  14
ENDBRANCH   3   8
TORSDOF 3
ENDMDL
MODEL       86
REMARK 921   NORMALIZED FREE ENERGY PREDICTED BY IDOCK:   -4.91 KCAL/MOL
REMARK 922        TOTAL FREE ENERGY PREDICTED BY IDOCK:   -6.39 KCAL/MOL
REMARK 923 INTER-LIGAND FREE ENERGY PREDICTED BY IDOCK:   -6.15 KCAL/MOL
REMARK 924 INTRA-LIGAND FREE ENERGY PREDICTED BY IDOCK:   -0.24 KCAL/MOL
REMARK 927      BINDING AFFINITY PREDICTED BY RF-SCORE:    0.00 PKD
ROOT
HETATM    1  C   UNL     1     -11.749  13.338  63.704  1.00  0.00    -0.447 C  
HETATM    2  C   UNL     1     -11.648  14.184  64.973  1.00  0.00    -0.362 C  
HETATM    3  O   UNL     1     -10.531  13.737  65.777  1.00  0.00    -0.284 OA 
HETATM    4  C   UNL     1     -11.253  15.613  64.533  1.00  0.00    -0.325 C  
HETATM    5  C   UNL     1     -12.983  14.329  65.716  1.00  0.00    -0.149 C  
HETATM    6  O   UNL     1     -10.126  16.073  65.136  1.00  0.00    -0.485 OA 
HETATM    7  O   UNL     1     -11.883  16.298  63.738  1.00  0.00    -0.955 OA 
ENDROOT
BRANCH   3   8
HETATM    8  C   UNL     1     -10.677  12.827  66.781  1.00  0.00    -0.260 A  
HETATM    9  C   UNL     1     -11.430  12.996  67.939  1.00  0.00    -0.352 A  
HETATM   10  C   UNL     1     -11.437  11.999  68.920  1.00  0.00    -0.356 A  
HETATM   11  C   UNL     1     -10.708  10.819  68.735  1.00  0.00    -0.243 A  
HETATM   12  C   UNL     1     -10.024  11.611  66.559  1.00  0.00    -0.230 A  
HETATM   13  C   UNL     1     -10.044  10.604  67.526  1.00  0.00    -0.217 A  
BRANCH  11  14
HETATM   14  C   UNL     1     -10.678   9.823  69.833  1.00  0.00    -0.268 C  
HETATM   15  O   UNL     1     -11.743   9.439  70.311  1.00  0.00    -0.206 OA 
BRANCH  14  16
HETATM   16  C   UNL     1      -9.397   9.313  70.400  1.00  0.00    -0.295 A  
HETATM   17  C   UNL     1      -9.444   8.197  71.248  1.00  0.00    -0.199 A  
HETATM   18  C   UNL     1      -8.276   7.711  71.838  1.00  0.00    -0.121 A  
HETATM   19  C   UNL     1      -7.057   8.342  71.590  1.00  0.00    -0.082 A  
HETATM   20  C   UNL     1      -6.999   9.454  70.753  1.00  0.00    -0.117 A  
HETATM   21 CL   UNL     1      -5.621   7.760  72.336  1.00  0.00    -0.036 Cl 
HETATM   22  C   UNL     1      -8.169   9.948  70.167  1.00  0.00    -0.162 A  
ENDBRANCH  14  16
ENDBRANCH  11  14
ENDBRANCH   3   8
TORSDOF 3
ENDMDL
MODEL       87
REMARK 921   NORMALIZED FREE ENERGY PREDICTED BY IDOCK:   -4.89 KCAL/MOL
REMARK 922        TOTAL FREE ENERGY PREDICTED BY IDOCK:   -6.37 KCAL/MOL
REMARK 923 INTER-LIGAND FREE ENERGY PREDICTED BY IDOCK:   -5.76 KCAL/MOL
REMARK 924 INTRA-LIGAND FREE ENERGY PREDICTED BY IDOCK:   -0.61 KCAL/MOL
REMARK 927      BINDING AFFINITY PREDICTED BY RF-SCORE:    0.00 PKD
ROOT
HETATM    1  C   UNL     1     -12.367  12.449  63.221  1.00  0.00    -0.497 C  
HETATM    2  C   UNL     1     -11.708  12.988  64.492  1.00  0.00    -0.369 C  
HETATM    3  O   UNL     1     -10.306  12.630  64.511  1.00  0.00    -0.325 OA 
HETATM    4  C   UNL     1     -11.707  14.531  64.381  1.00  0.00    -0.367 C  
HETATM    5  C   UNL     1     -12.493  12.661  65.770  1.00  0.00    -0.159 C  
HETATM    6  O   UNL     1     -10.472  15.081  64.505  1.00  0.00    -0.208 OA 
HETATM    7  O   UNL     1     -12.706  15.219  64.218  1.00  0.00    -0.551 OA 
ENDROOT
BRANCH   3   8
HETATM    8  C   UNL     1      -9.851  11.509  65.135  1.00  0.00    -0.257 A  
HETATM    9  C   UNL     1      -9.606  10.277  64.537  1.00  0.00    -0.378 A  
HETATM   10  C   UNL     1      -9.203   9.188  65.316  1.00  0.00    -0.243 A  
HETATM   11  C   UNL     1      -9.019   9.335  66.696  1.00  0.00    -0.165 A  
HETATM   12  C   UNL     1      -9.581  11.675  66.497  1.00  0.00    -0.226 A  
HETATM   13  C   UNL     1      -9.158  10.597  67.277  1.00  0.00    -0.151 A  
BRANCH  11  14
HETATM   14  C   UNL     1      -8.668   8.137  67.497  1.00  0.00    -0.129 C  
HETATM   15  O   UNL     1      -7.777   7.396  67.090  1.00  0.00    -0.110 OA 
BRANCH  14  16
HETATM   16  C   UNL     1      -9.394   7.786  68.750  1.00  0.00    -0.146 A  
HETATM   17  C   UNL     1     -10.499   6.926  68.659  1.00  0.00    -0.217 A  
HETATM   18  C   UNL     1     -11.238   6.605  69.799  1.00  0.00    -0.413 A  
HETATM   19  C   UNL     1     -10.881   7.147  71.034  1.00  0.00    -0.240 A  
HETATM   20  C   UNL     1      -9.789   8.005  71.136  1.00  0.00    -0.198 A  
HETATM   21 CL   UNL     1     -11.805   6.772  72.435  1.00  0.00    -0.261 Cl 
HETATM   22  C   UNL     1      -9.052   8.336  69.994  1.00  0.00    -0.150 A  
ENDBRANCH  14  16
ENDBRANCH  11  14
ENDBRANCH   3   8
TORSDOF 3
ENDMDL
MODEL       88
REMARK 921   NORMALIZED FREE ENERGY PREDICTED BY IDOCK:   -4.83 KCAL/MOL
REMARK 922        TOTAL FREE ENERGY PREDICTED BY IDOCK:   -6.29 KCAL/MOL
REMARK 923 INTER-LIGAND FREE ENERGY PREDICTED BY IDOCK:   -5.54 KCAL/MOL
REMARK 924 INTRA-LIGAND FREE ENERGY PREDICTED BY IDOCK:   -0.75 KCAL/MOL
REMARK 927      BINDING AFFINITY PREDICTED BY RF-SCORE:    0.00 PKD
ROOT
HETATM    1  C   UNL     1      -9.616   3.589  70.298  1.00  0.00    -0.232 C  
HETATM    2  C   UNL     1      -9.872   4.914  71.017  1.00  0.00    -0.195 C  
HETATM    3  O   UNL     1     -11.026   5.572  70.443  1.00  0.00    -0.253 OA 
HETATM    4  C   UNL     1     -10.309   4.568  72.460  1.00  0.00    -0.195 C  
HETATM    5  C   UNL     1      -8.615   5.784  71.158  1.00  0.00    -0.128 C  
HETATM    6  O   UNL     1     -11.508   5.105  72.806  1.00  0.00    -0.268 OA 
HETATM    7  O   UNL     1      -9.654   3.896  73.245  1.00  0.00    -0.110 OA 
ENDROOT
BRANCH   3   8
HETATM    8  C   UNL     1     -10.914   6.500  69.453  1.00  0.00    -0.337 A  
HETATM    9  C   UNL     1     -10.863   6.242  68.086  1.00  0.00    -0.401 A  
HETATM   10  C   UNL     1     -10.678   7.293  67.181  1.00  0.00    -0.413 A  
HETATM   11  C   UNL     1     -10.568   8.610  67.641  1.00  0.00    -0.272 A  
HETATM   12  C   UNL     1     -10.894   7.825  69.900  1.00  0.00    -0.228 A  
HETATM   13  C   UNL     1     -10.730   8.880  69.001  1.00  0.00    -0.148 A  
BRANCH  11  14
HETATM   14  C   UNL     1     -10.294   9.685  66.655  1.00  0.00    -0.208 C  
HETATM   15  O   UNL     1      -9.934   9.370  65.524  1.00  0.00    -0.281 OA 
BRANCH  14  16
HETATM   16  C   UNL     1     -10.399  11.128  67.013  1.00  0.00    -0.263 A  
HETATM   17  C   UNL     1      -9.232  11.804  67.397  1.00  0.00    -0.174 A  
HETATM   18  C   UNL     1      -9.288  13.143  67.784  1.00  0.00    -0.206 A  
HETATM   19  C   UNL     1     -10.511  13.813  67.797  1.00  0.00    -0.240 A  
HETATM   20  C   UNL     1     -11.679  13.151  67.421  1.00  0.00    -0.419 A  
HETATM   21 CL   UNL     1     -10.586  15.456  68.297  1.00  0.00    -0.247 Cl 
HETATM   22  C   UNL     1     -11.627  11.806  67.041  1.00  0.00    -0.321 A  
ENDBRANCH  14  16
ENDBRANCH  11  14
ENDBRANCH   3   8
TORSDOF 3
ENDMDL
MODEL       89
REMARK 921   NORMALIZED FREE ENERGY PREDICTED BY IDOCK:   -4.82 KCAL/MOL
REMARK 922        TOTAL FREE ENERGY PREDICTED BY IDOCK:   -6.28 KCAL/MOL
REMARK 923 INTER-LIGAND FREE ENERGY PREDICTED BY IDOCK:   -5.59 KCAL/MOL
REMARK 924 INTRA-LIGAND FREE ENERGY PREDICTED BY IDOCK:   -0.70 KCAL/MOL
REMARK 927      BINDING AFFINITY PREDICTED BY RF-SCORE:    0.00 PKD
ROOT
HETATM    1  C   UNL     1     -10.353   5.925  73.924  1.00  0.00    -0.287 C  
HETATM    2  C   UNL     1      -9.104   6.425  73.198  1.00  0.00    -0.128 C  
HETATM    3  O   UNL     1      -9.094   7.872  73.171  1.00  0.00    -0.202 OA 
HETATM    4  C   UNL     1      -7.889   6.052  74.080  1.00  0.00    -0.101 C  
HETATM    5  C   UNL     1      -8.868   5.736  71.847  1.00  0.00    -0.139 C  
HETATM    6  O   UNL     1      -7.111   7.116  74.407  1.00  0.00    -0.098 OA 
HETATM    7  O   UNL     1      -7.617   4.917  74.448  1.00  0.00    -0.088 OA 
ENDROOT
BRANCH   3   8
HETATM    8  C   UNL     1      -9.596   8.581  72.122  1.00  0.00    -0.312 A  
HETATM    9  C   UNL     1     -10.924   8.957  71.944  1.00  0.00    -0.439 A  
HETATM   10  C   UNL     1     -11.311   9.630  70.781  1.00  0.00    -0.409 A  
HETATM   11  C   UNL     1     -10.365   9.951  69.801  1.00  0.00    -0.278 A  
HETATM   12  C   UNL     1      -8.639   8.983  71.184  1.00  0.00    -0.250 A  
HETATM   13  C   UNL     1      -9.017   9.672  70.031  1.00  0.00    -0.266 A  
BRANCH  11  14
HETATM   14  C   UNL     1     -10.831  10.593  68.548  1.00  0.00    -0.233 C  
HETATM   15  O   UNL     1     -11.043   9.886  67.566  1.00  0.00    -0.257 OA 
BRANCH  14  16
HETATM   16  C   UNL     1     -11.003  12.069  68.436  1.00  0.00    -0.276 A  
HETATM   17  C   UNL     1     -10.273  12.750  67.451  1.00  0.00    -0.222 A  
HETATM   18  C   UNL     1     -10.367  14.138  67.337  1.00  0.00    -0.256 A  
HETATM   19  C   UNL     1     -11.186  14.853  68.211  1.00  0.00    -0.294 A  
HETATM   20  C   UNL     1     -11.914  14.188  69.195  1.00  0.00    -0.388 A  
HETATM   21 CL   UNL     1     -11.284  16.566  68.088  1.00  0.00    -0.307 Cl 
HETATM   22  C   UNL     1     -11.814  12.798  69.317  1.00  0.00    -0.358 A  
ENDBRANCH  14  16
ENDBRANCH  11  14
ENDBRANCH   3   8
TORSDOF 3
ENDMDL
MODEL       90
REMARK 921   NORMALIZED FREE ENERGY PREDICTED BY IDOCK:   -4.80 KCAL/MOL
REMARK 922        TOTAL FREE ENERGY PREDICTED BY IDOCK:   -6.26 KCAL/MOL
REMARK 923 INTER-LIGAND FREE ENERGY PREDICTED BY IDOCK:   -5.43 KCAL/MOL
REMARK 924 INTRA-LIGAND FREE ENERGY PREDICTED BY IDOCK:   -0.83 KCAL/MOL
REMARK 927      BINDING AFFINITY PREDICTED BY RF-SCORE:    0.00 PKD
ROOT
HETATM    1  C   UNL     1     -11.971  12.941  69.519  1.00  0.00    -0.346 C  
HETATM    2  C   UNL     1     -11.306  13.023  68.144  1.00  0.00    -0.294 C  
HETATM    3  O   UNL     1     -11.727  11.908  67.324  1.00  0.00    -0.518 OA 
HETATM    4  C   UNL     1     -11.894  14.264  67.432  1.00  0.00    -0.409 C  
HETATM    5  C   UNL     1      -9.791  13.260  68.214  1.00  0.00    -0.231 C  
HETATM    6  O   UNL     1     -12.449  13.983  66.225  1.00  0.00    -0.465 OA 
HETATM    7  O   UNL     1     -11.862  15.404  67.876  1.00  0.00    -0.275 OA 
ENDROOT
BRANCH   3   8
HETATM    8  C   UNL     1     -11.009  10.753  67.246  1.00  0.00    -0.297 A  
HETATM    9  C   UNL     1     -10.877   9.798  68.249  1.00  0.00    -0.256 A  
HETATM   10  C   UNL     1     -10.050   8.687  68.053  1.00  0.00    -0.241 A  
HETATM   11  C   UNL     1      -9.371   8.516  66.842  1.00  0.00    -0.219 A  
HETATM   12  C   UNL     1     -10.401  10.533  66.006  1.00  0.00    -0.279 A  
HETATM   13  C   UNL     1      -9.591   9.415  65.797  1.00  0.00    -0.340 A  
BRANCH  11  14
HETATM   14  C   UNL     1      -8.443   7.366  66.705  1.00  0.00    -0.124 C  
HETATM   15  O   UNL     1      -7.325   7.448  67.209  1.00  0.00    -0.093 OA 
BRANCH  14  16
HETATM   16  C   UNL     1      -8.811   6.143  65.939  1.00  0.00    -0.151 A  
HETATM   17  C   UNL     1      -9.856   5.344  66.426  1.00  0.00    -0.196 A  
HETATM   18  C   UNL     1     -10.208   4.164  65.767  1.00  0.00    -0.141 A  
HETATM   19  C   UNL     1      -9.512   3.774  64.622  1.00  0.00    -0.165 A  
HETATM   20  C   UNL     1      -8.470   4.557  64.131  1.00  0.00    -0.121 A  
HETATM   21 CL   UNL     1      -9.927   2.309  63.824  1.00  0.00    -0.140 Cl 
HETATM   22  C   UNL     1      -8.110   5.735  64.795  1.00  0.00    -0.132 A  
ENDBRANCH  14  16
ENDBRANCH  11  14
ENDBRANCH   3   8
TORSDOF 3
ENDMDL
MODEL       91
REMARK 921   NORMALIZED FREE ENERGY PREDICTED BY IDOCK:   -4.78 KCAL/MOL
REMARK 922        TOTAL FREE ENERGY PREDICTED BY IDOCK:   -6.24 KCAL/MOL
REMARK 923 INTER-LIGAND FREE ENERGY PREDICTED BY IDOCK:   -5.35 KCAL/MOL
REMARK 924 INTRA-LIGAND FREE ENERGY PREDICTED BY IDOCK:   -0.90 KCAL/MOL
REMARK 927      BINDING AFFINITY PREDICTED BY RF-SCORE:    0.00 PKD
ROOT
HETATM    1  C   UNL     1     -10.832  18.003  68.178  1.00  0.00    -0.149 C  
HETATM    2  C   UNL     1     -10.500  17.053  67.027  1.00  0.00    -0.279 C  
HETATM    3  O   UNL     1     -11.613  16.158  66.790  1.00  0.00     0.327 OA 
HETATM    4  C   UNL     1     -10.421  17.911  65.742  1.00  0.00    -0.196 C  
HETATM    5  C   UNL     1      -9.128  16.382  67.167  1.00  0.00    -0.220 C  
HETATM    6  O   UNL     1     -11.250  17.484  64.754  1.00  0.00    -0.878 OA 
HETATM    7  O   UNL     1      -9.680  18.873  65.590  1.00  0.00    -0.360 OA 
ENDROOT
BRANCH   3   8
HETATM    8  C   UNL     1     -11.686  14.924  67.362  1.00  0.00    -0.293 A  
HETATM    9  C   UNL     1     -11.846  14.656  68.718  1.00  0.00    -0.348 A  
HETATM   10  C   UNL     1     -11.838  13.333  69.175  1.00  0.00    -0.378 A  
HETATM   11  C   UNL     1     -11.692  12.274  68.273  1.00  0.00    -0.392 A  
HETATM   12  C   UNL     1     -11.631  13.861  66.455  1.00  0.00    -0.385 A  
HETATM   13  C   UNL     1     -11.642  12.539  66.903  1.00  0.00    -0.436 A  
BRANCH  11  14
HETATM   14  C   UNL     1     -11.609  10.893  68.808  1.00  0.00    -0.309 C  
HETATM   15  O   UNL     1     -12.620  10.381  69.282  1.00  0.00    -0.098 OA 
BRANCH  14  16
HETATM   16  C   UNL     1     -10.328  10.131  68.827  1.00  0.00    -0.211 A  
HETATM   17  C   UNL     1      -9.155  10.812  69.185  1.00  0.00    -0.109 A  
HETATM   18  C   UNL     1      -7.925  10.153  69.174  1.00  0.00    -0.124 A  
HETATM   19  C   UNL     1      -7.860   8.811  68.797  1.00  0.00    -0.101 A  
HETATM   20  C   UNL     1      -9.017   8.125  68.435  1.00  0.00    -0.136 A  
HETATM   21 CL   UNL     1      -6.342   8.004  68.758  1.00  0.00    -0.043 Cl 
HETATM   22  C   UNL     1     -10.249   8.786  68.437  1.00  0.00    -0.228 A  
ENDBRANCH  14  16
ENDBRANCH  11  14
ENDBRANCH   3   8
TORSDOF 3
ENDMDL
MODEL       92
REMARK 921   NORMALIZED FREE ENERGY PREDICTED BY IDOCK:   -4.76 KCAL/MOL
REMARK 922        TOTAL FREE ENERGY PREDICTED BY IDOCK:   -6.21 KCAL/MOL
REMARK 923 INTER-LIGAND FREE ENERGY PREDICTED BY IDOCK:   -5.47 KCAL/MOL
REMARK 924 INTRA-LIGAND FREE ENERGY PREDICTED BY IDOCK:   -0.74 KCAL/MOL
REMARK 927      BINDING AFFINITY PREDICTED BY RF-SCORE:    0.00 PKD
ROOT
HETATM    1  C   UNL     1      -9.436  11.167  64.036  1.00  0.00    -0.241 C  
HETATM    2  C   UNL     1      -8.631  10.167  64.867  1.00  0.00    -0.178 C  
HETATM    3  O   UNL     1      -9.516   9.169  65.430  1.00  0.00    -0.241 OA 
HETATM    4  C   UNL     1      -7.741   9.375  63.881  1.00  0.00    -0.121 C  
HETATM    5  C   UNL     1      -7.668  10.834  65.858  1.00  0.00    -0.118 C  
HETATM    6  O   UNL     1      -7.915   8.030  63.955  1.00  0.00    -0.142 OA 
HETATM    7  O   UNL     1      -6.934   9.878  63.111  1.00  0.00    -0.115 OA 
ENDROOT
BRANCH   3   8
HETATM    8  C   UNL     1     -10.046   9.291  66.678  1.00  0.00    -0.271 A  
HETATM    9  C   UNL     1     -10.838  10.338  67.136  1.00  0.00    -0.278 A  
HETATM   10  C   UNL     1     -11.260  10.366  68.470  1.00  0.00    -0.308 A  
HETATM   11  C   UNL     1     -10.910   9.332  69.344  1.00  0.00    -0.184 A  
HETATM   12  C   UNL     1      -9.773   8.215  67.530  1.00  0.00    -0.207 A  
HETATM   13  C   UNL     1     -10.209   8.227  68.856  1.00  0.00    -0.222 A  
BRANCH  11  14
HETATM   14  C   UNL     1     -11.311   9.439  70.768  1.00  0.00    -0.300 C  
HETATM   15  O   UNL     1     -11.731  10.517  71.183  1.00  0.00    -0.329 OA 
BRANCH  14  16
HETATM   16  C   UNL     1     -11.175   8.296  71.714  1.00  0.00    -0.346 A  
HETATM   17  C   UNL     1     -10.092   8.296  72.605  1.00  0.00    -0.365 A  
HETATM   18  C   UNL     1      -9.897   7.225  73.478  1.00  0.00    -0.347 A  
HETATM   19  C   UNL     1     -10.780   6.145  73.461  1.00  0.00    -0.244 A  
HETATM   20  C   UNL     1     -11.857   6.131  72.577  1.00  0.00    -0.222 A  
HETATM   21 CL   UNL     1     -10.528   4.813  74.519  1.00  0.00    -0.324 Cl 
HETATM   22  C   UNL     1     -12.049   7.199  71.695  1.00  0.00    -0.371 A  
ENDBRANCH  14  16
ENDBRANCH  11  14
ENDBRANCH   3   8
TORSDOF 3
ENDMDL
MODEL       93
REMARK 921   NORMALIZED FREE ENERGY PREDICTED BY IDOCK:   -4.74 KCAL/MOL
REMARK 922        TOTAL FREE ENERGY PREDICTED BY IDOCK:   -6.19 KCAL/MOL
REMARK 923 INTER-LIGAND FREE ENERGY PREDICTED BY IDOCK:   -5.48 KCAL/MOL
REMARK 924 INTRA-LIGAND FREE ENERGY PREDICTED BY IDOCK:   -0.72 KCAL/MOL
REMARK 927      BINDING AFFINITY PREDICTED BY RF-SCORE:    0.00 PKD
ROOT
HETATM    1  C   UNL     1      -8.238  15.892  68.309  1.00  0.00    -0.152 C  
HETATM    2  C   UNL     1      -9.602  15.696  67.647  1.00  0.00    -0.220 C  
HETATM    3  O   UNL     1     -10.164  14.421  68.041  1.00  0.00    -0.222 OA 
HETATM    4  C   UNL     1     -10.559  16.742  68.267  1.00  0.00    -0.352 C  
HETATM    5  C   UNL     1      -9.593  15.978  66.139  1.00  0.00    -0.366 C  
HETATM    6  O   UNL     1     -11.675  16.196  68.815  1.00  0.00    -0.364 OA 
HETATM    7  O   UNL     1     -10.368  17.950  68.263  1.00  0.00    -0.362 OA 
ENDROOT
BRANCH   3   8
HETATM    8  C   UNL     1      -9.999  13.294  67.295  1.00  0.00    -0.231 A  
HETATM    9  C   UNL     1     -10.873  12.817  66.323  1.00  0.00    -0.299 A  
HETATM   10  C   UNL     1     -10.608  11.604  65.678  1.00  0.00    -0.324 A  
HETATM   11  C   UNL     1      -9.454  10.876  65.987  1.00  0.00    -0.235 A  
HETATM   12  C   UNL     1      -8.803  12.611  67.535  1.00  0.00    -0.186 A  
HETATM   13  C   UNL     1      -8.523  11.410  66.880  1.00  0.00    -0.157 A  
BRANCH  11  14
HETATM   14  C   UNL     1      -9.252   9.557  65.339  1.00  0.00    -0.247 C  
HETATM   15  O   UNL     1      -9.023   9.522  64.132  1.00  0.00    -0.230 OA 
BRANCH  14  16
HETATM   16  C   UNL     1      -9.363   8.280  66.099  1.00  0.00    -0.254 A  
HETATM   17  C   UNL     1     -10.410   8.146  67.023  1.00  0.00    -0.403 A  
HETATM   18  C   UNL     1     -10.528   6.987  67.790  1.00  0.00    -0.282 A  
HETATM   19  C   UNL     1      -9.598   5.958  67.643  1.00  0.00    -0.111 A  
HETATM   20  C   UNL     1      -8.552   6.081  66.732  1.00  0.00    -0.110 A  
HETATM   21 CL   UNL     1      -9.728   4.539  68.606  1.00  0.00    -0.219 Cl 
HETATM   22  C   UNL     1      -8.426   7.246  65.968  1.00  0.00    -0.148 A  
ENDBRANCH  14  16
ENDBRANCH  11  14
ENDBRANCH   3   8
TORSDOF 3
ENDMDL
MODEL       94
REMARK 921   NORMALIZED FREE ENERGY PREDICTED BY IDOCK:   -4.72 KCAL/MOL
REMARK 922        TOTAL FREE ENERGY PREDICTED BY IDOCK:   -6.17 KCAL/MOL
REMARK 923 INTER-LIGAND FREE ENERGY PREDICTED BY IDOCK:   -5.49 KCAL/MOL
REMARK 924 INTRA-LIGAND FREE ENERGY PREDICTED BY IDOCK:   -0.69 KCAL/MOL
REMARK 927      BINDING AFFINITY PREDICTED BY RF-SCORE:    0.00 PKD
ROOT
HETATM    1  C   UNL     1     -11.997  13.071  65.845  1.00  0.00    -0.491 C  
HETATM    2  C   UNL     1     -10.920  13.191  66.923  1.00  0.00    -0.276 C  
HETATM    3  O   UNL     1      -9.801  12.331  66.600  1.00  0.00    -0.211 OA 
HETATM    4  C   UNL     1     -10.340  14.622  66.826  1.00  0.00    -0.268 C  
HETATM    5  C   UNL     1     -11.468  13.057  68.350  1.00  0.00    -0.345 C  
HETATM    6  O   UNL     1      -8.994  14.650  66.652  1.00  0.00    -0.256 OA 
HETATM    7  O   UNL     1     -11.000  15.649  66.913  1.00  0.00    -0.315 OA 
ENDROOT
BRANCH   3   8
HETATM    8  C   UNL     1      -9.696  11.064  67.089  1.00  0.00    -0.174 A  
HETATM    9  C   UNL     1      -9.083  10.692  68.281  1.00  0.00    -0.153 A  
HETATM   10  C   UNL     1      -8.989   9.339  68.628  1.00  0.00    -0.132 A  
HETATM   11  C   UNL     1      -9.530   8.356  67.793  1.00  0.00    -0.171 A  
HETATM   12  C   UNL     1     -10.314  10.087  66.302  1.00  0.00    -0.235 A  
HETATM   13  C   UNL     1     -10.242   8.737  66.653  1.00  0.00    -0.340 A  
BRANCH  11  14
HETATM   14  C   UNL     1      -9.339   6.931  68.158  1.00  0.00    -0.124 C  
HETATM   15  O   UNL     1      -8.831   6.174  67.334  1.00  0.00    -0.109 OA 
BRANCH  14  16
HETATM   16  C   UNL     1      -9.786   6.387  69.471  1.00  0.00    -0.176 A  
HETATM   17  C   UNL     1     -11.065   6.733  69.933  1.00  0.00    -0.374 A  
HETATM   18  C   UNL     1     -11.510   6.285  71.177  1.00  0.00    -0.362 A  
HETATM   19  C   UNL     1     -10.677   5.494  71.969  1.00  0.00    -0.234 A  
HETATM   20  C   UNL     1      -9.404   5.147  71.523  1.00  0.00    -0.187 A  
HETATM   21 CL   UNL     1     -11.214   4.961  73.514  1.00  0.00    -0.403 Cl 
HETATM   22  C   UNL     1      -8.952   5.602  70.280  1.00  0.00    -0.152 A  
ENDBRANCH  14  16
ENDBRANCH  11  14
ENDBRANCH   3   8
TORSDOF 3
ENDMDL
MODEL       95
REMARK 921   NORMALIZED FREE ENERGY PREDICTED BY IDOCK:   -4.70 KCAL/MOL
REMARK 922        TOTAL FREE ENERGY PREDICTED BY IDOCK:   -6.15 KCAL/MOL
REMARK 923 INTER-LIGAND FREE ENERGY PREDICTED BY IDOCK:   -5.45 KCAL/MOL
REMARK 924 INTRA-LIGAND FREE ENERGY PREDICTED BY IDOCK:   -0.70 KCAL/MOL
REMARK 927      BINDING AFFINITY PREDICTED BY RF-SCORE:    0.00 PKD
ROOT
HETATM    1  C   UNL     1     -13.170   7.038  71.577  1.00  0.00    -0.382 C  
HETATM    2  C   UNL     1     -11.660   6.809  71.654  1.00  0.00    -0.295 C  
HETATM    3  O   UNL     1     -10.995   8.030  72.057  1.00  0.00    -0.248 OA 
HETATM    4  C   UNL     1     -11.410   5.834  72.828  1.00  0.00    -0.282 C  
HETATM    5  C   UNL     1     -11.084   6.121  70.409  1.00  0.00    -0.420 C  
HETATM    6  O   UNL     1     -10.545   6.316  73.758  1.00  0.00    -0.272 OA 
HETATM    7  O   UNL     1     -11.911   4.722  72.930  1.00  0.00    -0.095 OA 
ENDROOT
BRANCH   3   8
HETATM    8  C   UNL     1     -10.491   8.914  71.152  1.00  0.00    -0.266 A  
HETATM    9  C   UNL     1     -11.190   9.947  70.535  1.00  0.00    -0.399 A  
HETATM   10  C   UNL     1     -10.559  10.741  69.571  1.00  0.00    -0.235 A  
HETATM   11  C   UNL     1      -9.219  10.519  69.239  1.00  0.00    -0.164 A  
HETATM   12  C   UNL     1      -9.128   8.753  70.883  1.00  0.00    -0.256 A  
HETATM   13  C   UNL     1      -8.488   9.556  69.937  1.00  0.00    -0.198 A  
BRANCH  11  14
HETATM   14  C   UNL     1      -8.612  11.330  68.155  1.00  0.00    -0.150 C  
HETATM   15  O   UNL     1      -8.024  12.367  68.453  1.00  0.00    -0.151 OA 
BRANCH  14  16
HETATM   16  C   UNL     1      -8.735  10.947  66.720  1.00  0.00    -0.147 A  
HETATM   17  C   UNL     1     -10.018  10.882  66.158  1.00  0.00    -0.282 A  
HETATM   18  C   UNL     1     -10.187  10.484  64.831  1.00  0.00    -0.371 A  
HETATM   19  C   UNL     1      -9.075  10.143  64.061  1.00  0.00    -0.254 A  
HETATM   20  C   UNL     1      -7.795  10.200  64.609  1.00  0.00    -0.144 A  
HETATM   21 CL   UNL     1      -9.282   9.628  62.433  1.00  0.00    -0.290 Cl 
HETATM   22  C   UNL     1      -7.624  10.590  65.942  1.00  0.00    -0.148 A  
ENDBRANCH  14  16
ENDBRANCH  11  14
ENDBRANCH   3   8
TORSDOF 3
ENDMDL
MODEL       96
REMARK 921   NORMALIZED FREE ENERGY PREDICTED BY IDOCK:   -4.70 KCAL/MOL
REMARK 922        TOTAL FREE ENERGY PREDICTED BY IDOCK:   -6.14 KCAL/MOL
REMARK 923 INTER-LIGAND FREE ENERGY PREDICTED BY IDOCK:   -5.52 KCAL/MOL
REMARK 924 INTRA-LIGAND FREE ENERGY PREDICTED BY IDOCK:   -0.63 KCAL/MOL
REMARK 927      BINDING AFFINITY PREDICTED BY RF-SCORE:    0.00 PKD
ROOT
HETATM    1  C   UNL     1      -5.498  19.288  68.806  1.00  0.00    -0.208 C  
HETATM    2  C   UNL     1      -6.472  19.252  67.628  1.00  0.00    -0.212 C  
HETATM    3  O   UNL     1      -7.815  19.001  68.106  1.00  0.00    -0.279 OA 
HETATM    4  C   UNL     1      -6.535  20.686  67.050  1.00  0.00    -0.265 C  
HETATM    5  C   UNL     1      -6.001  18.356  66.476  1.00  0.00    -0.187 C  
HETATM    6  O   UNL     1      -7.793  21.194  66.999  1.00  0.00    -0.201 OA 
HETATM    7  O   UNL     1      -5.568  21.319  66.650  1.00  0.00    -0.224 OA 
ENDROOT
BRANCH   3   8
HETATM    8  C   UNL     1      -8.342  17.746  68.164  1.00  0.00    -0.264 A  
HETATM    9  C   UNL     1      -8.331  16.901  69.269  1.00  0.00     0.070 A  
HETATM   10  C   UNL     1      -8.852  15.607  69.166  1.00  0.00    -0.251 A  
HETATM   11  C   UNL     1      -9.409  15.163  67.962  1.00  0.00    -0.187 A  
HETATM   12  C   UNL     1      -8.979  17.331  66.991  1.00  0.00    -0.245 A  
HETATM   13  C   UNL     1      -9.520  16.048  66.888  1.00  0.00    -0.242 A  
BRANCH  11  14
HETATM   14  C   UNL     1      -9.878  13.758  67.873  1.00  0.00    -0.232 C  
HETATM   15  O   UNL     1      -9.566  12.974  68.765  1.00  0.00    -0.070 OA 
BRANCH  14  16
HETATM   16  C   UNL     1     -10.673  13.266  66.713  1.00  0.00    -0.279 A  
HETATM   17  C   UNL     1     -10.028  12.469  65.756  1.00  0.00    -0.272 A  
HETATM   18  C   UNL     1     -10.720  12.021  64.629  1.00  0.00    -0.355 A  
HETATM   19  C   UNL     1     -12.058  12.374  64.450  1.00  0.00    -0.426 A  
HETATM   20  C   UNL     1     -12.708  13.168  65.392  1.00  0.00    -0.422 A  
HETATM   21 CL   UNL     1     -12.905  11.844  63.050  1.00  0.00    -0.300 Cl 
HETATM   22  C   UNL     1     -12.015  13.625  66.517  1.00  0.00    -0.465 A  
ENDBRANCH  14  16
ENDBRANCH  11  14
ENDBRANCH   3   8
TORSDOF 3
ENDMDL
MODEL       97
REMARK 921   NORMALIZED FREE ENERGY PREDICTED BY IDOCK:   -4.68 KCAL/MOL
REMARK 922        TOTAL FREE ENERGY PREDICTED BY IDOCK:   -6.12 KCAL/MOL
REMARK 923 INTER-LIGAND FREE ENERGY PREDICTED BY IDOCK:   -5.62 KCAL/MOL
REMARK 924 INTRA-LIGAND FREE ENERGY PREDICTED BY IDOCK:   -0.50 KCAL/MOL
REMARK 927      BINDING AFFINITY PREDICTED BY RF-SCORE:    0.00 PKD
ROOT
HETATM    1  C   UNL     1     -10.050   4.993  69.682  1.00  0.00    -0.321 C  
HETATM    2  C   UNL     1      -9.570   5.602  68.364  1.00  0.00    -0.126 C  
HETATM    3  O   UNL     1      -8.915   6.868  68.615  1.00  0.00    -0.131 OA 
HETATM    4  C   UNL     1      -8.442   4.688  67.828  1.00  0.00    -0.103 C  
HETATM    5  C   UNL     1     -10.649   5.619  67.273  1.00  0.00    -0.328 C  
HETATM    6  O   UNL     1      -7.277   5.347  67.595  1.00  0.00    -0.069 OA 
HETATM    7  O   UNL     1      -8.561   3.491  67.607  1.00  0.00    -0.093 OA 
ENDROOT
BRANCH   3   8
HETATM    8  C   UNL     1      -9.580   8.054  68.550  1.00  0.00    -0.155 A  
HETATM    9  C   UNL     1     -10.552   8.501  69.439  1.00  0.00    -0.203 A  
HETATM   10  C   UNL     1     -11.203   9.718  69.211  1.00  0.00    -0.128 A  
HETATM   11  C   UNL     1     -10.865  10.504  68.104  1.00  0.00    -0.300 A  
HETATM   12  C   UNL     1      -9.182   8.884  67.496  1.00  0.00    -0.153 A  
HETATM   13  C   UNL     1      -9.814  10.109  67.275  1.00  0.00    -0.226 A  
BRANCH  11  14
HETATM   14  C   UNL     1     -11.634  11.748  67.856  1.00  0.00    -0.307 C  
HETATM   15  O   UNL     1     -12.148  11.914  66.752  1.00  0.00    -0.593 OA 
BRANCH  14  16
HETATM   16  C   UNL     1     -11.760  12.816  68.888  1.00  0.00    -0.370 A  
HETATM   17  C   UNL     1     -12.432  12.511  70.081  1.00  0.00    -0.092 A  
HETATM   18  C   UNL     1     -12.615  13.491  71.057  1.00  0.00    -0.438 A  
HETATM   19  C   UNL     1     -12.133  14.783  70.844  1.00  0.00    -0.324 A  
HETATM   20  C   UNL     1     -11.468  15.099  69.662  1.00  0.00    -0.314 A  
HETATM   21 CL   UNL     1     -12.379  15.998  72.036  1.00  0.00    -0.536 Cl 
HETATM   22  C   UNL     1     -11.291  14.121  68.678  1.00  0.00    -0.306 A  
ENDBRANCH  14  16
ENDBRANCH  11  14
ENDBRANCH   3   8
TORSDOF 3
ENDMDL
MODEL       98
REMARK 921   NORMALIZED FREE ENERGY PREDICTED BY IDOCK:   -4.65 KCAL/MOL
REMARK 922        TOTAL FREE ENERGY PREDICTED BY IDOCK:   -6.09 KCAL/MOL
REMARK 923 INTER-LIGAND FREE ENERGY PREDICTED BY IDOCK:   -5.32 KCAL/MOL
REMARK 924 INTRA-LIGAND FREE ENERGY PREDICTED BY IDOCK:   -0.76 KCAL/MOL
REMARK 927      BINDING AFFINITY PREDICTED BY RF-SCORE:    0.00 PKD
ROOT
HETATM    1  C   UNL     1     -12.004  12.589  65.848  1.00  0.00    -0.472 C  
HETATM    2  C   UNL     1     -10.689  11.817  65.739  1.00  0.00    -0.280 C  
HETATM    3  O   UNL     1     -10.895  10.435  66.117  1.00  0.00    -0.073 OA 
HETATM    4  C   UNL     1     -10.327  11.751  64.236  1.00  0.00    -0.314 C  
HETATM    5  C   UNL     1      -9.510  12.522  66.423  1.00  0.00    -0.233 C  
HETATM    6  O   UNL     1     -10.144  10.486  63.778  1.00  0.00    -0.315 OA 
HETATM    7  O   UNL     1     -10.190  12.726  63.509  1.00  0.00    -0.367 OA 
ENDROOT
BRANCH   3   8
HETATM    8  C   UNL     1     -10.680   9.990  67.385  1.00  0.00    -0.274 A  
HETATM    9  C   UNL     1     -11.499  10.218  68.487  1.00  0.00    -0.169 A  
HETATM   10  C   UNL     1     -11.118   9.755  69.751  1.00  0.00    -0.272 A  
HETATM   11  C   UNL     1      -9.927   9.039  69.912  1.00  0.00    -0.203 A  
HETATM   12  C   UNL     1      -9.537   9.198  67.534  1.00  0.00    -0.186 A  
HETATM   13  C   UNL     1      -9.162   8.715  68.790  1.00  0.00    -0.142 A  
BRANCH  11  14
HETATM   14  C   UNL     1      -9.521   8.635  71.280  1.00  0.00    -0.224 C  
HETATM   15  O   UNL     1      -8.836   9.408  71.945  1.00  0.00    -0.163 OA 
BRANCH  14  16
HETATM   16  C   UNL     1      -9.882   7.305  71.849  1.00  0.00    -0.180 A  
HETATM   17  C   UNL     1      -9.505   6.155  71.140  1.00  0.00    -0.182 A  
HETATM   18  C   UNL     1      -9.860   4.890  71.609  1.00  0.00    -0.245 A  
HETATM   19  C   UNL     1     -10.598   4.767  72.786  1.00  0.00    -0.211 A  
HETATM   20  C   UNL     1     -10.982   5.902  73.497  1.00  0.00    -0.172 A  
HETATM   21 CL   UNL     1     -11.058   3.210  73.353  1.00  0.00    -0.301 Cl 
HETATM   22  C   UNL     1     -10.635   7.172  73.024  1.00  0.00    -0.346 A  
ENDBRANCH  14  16
ENDBRANCH  11  14
ENDBRANCH   3   8
TORSDOF 3
ENDMDL
MODEL       99
REMARK 921   NORMALIZED FREE ENERGY PREDICTED BY IDOCK:   -4.65 KCAL/MOL
REMARK 922        TOTAL FREE ENERGY PREDICTED BY IDOCK:   -6.08 KCAL/MOL
REMARK 923 INTER-LIGAND FREE ENERGY PREDICTED BY IDOCK:   -5.66 KCAL/MOL
REMARK 924 INTRA-LIGAND FREE ENERGY PREDICTED BY IDOCK:   -0.43 KCAL/MOL
REMARK 927      BINDING AFFINITY PREDICTED BY RF-SCORE:    0.00 PKD
ROOT
HETATM    1  C   UNL     1     -11.896  12.807  66.658  1.00  0.00    -0.462 C  
HETATM    2  C   UNL     1     -10.628  12.405  65.904  1.00  0.00    -0.258 C  
HETATM    3  O   UNL     1     -10.738  11.037  65.446  1.00  0.00    -0.236 OA 
HETATM    4  C   UNL     1     -10.592  13.241  64.602  1.00  0.00    -0.404 C  
HETATM    5  C   UNL     1      -9.336  12.750  66.658  1.00  0.00    -0.242 C  
HETATM    6  O   UNL     1     -10.501  12.486  63.477  1.00  0.00    -0.420 OA 
HETATM    7  O   UNL     1     -10.621  14.463  64.557  1.00  0.00    -0.371 OA 
ENDROOT
BRANCH   3   8
HETATM    8  C   UNL     1     -10.254   9.989  66.169  1.00  0.00    -0.213 A  
HETATM    9  C   UNL     1      -9.326   9.049  65.733  1.00  0.00    -0.302 A  
HETATM   10  C   UNL     1      -8.968   7.981  66.563  1.00  0.00    -0.188 A  
HETATM   11  C   UNL     1      -9.520   7.865  67.843  1.00  0.00    -0.160 A  
HETATM   12  C   UNL     1     -10.735   9.919  67.480  1.00  0.00    -0.333 A  
HETATM   13  C   UNL     1     -10.366   8.868  68.321  1.00  0.00    -0.250 A  
BRANCH  11  14
HETATM   14  C   UNL     1      -9.174   6.676  68.660  1.00  0.00    -0.128 C  
HETATM   15  O   UNL     1      -8.631   5.720  68.111  1.00  0.00    -0.109 OA 
BRANCH  14  16
HETATM   16  C   UNL     1      -9.507   6.592  70.110  1.00  0.00    -0.162 A  
HETATM   17  C   UNL     1      -8.558   7.047  71.037  1.00  0.00    -0.134 A  
HETATM   18  C   UNL     1      -8.807   6.948  72.407  1.00  0.00    -0.139 A  
HETATM   19  C   UNL     1     -10.001   6.387  72.858  1.00  0.00    -0.174 A  
HETATM   20  C   UNL     1     -10.950   5.927  71.947  1.00  0.00    -0.321 A  
HETATM   21 CL   UNL     1     -10.299   6.240  74.545  1.00  0.00    -0.302 Cl 
HETATM   22  C   UNL     1     -10.700   6.018  70.574  1.00  0.00    -0.349 A  
ENDBRANCH  14  16
ENDBRANCH  11  14
ENDBRANCH   3   8
TORSDOF 3
ENDMDL
MODEL      100
REMARK 921   NORMALIZED FREE ENERGY PREDICTED BY IDOCK:   -4.65 KCAL/MOL
REMARK 922        TOTAL FREE ENERGY PREDICTED BY IDOCK:   -6.08 KCAL/MOL
REMARK 923 INTER-LIGAND FREE ENERGY PREDICTED BY IDOCK:   -5.33 KCAL/MOL
REMARK 924 INTRA-LIGAND FREE ENERGY PREDICTED BY IDOCK:   -0.76 KCAL/MOL
REMARK 927      BINDING AFFINITY PREDICTED BY RF-SCORE:    0.00 PKD
ROOT
HETATM    1  C   UNL     1      -9.526   3.263  67.835  1.00  0.00    -0.219 C  
HETATM    2  C   UNL     1      -8.622   4.496  67.871  1.00  0.00    -0.102 C  
HETATM    3  O   UNL     1      -8.521   4.993  69.226  1.00  0.00    -0.087 OA 
HETATM    4  C   UNL     1      -7.191   4.017  67.532  1.00  0.00    -0.067 C  
HETATM    5  C   UNL     1      -8.976   5.542  66.806  1.00  0.00    -0.114 C  
HETATM    6  O   UNL     1      -6.273   4.343  68.478  1.00  0.00    -0.030 OA 
HETATM    7  O   UNL     1      -6.879   3.418  66.512  1.00  0.00    -0.051 OA 
ENDROOT
BRANCH   3   8
HETATM    8  C   UNL     1      -9.336   5.974  69.702  1.00  0.00    -0.144 A  
HETATM    9  C   UNL     1     -10.727   5.947  69.726  1.00  0.00    -0.411 A  
HETATM   10  C   UNL     1     -11.442   7.059  70.185  1.00  0.00    -0.302 A  
HETATM   11  C   UNL     1     -10.765   8.194  70.645  1.00  0.00    -0.238 A  
HETATM   12  C   UNL     1      -8.664   7.074  70.246  1.00  0.00    -0.144 A  
HETATM   13  C   UNL     1      -9.371   8.178  70.724  1.00  0.00    -0.174 A  
BRANCH  11  14
HETATM   14  C   UNL     1     -11.560   9.379  71.048  1.00  0.00    -0.330 C  
HETATM   15  O   UNL     1     -12.179   9.343  72.109  1.00  0.00    -0.343 OA 
BRANCH  14  16
HETATM   16  C   UNL     1     -11.664  10.589  70.184  1.00  0.00    -0.410 A  
HETATM   17  C   UNL     1     -11.273  10.482  68.841  1.00  0.00    -0.323 A  
HETATM   18  C   UNL     1     -11.310  11.598  68.005  1.00  0.00    -0.366 A  
HETATM   19  C   UNL     1     -11.732  12.829  68.507  1.00  0.00    -0.333 A  
HETATM   20  C   UNL     1     -12.120  12.949  69.840  1.00  0.00    -0.335 A  
HETATM   21 CL   UNL     1     -11.755  14.212  67.485  1.00  0.00    -0.394 Cl 
HETATM   22  C   UNL     1     -12.075  11.834  70.682  1.00  0.00    -0.407 A  
ENDBRANCH  14  16
ENDBRANCH  11  14
ENDBRANCH   3   8
TORSDOF 3
ENDMDL
MODEL      101
REMARK 921   NORMALIZED FREE ENERGY PREDICTED BY IDOCK:   -4.64 KCAL/MOL
REMARK 922        TOTAL FREE ENERGY PREDICTED BY IDOCK:   -6.08 KCAL/MOL
REMARK 923 INTER-LIGAND FREE ENERGY PREDICTED BY IDOCK:   -5.44 KCAL/MOL
REMARK 924 INTRA-LIGAND FREE ENERGY PREDICTED BY IDOCK:   -0.64 KCAL/MOL
REMARK 927      BINDING AFFINITY PREDICTED BY RF-SCORE:    0.00 PKD
ROOT
HETATM    1  C   UNL     1      -8.061  18.188  66.467  1.00  0.00    -0.295 C  
HETATM    2  C   UNL     1      -9.432  18.168  67.146  1.00  0.00    -0.264 C  
HETATM    3  O   UNL     1      -9.412  17.257  68.270  1.00  0.00    -0.264 OA 
HETATM    4  C   UNL     1      -9.639  19.561  67.786  1.00  0.00    -0.346 C  
HETATM    5  C   UNL     1     -10.595  17.982  66.162  1.00  0.00    -0.269 C  
HETATM    6  O   UNL     1      -9.904  19.510  69.117  1.00  0.00    -0.433 OA 
HETATM    7  O   UNL     1      -9.595  20.622  67.178  1.00  0.00    -0.438 OA 
ENDROOT
BRANCH   3   8
HETATM    8  C   UNL     1      -9.806  15.958  68.159  1.00  0.00    -0.214 A  
HETATM    9  C   UNL     1     -11.046  15.442  68.519  1.00  0.00    -0.295 A  
HETATM   10  C   UNL     1     -11.291  14.068  68.411  1.00  0.00    -0.321 A  
HETATM   11  C   UNL     1     -10.301  13.210  67.919  1.00  0.00    -0.232 A  
HETATM   12  C   UNL     1      -8.852  15.112  67.584  1.00  0.00    -0.178 A  
HETATM   13  C   UNL     1      -9.098  13.744  67.455  1.00  0.00    -0.209 A  
BRANCH  11  14
HETATM   14  C   UNL     1     -10.573  11.752  67.896  1.00  0.00    -0.201 C  
HETATM   15  O   UNL     1     -11.556  11.345  67.281  1.00  0.00    -0.523 OA 
BRANCH  14  16
HETATM   16  C   UNL     1      -9.718  10.779  68.633  1.00  0.00    -0.187 A  
HETATM   17  C   UNL     1     -10.081  10.436  69.944  1.00  0.00    -0.144 A  
HETATM   18  C   UNL     1      -9.286   9.564  70.689  1.00  0.00    -0.263 A  
HETATM   19  C   UNL     1      -8.122   9.035  70.132  1.00  0.00    -0.126 A  
HETATM   20  C   UNL     1      -7.750   9.372  68.832  1.00  0.00    -0.076 A  
HETATM   21 CL   UNL     1      -7.129   7.980  71.057  1.00  0.00    -0.048 Cl 
HETATM   22  C   UNL     1      -8.539  10.253  68.086  1.00  0.00    -0.119 A  
ENDBRANCH  14  16
ENDBRANCH  11  14
ENDBRANCH   3   8
TORSDOF 3
ENDMDL
MODEL      102
REMARK 921   NORMALIZED FREE ENERGY PREDICTED BY IDOCK:   -4.64 KCAL/MOL
REMARK 922        TOTAL FREE ENERGY PREDICTED BY IDOCK:   -6.07 KCAL/MOL
REMARK 923 INTER-LIGAND FREE ENERGY PREDICTED BY IDOCK:   -5.25 KCAL/MOL
REMARK 924 INTRA-LIGAND FREE ENERGY PREDICTED BY IDOCK:   -0.82 KCAL/MOL
REMARK 927      BINDING AFFINITY PREDICTED BY RF-SCORE:    0.00 PKD
ROOT
HETATM    1  C   UNL     1      -8.392   8.392  64.760  1.00  0.00    -0.151 C  
HETATM    2  C   UNL     1      -9.091   8.831  66.048  1.00  0.00    -0.213 C  
HETATM    3  O   UNL     1     -10.326   9.515  65.730  1.00  0.00    -0.182 OA 
HETATM    4  C   UNL     1      -9.545   7.544  66.777  1.00  0.00    -0.206 C  
HETATM    5  C   UNL     1      -8.162   9.562  67.026  1.00  0.00    -0.113 C  
HETATM    6  O   UNL     1     -10.875   7.517  67.049  1.00  0.00    -0.348 OA 
HETATM    7  O   UNL     1      -8.801   6.632  67.109  1.00  0.00    -0.114 OA 
ENDROOT
BRANCH   3   8
HETATM    8  C   UNL     1     -10.395  10.870  65.610  1.00  0.00    -0.242 A  
HETATM    9  C   UNL     1      -9.991  11.619  64.509  1.00  0.00    -0.290 A  
HETATM   10  C   UNL     1     -10.058  13.016  64.551  1.00  0.00    -0.254 A  
HETATM   11  C   UNL     1     -10.554  13.667  65.686  1.00  0.00    -0.294 A  
HETATM   12  C   UNL     1     -10.973  11.519  66.706  1.00  0.00    -0.347 A  
HETATM   13  C   UNL     1     -11.062  12.912  66.744  1.00  0.00    -0.315 A  
BRANCH  11  14
HETATM   14  C   UNL     1     -10.534  15.150  65.719  1.00  0.00    -0.339 C  
HETATM   15  O   UNL     1     -11.428  15.765  65.143  1.00  0.00    -0.185 OA 
BRANCH  14  16
HETATM   16  C   UNL     1      -9.440  15.908  66.389  1.00  0.00    -0.324 A  
HETATM   17  C   UNL     1      -8.368  15.186  66.934  1.00  0.00    -0.267 A  
HETATM   18  C   UNL     1      -7.343  15.849  67.611  1.00  0.00    -0.180 A  
HETATM   19  C   UNL     1      -7.387  17.237  67.751  1.00  0.00    -0.171 A  
HETATM   20  C   UNL     1      -8.448  17.964  67.217  1.00  0.00    -0.242 A  
HETATM   21 CL   UNL     1      -6.138  18.053  68.606  1.00  0.00    -0.190 Cl 
HETATM   22  C   UNL     1      -9.481  17.301  66.546  1.00  0.00    -0.286 A  
ENDBRANCH  14  16
ENDBRANCH  11  14
ENDBRANCH   3   8
TORSDOF 3
ENDMDL
MODEL      103
REMARK 921   NORMALIZED FREE ENERGY PREDICTED BY IDOCK:   -4.60 KCAL/MOL
REMARK 922        TOTAL FREE ENERGY PREDICTED BY IDOCK:   -6.03 KCAL/MOL
REMARK 923 INTER-LIGAND FREE ENERGY PREDICTED BY IDOCK:   -5.26 KCAL/MOL
REMARK 924 INTRA-LIGAND FREE ENERGY PREDICTED BY IDOCK:   -0.76 KCAL/MOL
REMARK 927      BINDING AFFINITY PREDICTED BY RF-SCORE:    0.00 PKD
ROOT
HETATM    1  C   UNL     1     -10.505   9.346  67.866  1.00  0.00    -0.296 C  
HETATM    2  C   UNL     1      -9.152   9.834  67.348  1.00  0.00    -0.134 C  
HETATM    3  O   UNL     1      -8.699  10.962  68.134  1.00  0.00    -0.124 OA 
HETATM    4  C   UNL     1      -8.123   8.720  67.652  1.00  0.00    -0.106 C  
HETATM    5  C   UNL     1      -9.118  10.030  65.826  1.00  0.00    -0.201 C  
HETATM    6  O   UNL     1      -7.061   9.148  68.382  1.00  0.00    -0.071 OA 
HETATM    7  O   UNL     1      -8.216   7.561  67.271  1.00  0.00    -0.113 OA 
ENDROOT
BRANCH   3   8
HETATM    8  C   UNL     1      -8.944  12.249  67.763  1.00  0.00    -0.177 A  
HETATM    9  C   UNL     1     -10.194  12.810  67.519  1.00  0.00    -0.216 A  
HETATM   10  C   UNL     1     -10.292  14.135  67.078  1.00  0.00    -0.267 A  
HETATM   11  C   UNL     1      -9.140  14.909  66.903  1.00  0.00    -0.271 A  
HETATM   12  C   UNL     1      -7.803  13.052  67.674  1.00  0.00    -0.166 A  
HETATM   13  C   UNL     1      -7.897  14.381  67.254  1.00  0.00    -0.188 A  
BRANCH  11  14
HETATM   14  C   UNL     1      -9.284  16.282  66.359  1.00  0.00    -0.299 C  
HETATM   15  O   UNL     1     -10.017  16.458  65.389  1.00  0.00    -0.534 OA 
BRANCH  14  16
HETATM   16  C   UNL     1      -8.532  17.437  66.925  1.00  0.00    -0.264 A  
HETATM   17  C   UNL     1      -7.413  17.909  66.224  1.00  0.00    -0.321 A  
HETATM   18  C   UNL     1      -6.650  18.959  66.737  1.00  0.00    -0.203 A  
HETATM   19  C   UNL     1      -6.998  19.538  67.958  1.00  0.00    -0.263 A  
HETATM   20  C   UNL     1      -8.105  19.075  68.666  1.00  0.00    -0.397 A  
HETATM   21 CL   UNL     1      -6.045  20.815  68.605  1.00  0.00    -0.374 Cl 
HETATM   22  C   UNL     1      -8.865  18.017  68.158  1.00  0.00    -0.277 A  
ENDBRANCH  14  16
ENDBRANCH  11  14
ENDBRANCH   3   8
TORSDOF 3
ENDMDL
MODEL      104
REMARK 921   NORMALIZED FREE ENERGY PREDICTED BY IDOCK:   -4.59 KCAL/MOL
REMARK 922        TOTAL FREE ENERGY PREDICTED BY IDOCK:   -6.02 KCAL/MOL
REMARK 923 INTER-LIGAND FREE ENERGY PREDICTED BY IDOCK:   -5.52 KCAL/MOL
REMARK 924 INTRA-LIGAND FREE ENERGY PREDICTED BY IDOCK:   -0.50 KCAL/MOL
REMARK 927      BINDING AFFINITY PREDICTED BY RF-SCORE:    0.00 PKD
ROOT
HETATM    1  C   UNL     1      -8.935   5.757  68.509  1.00  0.00    -0.112 C  
HETATM    2  C   UNL     1      -9.471   6.463  67.263  1.00  0.00    -0.123 C  
HETATM    3  O   UNL     1      -8.991   7.828  67.224  1.00  0.00    -0.125 OA 
HETATM    4  C   UNL     1      -8.805   5.790  66.041  1.00  0.00    -0.148 C  
HETATM    5  C   UNL     1     -10.983   6.287  67.067  1.00  0.00    -0.442 C  
HETATM    6  O   UNL     1      -8.146   6.662  65.234  1.00  0.00    -0.120 OA 
HETATM    7  O   UNL     1      -8.863   4.595  65.785  1.00  0.00    -0.120 OA 
ENDROOT
BRANCH   3   8
HETATM    8  C   UNL     1      -9.714   8.866  67.730  1.00  0.00    -0.160 A  
HETATM    9  C   UNL     1     -10.591   9.680  67.020  1.00  0.00    -0.267 A  
HETATM   10  C   UNL     1     -11.218  10.756  67.657  1.00  0.00    -0.370 A  
HETATM   11  C   UNL     1     -10.987  11.007  69.014  1.00  0.00    -0.284 A  
HETATM   12  C   UNL     1      -9.555   9.065  69.105  1.00  0.00    -0.161 A  
HETATM   13  C   UNL     1     -10.195  10.125  69.751  1.00  0.00    -0.286 A  
BRANCH  11  14
HETATM   14  C   UNL     1     -11.609  12.204  69.630  1.00  0.00    -0.291 C  
HETATM   15  O   UNL     1     -12.433  12.046  70.527  1.00  0.00    -0.286 OA 
BRANCH  14  16
HETATM   16  C   UNL     1     -11.297  13.584  69.162  1.00  0.00    -0.333 A  
HETATM   17  C   UNL     1     -12.122  14.634  69.590  1.00  0.00    -0.355 A  
HETATM   18  C   UNL     1     -11.897  15.936  69.141  1.00  0.00    -0.340 A  
HETATM   19  C   UNL     1     -10.849  16.195  68.258  1.00  0.00    -0.326 A  
HETATM   20  C   UNL     1     -10.024  15.160  67.822  1.00  0.00    -0.225 A  
HETATM   21 CL   UNL     1     -10.584  17.794  67.684  1.00  0.00    -0.394 Cl 
HETATM   22  C   UNL     1     -10.254  13.852  68.263  1.00  0.00    -0.247 A  
ENDBRANCH  14  16
ENDBRANCH  11  14
ENDBRANCH   3   8
TORSDOF 3
ENDMDL
MODEL      105
REMARK 921   NORMALIZED FREE ENERGY PREDICTED BY IDOCK:   -4.55 KCAL/MOL
REMARK 922        TOTAL FREE ENERGY PREDICTED BY IDOCK:   -5.96 KCAL/MOL
REMARK 923 INTER-LIGAND FREE ENERGY PREDICTED BY IDOCK:   -5.32 KCAL/MOL
REMARK 924 INTRA-LIGAND FREE ENERGY PREDICTED BY IDOCK:   -0.64 KCAL/MOL
REMARK 927      BINDING AFFINITY PREDICTED BY RF-SCORE:    0.00 PKD
ROOT
HETATM    1  C   UNL     1      -9.974   2.320  72.415  1.00  0.00    -0.220 C  
HETATM    2  C   UNL     1      -9.214   3.556  71.931  1.00  0.00    -0.117 C  
HETATM    3  O   UNL     1      -9.360   4.631  72.888  1.00  0.00    -0.126 OA 
HETATM    4  C   UNL     1      -7.708   3.206  71.976  1.00  0.00    -0.054 C  
HETATM    5  C   UNL     1      -9.515   3.922  70.471  1.00  0.00    -0.251 C  
HETATM    6  O   UNL     1      -6.974   4.073  72.721  1.00  0.00    -0.048 OA 
HETATM    7  O   UNL     1      -7.193   2.262  71.393  1.00  0.00    -0.031 OA 
ENDROOT
BRANCH   3   8
HETATM    8  C   UNL     1     -10.331   5.579  72.772  1.00  0.00    -0.194 A  
HETATM    9  C   UNL     1     -11.697   5.345  72.649  1.00  0.00    -0.214 A  
HETATM   10  C   UNL     1     -12.578   6.417  72.470  1.00  0.00     0.195 A  
HETATM   11  C   UNL     1     -12.096   7.730  72.438  1.00  0.00    -0.297 A  
HETATM   12  C   UNL     1      -9.864   6.896  72.830  1.00  0.00    -0.188 A  
HETATM   13  C   UNL     1     -10.741   7.971  72.672  1.00  0.00    -0.426 A  
BRANCH  11  14
HETATM   14  C   UNL     1     -13.053   8.831  72.167  1.00  0.00    -0.406 C  
HETATM   15  O   UNL     1     -14.192   8.748  72.621  1.00  0.00    -0.527 OA 
BRANCH  14  16
HETATM   16  C   UNL     1     -12.685  10.005  71.326  1.00  0.00    -0.500 A  
HETATM   17  C   UNL     1     -13.092  11.279  71.750  1.00  0.00    -0.527 A  
HETATM   18  C   UNL     1     -12.811  12.403  70.973  1.00  0.00    -0.245 A  
HETATM   19  C   UNL     1     -12.127  12.261  69.765  1.00  0.00    -0.229 A  
HETATM   20  C   UNL     1     -11.721  11.000  69.332  1.00  0.00    -0.394 A  
HETATM   21 CL   UNL     1     -11.801  13.642  68.794  1.00  0.00    -0.379 Cl 
HETATM   22  C   UNL     1     -12.010   9.870  70.105  1.00  0.00    -0.146 A  
ENDBRANCH  14  16
ENDBRANCH  11  14
ENDBRANCH   3   8
TORSDOF 3
ENDMDL
MODEL      106
REMARK 921   NORMALIZED FREE ENERGY PREDICTED BY IDOCK:   -4.53 KCAL/MOL
REMARK 922        TOTAL FREE ENERGY PREDICTED BY IDOCK:   -5.95 KCAL/MOL
REMARK 923 INTER-LIGAND FREE ENERGY PREDICTED BY IDOCK:   -5.29 KCAL/MOL
REMARK 924 INTRA-LIGAND FREE ENERGY PREDICTED BY IDOCK:   -0.65 KCAL/MOL
REMARK 927      BINDING AFFINITY PREDICTED BY RF-SCORE:    0.00 PKD
ROOT
HETATM    1  C   UNL     1      -8.492   8.888  63.576  1.00  0.00    -0.146 C  
HETATM    2  C   UNL     1      -7.432   8.868  64.677  1.00  0.00    -0.104 C  
HETATM    3  O   UNL     1      -7.647   7.733  65.550  1.00  0.00    -0.076 OA 
HETATM    4  C   UNL     1      -6.076   8.572  63.994  1.00  0.00    -0.071 C  
HETATM    5  C   UNL     1      -7.259  10.221  65.381  1.00  0.00    -0.143 C  
HETATM    6  O   UNL     1      -5.435   7.490  64.509  1.00  0.00    -0.032 OA 
HETATM    7  O   UNL     1      -5.590   9.238  63.090  1.00  0.00    -0.078 OA 
ENDROOT
BRANCH   3   8
HETATM    8  C   UNL     1      -8.375   7.827  66.696  1.00  0.00    -0.126 A  
HETATM    9  C   UNL     1      -7.872   8.061  67.972  1.00  0.00    -0.126 A  
HETATM   10  C   UNL     1      -8.734   8.067  69.074  1.00  0.00    -0.137 A  
HETATM   11  C   UNL     1     -10.107   7.862  68.900  1.00  0.00    -0.203 A  
HETATM   12  C   UNL     1      -9.757   7.712  66.515  1.00  0.00    -0.251 A  
HETATM   13  C   UNL     1     -10.624   7.738  67.609  1.00  0.00    -0.283 A  
BRANCH  11  14
HETATM   14  C   UNL     1     -10.973   7.796  70.102  1.00  0.00    -0.241 C  
HETATM   15  O   UNL     1     -11.129   6.712  70.659  1.00  0.00    -0.259 OA 
BRANCH  14  16
HETATM   16  C   UNL     1     -11.692   8.993  70.622  1.00  0.00    -0.237 A  
HETATM   17  C   UNL     1     -11.411  10.240  70.043  1.00  0.00    -0.370 A  
HETATM   18  C   UNL     1     -12.025  11.396  70.527  1.00  0.00    -0.451 A  
HETATM   19  C   UNL     1     -12.918  11.314  71.595  1.00  0.00    -0.432 A  
HETATM   20  C   UNL     1     -13.202  10.082  72.181  1.00  0.00    -0.489 A  
HETATM   21 CL   UNL     1     -13.657  12.740  72.209  1.00  0.00    -0.636 Cl 
HETATM   22  C   UNL     1     -12.581   8.923  71.704  1.00  0.00    -0.403 A  
ENDBRANCH  14  16
ENDBRANCH  11  14
ENDBRANCH   3   8
TORSDOF 3
ENDMDL
MODEL      107
REMARK 921   NORMALIZED FREE ENERGY PREDICTED BY IDOCK:   -4.48 KCAL/MOL
REMARK 922        TOTAL FREE ENERGY PREDICTED BY IDOCK:   -5.89 KCAL/MOL
REMARK 923 INTER-LIGAND FREE ENERGY PREDICTED BY IDOCK:   -5.84 KCAL/MOL
REMARK 924 INTRA-LIGAND FREE ENERGY PREDICTED BY IDOCK:   -0.06 KCAL/MOL
REMARK 927      BINDING AFFINITY PREDICTED BY RF-SCORE:    0.00 PKD
ROOT
HETATM    1  C   UNL     1     -11.311  15.061  71.515  1.00  0.00    -0.330 C  
HETATM    2  C   UNL     1     -12.519  14.313  70.950  1.00  0.00    -0.354 C  
HETATM    3  O   UNL     1     -12.358  12.889  71.154  1.00  0.00    -0.322 OA 
HETATM    4  C   UNL     1     -13.735  14.689  71.830  1.00  0.00    -0.415 C  
HETATM    5  C   UNL     1     -12.887  14.740  69.523  1.00  0.00     0.267 C  
HETATM    6  O   UNL     1     -14.369  13.613  72.365  1.00  0.00    -0.661 OA 
HETATM    7  O   UNL     1     -14.126  15.831  72.028  1.00  0.00    -0.435 OA 
ENDROOT
BRANCH   3   8
HETATM    8  C   UNL     1     -11.816  12.077  70.205  1.00  0.00    -0.301 A  
HETATM    9  C   UNL     1     -11.298  12.479  68.978  1.00  0.00    -0.342 A  
HETATM   10  C   UNL     1     -10.831  11.525  68.068  1.00  0.00    -0.259 A  
HETATM   11  C   UNL     1     -10.860  10.164  68.393  1.00  0.00    -0.284 A  
HETATM   12  C   UNL     1     -11.760  10.726  70.562  1.00  0.00    -0.449 A  
HETATM   13  C   UNL     1     -11.277   9.771  69.667  1.00  0.00    -0.216 A  
BRANCH  11  14
HETATM   14  C   UNL     1     -10.431   9.180  67.370  1.00  0.00    -0.271 C  
HETATM   15  O   UNL     1     -10.889   8.041  67.417  1.00  0.00    -0.231 OA 
BRANCH  14  16
HETATM   16  C   UNL     1      -9.429   9.521  66.320  1.00  0.00    -0.267 A  
HETATM   17  C   UNL     1      -8.068   9.431  66.646  1.00  0.00    -0.108 A  
HETATM   18  C   UNL     1      -7.095   9.783  65.710  1.00  0.00    -0.104 A  
HETATM   19  C   UNL     1      -7.476  10.234  64.446  1.00  0.00    -0.084 A  
HETATM   20  C   UNL     1      -8.825  10.331  64.112  1.00  0.00    -0.239 A  
HETATM   21 CL   UNL     1      -6.278  10.692  63.300  1.00  0.00    -0.054 Cl 
HETATM   22  C   UNL     1      -9.803   9.987  65.051  1.00  0.00    -0.374 A  
ENDBRANCH  14  16
ENDBRANCH  11  14
ENDBRANCH   3   8
TORSDOF 3
ENDMDL
MODEL      108
REMARK 921   NORMALIZED FREE ENERGY PREDICTED BY IDOCK:   -4.47 KCAL/MOL
REMARK 922        TOTAL FREE ENERGY PREDICTED BY IDOCK:   -5.87 KCAL/MOL
REMARK 923 INTER-LIGAND FREE ENERGY PREDICTED BY IDOCK:   -5.07 KCAL/MOL
REMARK 924 INTRA-LIGAND FREE ENERGY PREDICTED BY IDOCK:   -0.81 KCAL/MOL
REMARK 927      BINDING AFFINITY PREDICTED BY RF-SCORE:    0.00 PKD
ROOT
HETATM    1  C   UNL     1     -12.029  12.965  69.465  1.00  0.00    -0.346 C  
HETATM    2  C   UNL     1     -11.318  12.628  68.154  1.00  0.00    -0.290 C  
HETATM    3  O   UNL     1     -11.694  11.300  67.716  1.00  0.00    -0.549 OA 
HETATM    4  C   UNL     1     -11.901  13.566  67.070  1.00  0.00    -0.402 C  
HETATM    5  C   UNL     1      -9.811  12.912  68.187  1.00  0.00    -0.227 C  
HETATM    6  O   UNL     1     -12.409  12.904  65.998  1.00  0.00    -0.504 OA 
HETATM    7  O   UNL     1     -11.901  14.788  67.132  1.00  0.00    -0.374 OA 
ENDROOT
BRANCH   3   8
HETATM    8  C   UNL     1     -10.957  10.198  68.026  1.00  0.00    -0.270 A  
HETATM    9  C   UNL     1     -10.978   9.508  69.234  1.00  0.00    -0.167 A  
HETATM   10  C   UNL     1     -10.114   8.427  69.438  1.00  0.00    -0.198 A  
HETATM   11  C   UNL     1      -9.242   8.017  68.423  1.00  0.00    -0.135 A  
HETATM   12  C   UNL     1     -10.150   9.730  66.984  1.00  0.00    -0.277 A  
HETATM   13  C   UNL     1      -9.300   8.639  67.175  1.00  0.00    -0.190 A  
BRANCH  11  14
HETATM   14  C   UNL     1      -8.288   6.918  68.708  1.00  0.00    -0.121 C  
HETATM   15  O   UNL     1      -7.298   7.159  69.396  1.00  0.00    -0.085 OA 
BRANCH  14  16
HETATM   16  C   UNL     1      -8.472   5.549  68.149  1.00  0.00    -0.098 A  
HETATM   17  C   UNL     1      -7.809   5.224  66.957  1.00  0.00    -0.100 A  
HETATM   18  C   UNL     1      -7.987   3.969  66.371  1.00  0.00    -0.097 A  
HETATM   19  C   UNL     1      -8.833   3.036  66.970  1.00  0.00    -0.142 A  
HETATM   20  C   UNL     1      -9.501   3.349  68.152  1.00  0.00    -0.211 A  
HETATM   21 CL   UNL     1      -9.073   1.500  66.236  1.00  0.00    -0.085 Cl 
HETATM   22  C   UNL     1      -9.332   4.609  68.736  1.00  0.00    -0.197 A  
ENDBRANCH  14  16
ENDBRANCH  11  14
ENDBRANCH   3   8
TORSDOF 3
ENDMDL
MODEL      109
REMARK 921   NORMALIZED FREE ENERGY PREDICTED BY IDOCK:   -4.44 KCAL/MOL
REMARK 922        TOTAL FREE ENERGY PREDICTED BY IDOCK:   -5.84 KCAL/MOL
REMARK 923 INTER-LIGAND FREE ENERGY PREDICTED BY IDOCK:   -5.21 KCAL/MOL
REMARK 924 INTRA-LIGAND FREE ENERGY PREDICTED BY IDOCK:   -0.63 KCAL/MOL
REMARK 927      BINDING AFFINITY PREDICTED BY RF-SCORE:    0.00 PKD
ROOT
HETATM    1  C   UNL     1      -8.431  15.243  67.742  1.00  0.00    -0.158 C  
HETATM    2  C   UNL     1      -9.916  14.965  67.977  1.00  0.00    -0.220 C  
HETATM    3  O   UNL     1     -10.072  13.929  68.975  1.00  0.00    -0.152 OA 
HETATM    4  C   UNL     1     -10.512  16.229  68.642  1.00  0.00    -0.282 C  
HETATM    5  C   UNL     1     -10.710  14.761  66.679  1.00  0.00    -0.309 C  
HETATM    6  O   UNL     1     -11.131  15.977  69.824  1.00  0.00    -0.287 OA 
HETATM    7  O   UNL     1     -10.465  17.355  68.166  1.00  0.00    -0.355 OA 
ENDROOT
BRANCH   3   8
HETATM    8  C   UNL     1     -10.209  12.616  68.642  1.00  0.00    -0.154 A  
HETATM    9  C   UNL     1     -11.408  11.926  68.495  1.00  0.00    -0.329 A  
HETATM   10  C   UNL     1     -11.398  10.556  68.214  1.00  0.00    -0.332 A  
HETATM   11  C   UNL     1     -10.186   9.876  68.056  1.00  0.00    -0.219 A  
HETATM   12  C   UNL     1      -9.003  11.953  68.395  1.00  0.00    -0.163 A  
HETATM   13  C   UNL     1      -8.987  10.590  68.094  1.00  0.00    -0.138 A  
BRANCH  11  14
HETATM   14  C   UNL     1     -10.218   8.408  67.838  1.00  0.00    -0.217 C  
HETATM   15  O   UNL     1     -10.437   7.985  66.706  1.00  0.00    -0.330 OA 
BRANCH  14  16
HETATM   16  C   UNL     1     -10.038   7.442  68.958  1.00  0.00    -0.193 A  
HETATM   17  C   UNL     1     -10.633   6.176  68.844  1.00  0.00    -0.335 A  
HETATM   18  C   UNL     1     -10.530   5.254  69.887  1.00  0.00    -0.351 A  
HETATM   19  C   UNL     1      -9.839   5.592  71.049  1.00  0.00    -0.178 A  
HETATM   20  C   UNL     1      -9.247   6.847  71.175  1.00  0.00    -0.154 A  
HETATM   21 CL   UNL     1      -9.733   4.466  72.344  1.00  0.00    -0.200 Cl 
HETATM   22  C   UNL     1      -9.356   7.777  70.136  1.00  0.00    -0.153 A  
ENDBRANCH  14  16
ENDBRANCH  11  14
ENDBRANCH   3   8
TORSDOF 3
ENDMDL
MODEL      110
REMARK 921   NORMALIZED FREE ENERGY PREDICTED BY IDOCK:   -4.38 KCAL/MOL
REMARK 922        TOTAL FREE ENERGY PREDICTED BY IDOCK:   -5.77 KCAL/MOL
REMARK 923 INTER-LIGAND FREE ENERGY PREDICTED BY IDOCK:   -5.85 KCAL/MOL
REMARK 924 INTRA-LIGAND FREE ENERGY PREDICTED BY IDOCK:    0.09 KCAL/MOL
REMARK 927      BINDING AFFINITY PREDICTED BY RF-SCORE:    0.00 PKD
ROOT
HETATM    1  C   UNL     1      -7.340  17.471  66.582  1.00  0.00    -0.273 C  
HETATM    2  C   UNL     1      -7.795  17.293  68.031  1.00  0.00    -0.205 C  
HETATM    3  O   UNL     1      -7.552  15.932  68.460  1.00  0.00    -0.134 OA 
HETATM    4  C   UNL     1      -6.848  18.144  68.909  1.00  0.00    -0.258 C  
HETATM    5  C   UNL     1      -9.208  17.829  68.296  1.00  0.00    -0.280 C  
HETATM    6  O   UNL     1      -6.233  17.433  69.889  1.00  0.00    -0.232 OA 
HETATM    7  O   UNL     1      -6.665  19.347  68.774  1.00  0.00    -0.274 OA 
ENDROOT
BRANCH   3   8
HETATM    8  C   UNL     1      -8.507  14.964  68.379  1.00  0.00    -0.153 A  
HETATM    9  C   UNL     1      -9.883  15.169  68.339  1.00  0.00    -0.223 A  
HETATM   10  C   UNL     1     -10.753  14.074  68.323  1.00  0.00    -0.262 A  
HETATM   11  C   UNL     1     -10.248  12.769  68.324  1.00  0.00    -0.245 A  
HETATM   12  C   UNL     1      -8.005  13.662  68.289  1.00  0.00    -0.150 A  
HETATM   13  C   UNL     1      -8.869  12.566  68.252  1.00  0.00    -0.171 A  
BRANCH  11  14
HETATM   14  C   UNL     1     -11.205  11.637  68.387  1.00  0.00    -0.249 C  
HETATM   15  O   UNL     1     -12.153  11.621  67.606  1.00  0.00    -0.615 OA 
BRANCH  14  16
HETATM   16  C   UNL     1     -11.073  10.550  69.397  1.00  0.00    -0.310 A  
HETATM   17  C   UNL     1     -10.308   9.423  69.064  1.00  0.00    -0.224 A  
HETATM   18  C   UNL     1     -10.193   8.359  69.960  1.00  0.00    -0.202 A  
HETATM   19  C   UNL     1     -10.847   8.412  71.191  1.00  0.00    -0.237 A  
HETATM   20  C   UNL     1     -11.614   9.525  71.531  1.00  0.00    -0.465 A  
HETATM   21 CL   UNL     1     -10.727   7.092  72.286  1.00  0.00    -0.237 Cl 
HETATM   22  C   UNL     1     -11.738  10.589  70.632  1.00  0.00    -0.453 A  
ENDBRANCH  14  16
ENDBRANCH  11  14
ENDBRANCH   3   8
TORSDOF 3
ENDMDL
MODEL      111
REMARK 921   NORMALIZED FREE ENERGY PREDICTED BY IDOCK:   -4.35 KCAL/MOL
REMARK 922        TOTAL FREE ENERGY PREDICTED BY IDOCK:   -5.73 KCAL/MOL
REMARK 923 INTER-LIGAND FREE ENERGY PREDICTED BY IDOCK:   -4.89 KCAL/MOL
REMARK 924 INTRA-LIGAND FREE ENERGY PREDICTED BY IDOCK:   -0.84 KCAL/MOL
REMARK 927      BINDING AFFINITY PREDICTED BY RF-SCORE:    0.00 PKD
ROOT
HETATM    1  C   UNL     1      -8.463   4.422  67.408  1.00  0.00    -0.103 C  
HETATM    2  C   UNL     1      -9.165   5.248  66.329  1.00  0.00    -0.149 C  
HETATM    3  O   UNL     1      -8.523   6.539  66.201  1.00  0.00    -0.125 OA 
HETATM    4  C   UNL     1      -8.891   4.550  64.976  1.00  0.00    -0.146 C  
HETATM    5  C   UNL     1     -10.691   5.279  66.484  1.00  0.00    -0.290 C  
HETATM    6  O   UNL     1      -8.319   5.365  64.053  1.00  0.00    -0.135 OA 
HETATM    7  O   UNL     1      -9.169   3.385  64.724  1.00  0.00    -0.130 OA 
ENDROOT
BRANCH   3   8
HETATM    8  C   UNL     1      -8.963   7.638  66.875  1.00  0.00    -0.138 A  
HETATM    9  C   UNL     1      -8.900   7.838  68.250  1.00  0.00    -0.129 A  
HETATM   10  C   UNL     1      -9.453   8.992  68.816  1.00  0.00    -0.148 A  
HETATM   11  C   UNL     1     -10.049   9.962  68.003  1.00  0.00    -0.202 A  
HETATM   12  C   UNL     1      -9.478   8.650  66.058  1.00  0.00    -0.278 A  
HETATM   13  C   UNL     1     -10.013   9.813  66.615  1.00  0.00    -0.292 A  
BRANCH  11  14
HETATM   14  C   UNL     1     -10.694  11.131  68.649  1.00  0.00    -0.198 C  
HETATM   15  O   UNL     1     -11.298  10.963  69.705  1.00  0.00    -0.256 OA 
BRANCH  14  16
HETATM   16  C   UNL     1     -10.666  12.487  68.032  1.00  0.00    -0.242 A  
HETATM   17  C   UNL     1     -11.785  12.906  67.298  1.00  0.00    -0.431 A  
HETATM   18  C   UNL     1     -11.787  14.149  66.664  1.00  0.00    -0.447 A  
HETATM   19  C   UNL     1     -10.669  14.978  66.754  1.00  0.00    -0.308 A  
HETATM   20  C   UNL     1      -9.549  14.571  67.477  1.00  0.00    -0.210 A  
HETATM   21 CL   UNL     1     -10.660  16.499  65.953  1.00  0.00    -0.311 Cl 
HETATM   22  C   UNL     1      -9.541  13.322  68.106  1.00  0.00    -0.227 A  
ENDBRANCH  14  16
ENDBRANCH  11  14
ENDBRANCH   3   8
TORSDOF 3
ENDMDL
MODEL      112
REMARK 921   NORMALIZED FREE ENERGY PREDICTED BY IDOCK:   -4.30 KCAL/MOL
REMARK 922        TOTAL FREE ENERGY PREDICTED BY IDOCK:   -5.68 KCAL/MOL
REMARK 923 INTER-LIGAND FREE ENERGY PREDICTED BY IDOCK:   -5.21 KCAL/MOL
REMARK 924 INTRA-LIGAND FREE ENERGY PREDICTED BY IDOCK:   -0.47 KCAL/MOL
REMARK 927      BINDING AFFINITY PREDICTED BY RF-SCORE:    0.00 PKD
ROOT
HETATM    1  C   UNL     1      -8.290   8.170  65.557  1.00  0.00    -0.160 C  
HETATM    2  C   UNL     1      -8.225   7.901  67.061  1.00  0.00    -0.117 C  
HETATM    3  O   UNL     1      -9.563   7.783  67.600  1.00  0.00    -0.141 OA 
HETATM    4  C   UNL     1      -7.615   6.490  67.241  1.00  0.00    -0.096 C  
HETATM    5  C   UNL     1      -7.290   8.859  67.811  1.00  0.00    -0.085 C  
HETATM    6  O   UNL     1      -8.398   5.651  67.967  1.00  0.00    -0.101 OA 
HETATM    7  O   UNL     1      -6.528   6.139  66.802  1.00  0.00    -0.043 OA 
ENDROOT
BRANCH   3   8
HETATM    8  C   UNL     1     -10.222   8.843  68.144  1.00  0.00    -0.201 A  
HETATM    9  C   UNL     1     -10.834   9.877  67.444  1.00  0.00    -0.293 A  
HETATM   10  C   UNL     1     -11.420  10.942  68.137  1.00  0.00    -0.368 A  
HETATM   11  C   UNL     1     -11.416  10.962  69.536  1.00  0.00    -0.372 A  
HETATM   12  C   UNL     1     -10.299   8.822  69.540  1.00  0.00    -0.213 A  
HETATM   13  C   UNL     1     -10.900   9.871  70.238  1.00  0.00    -0.367 A  
BRANCH  11  14
HETATM   14  C   UNL     1     -11.977  12.147  70.230  1.00  0.00    -0.305 C  
HETATM   15  O   UNL     1     -12.745  11.970  71.173  1.00  0.00    -0.364 OA 
BRANCH  14  16
HETATM   16  C   UNL     1     -11.671  13.537  69.789  1.00  0.00    -0.363 A  
HETATM   17  C   UNL     1     -10.519  13.751  69.018  1.00  0.00    -0.117 A  
HETATM   18  C   UNL     1     -10.168  15.042  68.619  1.00  0.00    -0.231 A  
HETATM   19  C   UNL     1     -10.962  16.125  68.994  1.00  0.00    -0.312 A  
HETATM   20  C   UNL     1     -12.107  15.926  69.762  1.00  0.00    -0.231 A  
HETATM   21 CL   UNL     1     -10.517  17.719  68.525  1.00  0.00    -0.357 Cl 
HETATM   22  C   UNL     1     -12.457  14.635  70.171  1.00  0.00    -0.369 A  
ENDBRANCH  14  16
ENDBRANCH  11  14
ENDBRANCH   3   8
TORSDOF 3
ENDMDL
MODEL      113
REMARK 921   NORMALIZED FREE ENERGY PREDICTED BY IDOCK:   -4.30 KCAL/MOL
REMARK 922        TOTAL FREE ENERGY PREDICTED BY IDOCK:   -5.68 KCAL/MOL
REMARK 923 INTER-LIGAND FREE ENERGY PREDICTED BY IDOCK:   -4.97 KCAL/MOL
REMARK 924 INTRA-LIGAND FREE ENERGY PREDICTED BY IDOCK:   -0.70 KCAL/MOL
REMARK 927      BINDING AFFINITY PREDICTED BY RF-SCORE:    0.00 PKD
ROOT
HETATM    1  C   UNL     1      -9.064   2.282  64.784  1.00  0.00    -0.126 C  
HETATM    2  C   UNL     1      -9.187   3.803  64.885  1.00  0.00    -0.148 C  
HETATM    3  O   UNL     1      -8.325   4.299  65.936  1.00  0.00    -0.108 OA 
HETATM    4  C   UNL     1      -8.585   4.392  63.588  1.00  0.00    -0.122 C  
HETATM    5  C   UNL     1     -10.640   4.294  64.933  1.00  0.00    -0.160 C  
HETATM    6  O   UNL     1      -7.592   5.291  63.811  1.00  0.00    -0.063 OA 
HETATM    7  O   UNL     1      -8.957   4.113  62.456  1.00  0.00    -0.097 OA 
ENDROOT
BRANCH   3   8
HETATM    8  C   UNL     1      -8.771   4.500  67.207  1.00  0.00    -0.104 A  
HETATM    9  C   UNL     1      -8.990   3.516  68.166  1.00  0.00    -0.176 A  
HETATM   10  C   UNL     1      -9.516   3.862  69.415  1.00  0.00    -0.260 A  
HETATM   11  C   UNL     1      -9.803   5.197  69.717  1.00  0.00    -0.283 A  
HETATM   12  C   UNL     1      -8.974   5.842  67.543  1.00  0.00    -0.107 A  
HETATM   13  C   UNL     1      -9.480   6.195  68.796  1.00  0.00    -0.128 A  
BRANCH  11  14
HETATM   14  C   UNL     1     -10.434   5.510  71.023  1.00  0.00    -0.244 C  
HETATM   15  O   UNL     1     -10.447   4.645  71.895  1.00  0.00    -0.181 OA 
BRANCH  14  16
HETATM   16  C   UNL     1     -11.088   6.823  71.287  1.00  0.00    -0.303 A  
HETATM   17  C   UNL     1     -12.489   6.884  71.261  1.00  0.00    -0.409 A  
HETATM   18  C   UNL     1     -13.146   8.100  71.458  1.00  0.00    -0.309 A  
HETATM   19  C   UNL     1     -12.406   9.262  71.676  1.00  0.00    -0.372 A  
HETATM   20  C   UNL     1     -11.014   9.215  71.700  1.00  0.00    -0.445 A  
HETATM   21 CL   UNL     1     -13.212  10.765  71.894  1.00  0.00    -0.571 Cl 
HETATM   22  C   UNL     1     -10.353   7.999  71.494  1.00  0.00    -0.258 A  
ENDBRANCH  14  16
ENDBRANCH  11  14
ENDBRANCH   3   8
TORSDOF 3
ENDMDL
MODEL      114
REMARK 921   NORMALIZED FREE ENERGY PREDICTED BY IDOCK:   -4.26 KCAL/MOL
REMARK 922        TOTAL FREE ENERGY PREDICTED BY IDOCK:   -5.63 KCAL/MOL
REMARK 923 INTER-LIGAND FREE ENERGY PREDICTED BY IDOCK:   -4.76 KCAL/MOL
REMARK 924 INTRA-LIGAND FREE ENERGY PREDICTED BY IDOCK:   -0.88 KCAL/MOL
REMARK 927      BINDING AFFINITY PREDICTED BY RF-SCORE:    0.00 PKD
ROOT
HETATM    1  C   UNL     1      -8.239   3.215  66.130  1.00  0.00    -0.094 C  
HETATM    2  C   UNL     1      -8.842   4.517  65.601  1.00  0.00    -0.127 C  
HETATM    3  O   UNL     1      -7.938   5.618  65.855  1.00  0.00    -0.102 OA 
HETATM    4  C   UNL     1      -8.879   4.403  64.058  1.00  0.00    -0.142 C  
HETATM    5  C   UNL     1     -10.295   4.738  66.040  1.00  0.00    -0.328 C  
HETATM    6  O   UNL     1      -8.235   5.417  63.425  1.00  0.00    -0.115 OA 
HETATM    7  O   UNL     1      -9.443   3.511  63.438  1.00  0.00    -0.104 OA 
ENDROOT
BRANCH   3   8
HETATM    8  C   UNL     1      -8.039   6.398  66.966  1.00  0.00    -0.112 A  
HETATM    9  C   UNL     1      -7.743   6.014  68.270  1.00  0.00    -0.102 A  
HETATM   10  C   UNL     1      -7.958   6.903  69.328  1.00  0.00    -0.116 A  
HETATM   11  C   UNL     1      -8.449   8.190  69.082  1.00  0.00    -0.135 A  
HETATM   12  C   UNL     1      -8.444   7.713  66.715  1.00  0.00    -0.127 A  
HETATM   13  C   UNL     1      -8.641   8.612  67.765  1.00  0.00    -0.136 A  
BRANCH  11  14
HETATM   14  C   UNL     1      -8.739   9.073  70.238  1.00  0.00    -0.184 C  
HETATM   15  O   UNL     1      -7.837   9.781  70.680  1.00  0.00    -0.277 OA 
BRANCH  14  16
HETATM   16  C   UNL     1     -10.072   9.090  70.903  1.00  0.00    -0.329 A  
HETATM   17  C   UNL     1     -10.300   8.195  71.958  1.00  0.00    -0.320 A  
HETATM   18  C   UNL     1     -11.548   8.143  72.581  1.00  0.00    -0.441 A  
HETATM   19  C   UNL     1     -12.577   8.980  72.148  1.00  0.00    -0.391 A  
HETATM   20  C   UNL     1     -12.363   9.871  71.098  1.00  0.00    -0.466 A  
HETATM   21 CL   UNL     1     -14.122   8.900  72.898  1.00  0.00    -0.209 Cl 
HETATM   22  C   UNL     1     -11.116   9.919  70.467  1.00  0.00    -0.398 A  
ENDBRANCH  14  16
ENDBRANCH  11  14
ENDBRANCH   3   8
TORSDOF 3
ENDMDL
MODEL      115
REMARK 921   NORMALIZED FREE ENERGY PREDICTED BY IDOCK:   -4.25 KCAL/MOL
REMARK 922        TOTAL FREE ENERGY PREDICTED BY IDOCK:   -5.62 KCAL/MOL
REMARK 923 INTER-LIGAND FREE ENERGY PREDICTED BY IDOCK:   -5.02 KCAL/MOL
REMARK 924 INTRA-LIGAND FREE ENERGY PREDICTED BY IDOCK:   -0.61 KCAL/MOL
REMARK 927      BINDING AFFINITY PREDICTED BY RF-SCORE:    0.00 PKD
ROOT
HETATM    1  C   UNL     1     -11.899  13.637  67.160  1.00  0.00    -0.435 C  
HETATM    2  C   UNL     1     -11.036  13.272  68.368  1.00  0.00    -0.264 C  
HETATM    3  O   UNL     1     -10.019  12.318  67.978  1.00  0.00    -0.190 OA 
HETATM    4  C   UNL     1     -10.240  14.541  68.755  1.00  0.00    -0.244 C  
HETATM    5  C   UNL     1     -11.855  12.896  69.610  1.00  0.00    -0.387 C  
HETATM    6  O   UNL     1      -8.896  14.348  68.785  1.00  0.00    -0.183 OA 
HETATM    7  O   UNL     1     -10.742  15.622  69.032  1.00  0.00    -0.214 OA 
ENDROOT
BRANCH   3   8
HETATM    8  C   UNL     1     -10.199  10.974  68.104  1.00  0.00    -0.182 A  
HETATM    9  C   UNL     1     -10.083  10.237  69.279  1.00  0.00    -0.244 A  
HETATM   10  C   UNL     1     -10.230   8.846  69.249  1.00  0.00    -0.214 A  
HETATM   11  C   UNL     1     -10.516   8.190  68.047  1.00  0.00    -0.242 A  
HETATM   12  C   UNL     1     -10.573  10.327  66.923  1.00  0.00    -0.282 A  
HETATM   13  C   UNL     1     -10.741   8.941  66.891  1.00  0.00    -0.153 A  
BRANCH  11  14
HETATM   14  C   UNL     1     -10.585   6.709  68.045  1.00  0.00    -0.245 C  
HETATM   15  O   UNL     1     -11.182   6.144  68.958  1.00  0.00    -0.383 OA 
BRANCH  14  16
HETATM   16  C   UNL     1      -9.913   5.890  66.996  1.00  0.00    -0.195 A  
HETATM   17  C   UNL     1      -8.550   6.112  66.752  1.00  0.00    -0.111 A  
HETATM   18  C   UNL     1      -7.888   5.402  65.749  1.00  0.00    -0.100 A  
HETATM   19  C   UNL     1      -8.587   4.471  64.981  1.00  0.00    -0.133 A  
HETATM   20  C   UNL     1      -9.942   4.244  65.211  1.00  0.00    -0.229 A  
HETATM   21 CL   UNL     1      -7.780   3.613  63.728  1.00  0.00    -0.077 Cl 
HETATM   22  C   UNL     1     -10.610   4.961  66.210  1.00  0.00    -0.307 A  
ENDBRANCH  14  16
ENDBRANCH  11  14
ENDBRANCH   3   8
TORSDOF 3
ENDMDL
MODEL      116
REMARK 921   NORMALIZED FREE ENERGY PREDICTED BY IDOCK:   -4.23 KCAL/MOL
REMARK 922        TOTAL FREE ENERGY PREDICTED BY IDOCK:   -5.59 KCAL/MOL
REMARK 923 INTER-LIGAND FREE ENERGY PREDICTED BY IDOCK:   -4.84 KCAL/MOL
REMARK 924 INTRA-LIGAND FREE ENERGY PREDICTED BY IDOCK:   -0.75 KCAL/MOL
REMARK 927      BINDING AFFINITY PREDICTED BY RF-SCORE:    0.00 PKD
ROOT
HETATM    1  C   UNL     1     -11.379  15.032  67.716  1.00  0.00    -0.340 C  
HETATM    2  C   UNL     1     -11.463  13.926  66.664  1.00  0.00    -0.355 C  
HETATM    3  O   UNL     1     -12.139  12.770  67.215  1.00  0.00    -0.399 OA 
HETATM    4  C   UNL     1     -12.415  14.430  65.553  1.00  0.00    -0.347 C  
HETATM    5  C   UNL     1     -10.124  13.642  65.971  1.00  0.00    -0.320 C  
HETATM    6  O   UNL     1     -13.457  13.593  65.312  1.00  0.00    -0.541 OA 
HETATM    7  O   UNL     1     -12.261  15.466  64.921  1.00  0.00    -0.044 OA 
ENDROOT
BRANCH   3   8
HETATM    8  C   UNL     1     -11.460  11.735  67.783  1.00  0.00    -0.311 A  
HETATM    9  C   UNL     1     -11.017  11.669  69.100  1.00  0.00    -0.270 A  
HETATM   10  C   UNL     1     -10.270  10.567  69.533  1.00  0.00    -0.230 A  
HETATM   11  C   UNL     1      -9.984   9.517  68.653  1.00  0.00    -0.181 A  
HETATM   12  C   UNL     1     -11.250  10.645  66.934  1.00  0.00    -0.052 A  
HETATM   13  C   UNL     1     -10.523   9.534  67.365  1.00  0.00    -0.336 A  
BRANCH  11  14
HETATM   14  C   UNL     1      -9.123   8.407  69.129  1.00  0.00    -0.147 C  
HETATM   15  O   UNL     1      -9.017   7.402  68.430  1.00  0.00    -0.135 OA 
BRANCH  14  16
HETATM   16  C   UNL     1      -8.424   8.460  70.444  1.00  0.00    -0.130 A  
HETATM   17  C   UNL     1      -7.115   8.962  70.480  1.00  0.00    -0.064 A  
HETATM   18  C   UNL     1      -6.404   8.989  71.681  1.00  0.00    -0.067 A  
HETATM   19  C   UNL     1      -6.994   8.509  72.850  1.00  0.00    -0.022 A  
HETATM   20  C   UNL     1      -8.293   8.004  72.825  1.00  0.00    -0.223 A  
HETATM   21 CL   UNL     1      -6.111   8.518  74.325  1.00  0.00    -0.133 Cl 
HETATM   22  C   UNL     1      -9.005   7.968  71.622  1.00  0.00    -0.192 A  
ENDBRANCH  14  16
ENDBRANCH  11  14
ENDBRANCH   3   8
TORSDOF 3
ENDMDL
MODEL      117
REMARK 921   NORMALIZED FREE ENERGY PREDICTED BY IDOCK:   -4.20 KCAL/MOL
REMARK 922        TOTAL FREE ENERGY PREDICTED BY IDOCK:   -5.56 KCAL/MOL
REMARK 923 INTER-LIGAND FREE ENERGY PREDICTED BY IDOCK:   -5.84 KCAL/MOL
REMARK 924 INTRA-LIGAND FREE ENERGY PREDICTED BY IDOCK:    0.28 KCAL/MOL
REMARK 927      BINDING AFFINITY PREDICTED BY RF-SCORE:    0.00 PKD
ROOT
HETATM    1  C   UNL     1     -11.501  15.367  71.827  1.00  0.00    -0.497 C  
HETATM    2  C   UNL     1     -12.671  14.600  71.212  1.00  0.00    -0.332 C  
HETATM    3  O   UNL     1     -12.394  13.180  71.230  1.00  0.00    -0.292 OA 
HETATM    4  C   UNL     1     -13.874  14.766  72.169  1.00  0.00    -0.475 C  
HETATM    5  C   UNL     1     -13.128  15.168  69.861  1.00  0.00     0.198 C  
HETATM    6  O   UNL     1     -14.402  13.586  72.585  1.00  0.00    -0.716 OA 
HETATM    7  O   UNL     1     -14.342  15.841  72.521  1.00  0.00    -0.528 OA 
ENDROOT
BRANCH   3   8
HETATM    8  C   UNL     1     -11.832  12.536  70.170  1.00  0.00    -0.258 A  
HETATM    9  C   UNL     1     -11.933  11.178  69.885  1.00  0.00    -0.439 A  
HETATM   10  C   UNL     1     -11.245  10.638  68.793  1.00  0.00    -0.337 A  
HETATM   11  C   UNL     1     -10.473  11.462  67.967  1.00  0.00    -0.215 A  
HETATM   12  C   UNL     1     -11.133  13.370  69.291  1.00  0.00    -0.216 A  
HETATM   13  C   UNL     1     -10.461  12.840  68.187  1.00  0.00    -0.244 A  
BRANCH  11  14
HETATM   14  C   UNL     1      -9.696  10.837  66.868  1.00  0.00    -0.178 C  
HETATM   15  O   UNL     1      -9.514  11.478  65.836  1.00  0.00    -0.221 OA 
BRANCH  14  16
HETATM   16  C   UNL     1      -9.175   9.444  66.964  1.00  0.00    -0.171 A  
HETATM   17  C   UNL     1      -9.935   8.410  66.398  1.00  0.00    -0.291 A  
HETATM   18  C   UNL     1      -9.510   7.085  66.503  1.00  0.00    -0.199 A  
HETATM   19  C   UNL     1      -8.327   6.785  67.178  1.00  0.00    -0.121 A  
HETATM   20  C   UNL     1      -7.565   7.804  67.748  1.00  0.00    -0.113 A  
HETATM   21 CL   UNL     1      -7.814   5.151  67.330  1.00  0.00    -0.096 Cl 
HETATM   22  C   UNL     1      -7.994   9.132  67.652  1.00  0.00    -0.100 A  
ENDBRANCH  14  16
ENDBRANCH  11  14
ENDBRANCH   3   8
TORSDOF 3
ENDMDL
MODEL      118
REMARK 921   NORMALIZED FREE ENERGY PREDICTED BY IDOCK:   -4.18 KCAL/MOL
REMARK 922        TOTAL FREE ENERGY PREDICTED BY IDOCK:   -5.54 KCAL/MOL
REMARK 923 INTER-LIGAND FREE ENERGY PREDICTED BY IDOCK:   -4.88 KCAL/MOL
REMARK 924 INTRA-LIGAND FREE ENERGY PREDICTED BY IDOCK:   -0.66 KCAL/MOL
REMARK 927      BINDING AFFINITY PREDICTED BY RF-SCORE:    0.00 PKD
ROOT
HETATM    1  C   UNL     1      -8.483   7.106  70.849  1.00  0.00    -0.133 C  
HETATM    2  C   UNL     1      -9.796   7.831  70.548  1.00  0.00    -0.182 C  
HETATM    3  O   UNL     1      -9.795   8.305  69.181  1.00  0.00    -0.172 OA 
HETATM    4  C   UNL     1     -10.917   6.766  70.582  1.00  0.00    -0.267 C  
HETATM    5  C   UNL     1     -10.174   8.872  71.610  1.00  0.00    -0.415 C  
HETATM    6  O   UNL     1     -11.649   6.714  69.439  1.00  0.00    -0.274 OA 
HETATM    7  O   UNL     1     -11.161   6.040  71.536  1.00  0.00    -0.268 OA 
ENDROOT
BRANCH   3   8
HETATM    8  C   UNL     1      -9.397   9.565  68.850  1.00  0.00    -0.149 A  
HETATM    9  C   UNL     1     -10.231  10.640  68.560  1.00  0.00    -0.191 A  
HETATM   10  C   UNL     1      -9.681  11.866  68.168  1.00  0.00    -0.194 A  
HETATM   11  C   UNL     1      -8.294  12.026  68.089  1.00  0.00    -0.165 A  
HETATM   12  C   UNL     1      -8.012   9.754  68.857  1.00  0.00    -0.092 A  
HETATM   13  C   UNL     1      -7.457  10.981  68.486  1.00  0.00    -0.106 A  
BRANCH  11  14
HETATM   14  C   UNL     1      -7.755  13.316  67.593  1.00  0.00    -0.171 C  
HETATM   15  O   UNL     1      -6.599  13.353  67.179  1.00  0.00    -0.195 OA 
BRANCH  14  16
HETATM   16  C   UNL     1      -8.558  14.571  67.628  1.00  0.00    -0.184 A  
HETATM   17  C   UNL     1      -9.094  15.049  66.424  1.00  0.00    -0.312 A  
HETATM   18  C   UNL     1      -9.815  16.244  66.399  1.00  0.00    -0.310 A  
HETATM   19  C   UNL     1      -9.999  16.970  67.575  1.00  0.00    -0.274 A  
HETATM   20  C   UNL     1      -9.467  16.507  68.777  1.00  0.00    -0.246 A  
HETATM   21 CL   UNL     1     -10.865  18.455  67.542  1.00  0.00    -0.387 Cl 
HETATM   22  C   UNL     1      -8.737  15.315  68.804  1.00  0.00    -0.195 A  
ENDBRANCH  14  16
ENDBRANCH  11  14
ENDBRANCH   3   8
TORSDOF 3
ENDMDL
MODEL      119
REMARK 921   NORMALIZED FREE ENERGY PREDICTED BY IDOCK:   -4.18 KCAL/MOL
REMARK 922        TOTAL FREE ENERGY PREDICTED BY IDOCK:   -5.54 KCAL/MOL
REMARK 923 INTER-LIGAND FREE ENERGY PREDICTED BY IDOCK:   -4.93 KCAL/MOL
REMARK 924 INTRA-LIGAND FREE ENERGY PREDICTED BY IDOCK:   -0.61 KCAL/MOL
REMARK 927      BINDING AFFINITY PREDICTED BY RF-SCORE:    0.00 PKD
ROOT
HETATM    1  C   UNL     1      -8.117   8.590  69.559  1.00  0.00    -0.111 C  
HETATM    2  C   UNL     1      -9.405   9.256  69.074  1.00  0.00    -0.151 C  
HETATM    3  O   UNL     1      -9.107  10.195  68.014  1.00  0.00    -0.130 OA 
HETATM    4  C   UNL     1     -10.250   8.158  68.385  1.00  0.00    -0.209 C  
HETATM    5  C   UNL     1     -10.276   9.800  70.215  1.00  0.00    -0.346 C  
HETATM    6  O   UNL     1     -10.595   8.463  67.107  1.00  0.00    -0.311 OA 
HETATM    7  O   UNL     1     -10.606   7.115  68.917  1.00  0.00    -0.206 OA 
ENDROOT
BRANCH   3   8
HETATM    8  C   UNL     1      -8.894  11.518  68.255  1.00  0.00    -0.166 A  
HETATM    9  C   UNL     1      -9.858  12.521  68.247  1.00  0.00    -0.227 A  
HETATM   10  C   UNL     1      -9.484  13.854  68.447  1.00  0.00    -0.211 A  
HETATM   11  C   UNL     1      -8.145  14.185  68.680  1.00  0.00    -0.126 A  
HETATM   12  C   UNL     1      -7.572  11.842  68.578  1.00  0.00    -0.131 A  
HETATM   13  C   UNL     1      -7.196  13.168  68.799  1.00  0.00    -0.085 A  
BRANCH  11  14
HETATM   14  C   UNL     1      -7.780  15.617  68.808  1.00  0.00    -0.165 C  
HETATM   15  O   UNL     1      -6.868  15.928  69.571  1.00  0.00    -0.187 OA 
BRANCH  14  16
HETATM   16  C   UNL     1      -8.515  16.686  68.075  1.00  0.00    -0.192 A  
HETATM   17  C   UNL     1      -8.023  17.095  66.827  1.00  0.00    -0.271 A  
HETATM   18  C   UNL     1      -8.651  18.124  66.124  1.00  0.00    -0.125 A  
HETATM   19  C   UNL     1      -9.770  18.754  66.667  1.00  0.00    -0.344 A  
HETATM   20  C   UNL     1     -10.266  18.360  67.908  1.00  0.00    -0.404 A  
HETATM   21 CL   UNL     1     -10.531  20.039  65.814  1.00  0.00    -0.546 Cl 
HETATM   22  C   UNL     1      -9.633  17.335  68.619  1.00  0.00    -0.284 A  
ENDBRANCH  14  16
ENDBRANCH  11  14
ENDBRANCH   3   8
TORSDOF 3
ENDMDL
MODEL      120
REMARK 921   NORMALIZED FREE ENERGY PREDICTED BY IDOCK:   -4.14 KCAL/MOL
REMARK 922        TOTAL FREE ENERGY PREDICTED BY IDOCK:   -5.48 KCAL/MOL
REMARK 923 INTER-LIGAND FREE ENERGY PREDICTED BY IDOCK:   -4.93 KCAL/MOL
REMARK 924 INTRA-LIGAND FREE ENERGY PREDICTED BY IDOCK:   -0.56 KCAL/MOL
REMARK 927      BINDING AFFINITY PREDICTED BY RF-SCORE:    0.00 PKD
ROOT
HETATM    1  C   UNL     1     -10.100   7.595  66.938  1.00  0.00    -0.348 C  
HETATM    2  C   UNL     1      -8.861   8.465  67.155  1.00  0.00    -0.130 C  
HETATM    3  O   UNL     1      -9.000   9.225  68.379  1.00  0.00    -0.129 OA 
HETATM    4  C   UNL     1      -7.680   7.506  67.435  1.00  0.00    -0.117 C  
HETATM    5  C   UNL     1      -8.459   9.273  65.914  1.00  0.00    -0.141 C  
HETATM    6  O   UNL     1      -7.041   7.761  68.606  1.00  0.00    -0.072 OA 
HETATM    7  O   UNL     1      -7.318   6.608  66.686  1.00  0.00    -0.075 OA 
ENDROOT
BRANCH   3   8
HETATM    8  C   UNL     1      -9.497  10.493  68.392  1.00  0.00    -0.157 A  
HETATM    9  C   UNL     1      -8.811  11.648  68.031  1.00  0.00    -0.162 A  
HETATM   10  C   UNL     1      -9.428  12.898  68.158  1.00  0.00    -0.218 A  
HETATM   11  C   UNL     1     -10.744  12.992  68.625  1.00  0.00    -0.273 A  
HETATM   12  C   UNL     1     -10.840  10.584  68.771  1.00  0.00    -0.269 A  
HETATM   13  C   UNL     1     -11.468  11.827  68.881  1.00  0.00    -0.357 A  
BRANCH  11  14
HETATM   14  C   UNL     1     -11.333  14.340  68.820  1.00  0.00    -0.275 C  
HETATM   15  O   UNL     1     -12.369  14.442  69.471  1.00  0.00    -0.305 OA 
BRANCH  14  16
HETATM   16  C   UNL     1     -10.729  15.559  68.212  1.00  0.00    -0.271 A  
HETATM   17  C   UNL     1     -10.929  15.788  66.843  1.00  0.00    -0.207 A  
HETATM   18  C   UNL     1     -10.346  16.892  66.220  1.00  0.00    -0.312 A  
HETATM   19  C   UNL     1      -9.554  17.770  66.960  1.00  0.00    -0.284 A  
HETATM   20  C   UNL     1      -9.344  17.551  68.320  1.00  0.00    -0.281 A  
HETATM   21 CL   UNL     1      -8.814  19.117  66.190  1.00  0.00    -0.287 Cl 
HETATM   22  C   UNL     1      -9.920  16.440  68.945  1.00  0.00    -0.257 A  
ENDBRANCH  14  16
ENDBRANCH  11  14
ENDBRANCH   3   8
TORSDOF 3
ENDMDL
MODEL      121
REMARK 921   NORMALIZED FREE ENERGY PREDICTED BY IDOCK:   -4.09 KCAL/MOL
REMARK 922        TOTAL FREE ENERGY PREDICTED BY IDOCK:   -5.43 KCAL/MOL
REMARK 923 INTER-LIGAND FREE ENERGY PREDICTED BY IDOCK:   -4.70 KCAL/MOL
REMARK 924 INTRA-LIGAND FREE ENERGY PREDICTED BY IDOCK:   -0.72 KCAL/MOL
REMARK 927      BINDING AFFINITY PREDICTED BY RF-SCORE:    0.00 PKD
ROOT
HETATM    1  C   UNL     1      -9.641   5.757  71.819  1.00  0.00    -0.178 C  
HETATM    2  C   UNL     1      -9.267   5.687  70.338  1.00  0.00    -0.152 C  
HETATM    3  O   UNL     1      -8.173   6.593  70.061  1.00  0.00    -0.125 OA 
HETATM    4  C   UNL     1      -8.671   4.282  70.088  1.00  0.00    -0.074 C  
HETATM    5  C   UNL     1     -10.476   5.801  69.399  1.00  0.00    -0.360 C  
HETATM    6  O   UNL     1      -7.426   4.311  69.545  1.00  0.00    -0.053 OA 
HETATM    7  O   UNL     1      -9.245   3.228  70.327  1.00  0.00    -0.125 OA 
ENDROOT
BRANCH   3   8
HETATM    8  C   UNL     1      -8.379   7.865  69.619  1.00  0.00    -0.131 A  
HETATM    9  C   UNL     1      -9.070   8.867  70.292  1.00  0.00    -0.201 A  
HETATM   10  C   UNL     1      -9.262  10.114  69.687  1.00  0.00    -0.206 A  
HETATM   11  C   UNL     1      -8.740  10.369  68.413  1.00  0.00    -0.129 A  
HETATM   12  C   UNL     1      -7.783   8.152  68.387  1.00  0.00    -0.113 A  
HETATM   13  C   UNL     1      -7.953   9.401  67.786  1.00  0.00    -0.096 A  
BRANCH  11  14
HETATM   14  C   UNL     1      -9.034  11.675  67.775  1.00  0.00    -0.170 C  
HETATM   15  O   UNL     1      -8.548  12.693  68.262  1.00  0.00    -0.178 OA 
BRANCH  14  16
HETATM   16  C   UNL     1      -9.934  11.789  66.592  1.00  0.00    -0.224 A  
HETATM   17  C   UNL     1     -11.177  12.417  66.762  1.00  0.00    -0.363 A  
HETATM   18  C   UNL     1     -12.072  12.507  65.695  1.00  0.00    -0.464 A  
HETATM   19  C   UNL     1     -11.734  11.965  64.455  1.00  0.00    -0.248 A  
HETATM   20  C   UNL     1     -10.504  11.336  64.276  1.00  0.00    -0.419 A  
HETATM   21 CL   UNL     1     -12.845  12.054  63.147  1.00  0.00    -0.435 Cl 
HETATM   22  C   UNL     1      -9.608  11.236  65.346  1.00  0.00    -0.261 A  
ENDBRANCH  14  16
ENDBRANCH  11  14
ENDBRANCH   3   8
TORSDOF 3
ENDMDL
MODEL      122
REMARK 921   NORMALIZED FREE ENERGY PREDICTED BY IDOCK:   -4.08 KCAL/MOL
REMARK 922        TOTAL FREE ENERGY PREDICTED BY IDOCK:   -5.42 KCAL/MOL
REMARK 923 INTER-LIGAND FREE ENERGY PREDICTED BY IDOCK:   -5.25 KCAL/MOL
REMARK 924 INTRA-LIGAND FREE ENERGY PREDICTED BY IDOCK:   -0.17 KCAL/MOL
REMARK 927      BINDING AFFINITY PREDICTED BY RF-SCORE:    0.00 PKD
ROOT
HETATM    1  C   UNL     1     -14.281  14.518  71.133  1.00  0.00    -0.172 C  
HETATM    2  C   UNL     1     -12.810  14.215  71.416  1.00  0.00    -0.355 C  
HETATM    3  O   UNL     1     -12.248  13.439  70.332  1.00  0.00    -0.343 OA 
HETATM    4  C   UNL     1     -12.051  15.562  71.355  1.00  0.00    -0.393 C  
HETATM    5  C   UNL     1     -12.563  13.660  72.825  1.00  0.00     0.089 C  
HETATM    6  O   UNL     1     -11.020  15.562  70.471  1.00  0.00    -0.308 OA 
HETATM    7  O   UNL     1     -12.316  16.544  72.036  1.00  0.00    -0.242 OA 
ENDROOT
BRANCH   3   8
HETATM    8  C   UNL     1     -12.201  12.079  70.361  1.00  0.00    -0.294 A  
HETATM    9  C   UNL     1     -12.976  11.247  71.163  1.00  0.00    -0.369 A  
HETATM   10  C   UNL     1     -12.775   9.863  71.138  1.00  0.00    -0.462 A  
HETATM   11  C   UNL     1     -11.812   9.304  70.290  1.00  0.00    -0.015 A  
HETATM   12  C   UNL     1     -11.305  11.510  69.451  1.00  0.00    -0.355 A  
HETATM   13  C   UNL     1     -11.113  10.128  69.406  1.00  0.00    -0.288 A  
BRANCH  11  14
HETATM   14  C   UNL     1     -11.575   7.841  70.352  1.00  0.00    -0.098 C  
HETATM   15  O   UNL     1     -12.103   7.195  71.254  1.00  0.00    -0.312 OA 
BRANCH  14  16
HETATM   16  C   UNL     1     -10.684   7.146  69.381  1.00  0.00    -0.246 A  
HETATM   17  C   UNL     1     -11.276   6.391  68.358  1.00  0.00    -0.297 A  
HETATM   18  C   UNL     1     -10.482   5.685  67.453  1.00  0.00    -0.306 A  
HETATM   19  C   UNL     1      -9.092   5.725  67.569  1.00  0.00    -0.106 A  
HETATM   20  C   UNL     1      -8.492   6.468  68.584  1.00  0.00    -0.121 A  
HETATM   21 CL   UNL     1      -8.113   4.836  66.470  1.00  0.00    -0.107 Cl 
HETATM   22  C   UNL     1      -9.286   7.169  69.497  1.00  0.00    -0.148 A  
ENDBRANCH  14  16
ENDBRANCH  11  14
ENDBRANCH   3   8
TORSDOF 3
ENDMDL
MODEL      123
REMARK 921   NORMALIZED FREE ENERGY PREDICTED BY IDOCK:   -4.07 KCAL/MOL
REMARK 922        TOTAL FREE ENERGY PREDICTED BY IDOCK:   -5.40 KCAL/MOL
REMARK 923 INTER-LIGAND FREE ENERGY PREDICTED BY IDOCK:   -5.64 KCAL/MOL
REMARK 924 INTRA-LIGAND FREE ENERGY PREDICTED BY IDOCK:    0.24 KCAL/MOL
REMARK 927      BINDING AFFINITY PREDICTED BY RF-SCORE:    0.00 PKD
ROOT
HETATM    1  C   UNL     1     -10.415  17.423  68.181  1.00  0.00    -0.389 C  
HETATM    2  C   UNL     1     -10.051  16.847  66.812  1.00  0.00    -0.294 C  
HETATM    3  O   UNL     1     -10.992  15.808  66.449  1.00  0.00    -0.273 OA 
HETATM    4  C   UNL     1     -10.297  17.965  65.772  1.00  0.00    -0.180 C  
HETATM    5  C   UNL     1      -8.569  16.473  66.684  1.00  0.00    -0.289 C  
HETATM    6  O   UNL     1     -11.144  17.600  64.775  1.00  0.00    -0.915 OA 
HETATM    7  O   UNL     1      -9.779  19.073  65.803  1.00  0.00    -0.428 OA 
ENDROOT
BRANCH   3   8
HETATM    8  C   UNL     1     -10.756  14.492  66.708  1.00  0.00    -0.291 A  
HETATM    9  C   UNL     1     -11.235  13.412  65.974  1.00  0.00    -0.310 A  
HETATM   10  C   UNL     1     -10.967  12.105  66.396  1.00  0.00    -0.327 A  
HETATM   11  C   UNL     1     -10.198  11.876  67.542  1.00  0.00    -0.212 A  
HETATM   12  C   UNL     1      -9.913  14.260  67.799  1.00  0.00    -0.227 A  
HETATM   13  C   UNL     1      -9.625  12.958  68.214  1.00  0.00    -0.212 A  
BRANCH  11  14
HETATM   14  C   UNL     1     -10.004  10.478  67.999  1.00  0.00    -0.155 C  
HETATM   15  O   UNL     1     -10.413  10.160  69.114  1.00  0.00    -0.195 OA 
BRANCH  14  16
HETATM   16  C   UNL     1      -9.291   9.468  67.167  1.00  0.00    -0.174 A  
HETATM   17  C   UNL     1      -8.385   9.925  66.199  1.00  0.00    -0.123 A  
HETATM   18  C   UNL     1      -7.728   9.019  65.366  1.00  0.00    -0.095 A  
HETATM   19  C   UNL     1      -7.977   7.653  65.490  1.00  0.00    -0.120 A  
HETATM   20  C   UNL     1      -8.878   7.187  66.445  1.00  0.00    -0.161 A  
HETATM   21 CL   UNL     1      -7.187   6.537  64.447  1.00  0.00    -0.064 Cl 
HETATM   22  C   UNL     1      -9.545   8.093  67.276  1.00  0.00    -0.211 A  
ENDBRANCH  14  16
ENDBRANCH  11  14
ENDBRANCH   3   8
TORSDOF 3
ENDMDL
MODEL      124
REMARK 921   NORMALIZED FREE ENERGY PREDICTED BY IDOCK:   -4.02 KCAL/MOL
REMARK 922        TOTAL FREE ENERGY PREDICTED BY IDOCK:   -5.34 KCAL/MOL
REMARK 923 INTER-LIGAND FREE ENERGY PREDICTED BY IDOCK:   -4.88 KCAL/MOL
REMARK 924 INTRA-LIGAND FREE ENERGY PREDICTED BY IDOCK:   -0.46 KCAL/MOL
REMARK 927      BINDING AFFINITY PREDICTED BY RF-SCORE:    0.00 PKD
ROOT
HETATM    1  C   UNL     1      -9.556  15.052  69.438  1.00  0.00    -0.145 C  
HETATM    2  C   UNL     1     -10.916  14.402  69.184  1.00  0.00    -0.265 C  
HETATM    3  O   UNL     1     -10.862  12.995  69.521  1.00  0.00    -0.004 OA 
HETATM    4  C   UNL     1     -11.904  15.002  70.212  1.00  0.00    -0.309 C  
HETATM    5  C   UNL     1     -11.499  14.730  67.802  1.00  0.00    -0.363 C  
HETATM    6  O   UNL     1     -12.530  14.067  70.971  1.00  0.00    -0.330 OA 
HETATM    7  O   UNL     1     -12.136  16.197  70.340  1.00  0.00    -0.247 OA 
ENDROOT
BRANCH   3   8
HETATM    8  C   UNL     1     -10.589  12.037  68.593  1.00  0.00    -0.229 A  
HETATM    9  C   UNL     1     -11.522  11.237  67.939  1.00  0.00    -0.360 A  
HETATM   10  C   UNL     1     -11.093  10.242  67.054  1.00  0.00    -0.104 A  
HETATM   11  C   UNL     1      -9.729  10.060  66.802  1.00  0.00    -0.239 A  
HETATM   12  C   UNL     1      -9.234  11.912  68.270  1.00  0.00    -0.187 A  
HETATM   13  C   UNL     1      -8.802  10.934  67.372  1.00  0.00    -0.133 A  
BRANCH  11  14
HETATM   14  C   UNL     1      -9.314   8.943  65.919  1.00  0.00    -0.236 C  
HETATM   15  O   UNL     1      -8.938   9.200  64.778  1.00  0.00    -0.194 OA 
BRANCH  14  16
HETATM   16  C   UNL     1      -9.382   7.521  66.361  1.00  0.00    -0.211 A  
HETATM   17  C   UNL     1      -8.311   6.674  66.042  1.00  0.00    -0.134 A  
HETATM   18  C   UNL     1      -8.351   5.324  66.395  1.00  0.00    -0.109 A  
HETATM   19  C   UNL     1      -9.463   4.813  67.064  1.00  0.00    -0.152 A  
HETATM   20  C   UNL     1     -10.534   5.644  67.384  1.00  0.00    -0.306 A  
HETATM   21 CL   UNL     1      -9.524   3.145  67.479  1.00  0.00    -0.237 Cl 
HETATM   22  C   UNL     1     -10.501   6.995  67.022  1.00  0.00    -0.386 A  
ENDBRANCH  14  16
ENDBRANCH  11  14
ENDBRANCH   3   8
TORSDOF 3
ENDMDL
MODEL      125
REMARK 921   NORMALIZED FREE ENERGY PREDICTED BY IDOCK:   -4.01 KCAL/MOL
REMARK 922        TOTAL FREE ENERGY PREDICTED BY IDOCK:   -5.33 KCAL/MOL
REMARK 923 INTER-LIGAND FREE ENERGY PREDICTED BY IDOCK:   -4.58 KCAL/MOL
REMARK 924 INTRA-LIGAND FREE ENERGY PREDICTED BY IDOCK:   -0.75 KCAL/MOL
REMARK 927      BINDING AFFINITY PREDICTED BY RF-SCORE:    0.00 PKD
ROOT
HETATM    1  C   UNL     1      -9.691  11.700  69.436  1.00  0.00     0.522 C  
HETATM    2  C   UNL     1     -10.699  12.584  68.702  1.00  0.00    -0.234 C  
HETATM    3  O   UNL     1     -10.081  13.170  67.531  1.00  0.00    -0.218 OA 
HETATM    4  C   UNL     1     -11.789  11.648  68.130  1.00  0.00    -0.244 C  
HETATM    5  C   UNL     1     -11.433  13.567  69.624  1.00  0.00    -0.283 C  
HETATM    6  O   UNL     1     -11.960  11.772  66.788  1.00  0.00    -0.584 OA 
HETATM    7  O   UNL     1     -12.463  10.873  68.796  1.00  0.00    -0.431 OA 
ENDROOT
BRANCH   3   8
HETATM    8  C   UNL     1      -9.503  14.402  67.555  1.00  0.00    -0.207 A  
HETATM    9  C   UNL     1      -8.222  14.700  68.009  1.00  0.00    -0.145 A  
HETATM   10  C   UNL     1      -7.780  16.027  68.038  1.00  0.00    -0.140 A  
HETATM   11  C   UNL     1      -8.612  17.059  67.590  1.00  0.00    -0.213 A  
HETATM   12  C   UNL     1     -10.297  15.424  67.025  1.00  0.00    -0.280 A  
HETATM   13  C   UNL     1      -9.854  16.748  67.033  1.00  0.00    -0.262 A  
BRANCH  11  14
HETATM   14  C   UNL     1      -8.136  18.459  67.712  1.00  0.00    -0.254 C  
HETATM   15  O   UNL     1      -8.436  19.099  68.717  1.00  0.00    -0.362 OA 
BRANCH  14  16
HETATM   16  C   UNL     1      -7.347  19.119  66.634  1.00  0.00    -0.234 A  
HETATM   17  C   UNL     1      -7.709  20.418  66.247  1.00  0.00    -0.173 A  
HETATM   18  C   UNL     1      -7.029  21.060  65.211  1.00  0.00     0.188 A  
HETATM   19  C   UNL     1      -5.987  20.406  64.553  1.00  0.00    -0.269 A  
HETATM   20  C   UNL     1      -5.621  19.114  64.926  1.00  0.00    -0.257 A  
HETATM   21 CL   UNL     1      -5.164  21.185  63.260  1.00  0.00    -0.239 Cl 
HETATM   22  C   UNL     1      -6.307  18.465  65.957  1.00  0.00    -0.263 A  
ENDBRANCH  14  16
ENDBRANCH  11  14
ENDBRANCH   3   8
TORSDOF 3
ENDMDL
MODEL      126
REMARK 921   NORMALIZED FREE ENERGY PREDICTED BY IDOCK:   -3.97 KCAL/MOL
REMARK 922        TOTAL FREE ENERGY PREDICTED BY IDOCK:   -5.29 KCAL/MOL
REMARK 923 INTER-LIGAND FREE ENERGY PREDICTED BY IDOCK:   -4.74 KCAL/MOL
REMARK 924 INTRA-LIGAND FREE ENERGY PREDICTED BY IDOCK:   -0.55 KCAL/MOL
REMARK 927      BINDING AFFINITY PREDICTED BY RF-SCORE:    0.00 PKD
ROOT
HETATM    1  C   UNL     1     -11.610   6.829  70.683  1.00  0.00    -0.422 C  
HETATM    2  C   UNL     1     -10.607   6.746  69.531  1.00  0.00    -0.232 C  
HETATM    3  O   UNL     1      -9.663   7.838  69.620  1.00  0.00    -0.170 OA 
HETATM    4  C   UNL     1      -9.750   5.480  69.770  1.00  0.00    -0.176 C  
HETATM    5  C   UNL     1     -11.269   6.551  68.161  1.00  0.00    -0.250 C  
HETATM    6  O   UNL     1      -8.416   5.731  69.814  1.00  0.00    -0.119 OA 
HETATM    7  O   UNL     1     -10.197   4.348  69.892  1.00  0.00    -0.163 OA 
ENDROOT
BRANCH   3   8
HETATM    8  C   UNL     1      -9.845   9.011  68.951  1.00  0.00    -0.175 A  
HETATM    9  C   UNL     1      -9.351   9.321  67.687  1.00  0.00    -0.146 A  
HETATM   10  C   UNL     1      -9.561  10.595  67.148  1.00  0.00    -0.189 A  
HETATM   11  C   UNL     1     -10.286  11.555  67.861  1.00  0.00    -0.200 A  
HETATM   12  C   UNL     1     -10.644   9.941  69.622  1.00  0.00    -0.273 A  
HETATM   13  C   UNL     1     -10.874  11.207  69.079  1.00  0.00    -0.276 A  
BRANCH  11  14
HETATM   14  C   UNL     1     -10.416  12.917  67.288  1.00  0.00    -0.234 C  
HETATM   15  O   UNL     1     -11.503  13.263  66.831  1.00  0.00    -0.308 OA 
BRANCH  14  16
HETATM   16  C   UNL     1      -9.260  13.853  67.211  1.00  0.00    -0.235 A  
HETATM   17  C   UNL     1      -9.440  15.078  66.550  1.00  0.00    -0.306 A  
HETATM   18  C   UNL     1      -8.373  15.968  66.413  1.00  0.00    -0.344 A  
HETATM   19  C   UNL     1      -7.121  15.636  66.929  1.00  0.00     0.038 A  
HETATM   20  C   UNL     1      -6.929  14.422  67.584  1.00  0.00    -0.203 A  
HETATM   21 CL   UNL     1      -5.799  16.721  66.739  1.00  0.00    -0.186 Cl 
HETATM   22  C   UNL     1      -7.993  13.524  67.715  1.00  0.00    -0.168 A  
ENDBRANCH  14  16
ENDBRANCH  11  14
ENDBRANCH   3   8
TORSDOF 3
ENDMDL
MODEL      127
REMARK 921   NORMALIZED FREE ENERGY PREDICTED BY IDOCK:   -3.88 KCAL/MOL
REMARK 922        TOTAL FREE ENERGY PREDICTED BY IDOCK:   -5.19 KCAL/MOL
REMARK 923 INTER-LIGAND FREE ENERGY PREDICTED BY IDOCK:   -4.48 KCAL/MOL
REMARK 924 INTRA-LIGAND FREE ENERGY PREDICTED BY IDOCK:   -0.71 KCAL/MOL
REMARK 927      BINDING AFFINITY PREDICTED BY RF-SCORE:    0.00 PKD
ROOT
HETATM    1  C   UNL     1     -13.476   7.790  71.354  1.00  0.00    -0.317 C  
HETATM    2  C   UNL     1     -12.161   8.570  71.330  1.00  0.00    -0.303 C  
HETATM    3  O   UNL     1     -11.527   8.430  70.037  1.00  0.00    -0.090 OA 
HETATM    4  C   UNL     1     -12.524  10.071  71.416  1.00  0.00    -0.411 C  
HETATM    5  C   UNL     1     -11.263   8.286  72.542  1.00  0.00    -0.446 C  
HETATM    6  O   UNL     1     -12.017  10.810  70.396  1.00  0.00    -0.295 OA 
HETATM    7  O   UNL     1     -13.185  10.579  72.313  1.00  0.00    -0.402 OA 
ENDROOT
BRANCH   3   8
HETATM    8  C   UNL     1     -10.591   7.472  69.787  1.00  0.00    -0.241 A  
HETATM    9  C   UNL     1      -9.211   7.648  69.804  1.00  0.00    -0.147 A  
HETATM   10  C   UNL     1      -8.366   6.586  69.461  1.00  0.00    -0.130 A  
HETATM   11  C   UNL     1      -8.900   5.338  69.123  1.00  0.00    -0.113 A  
HETATM   12  C   UNL     1     -11.117   6.201  69.538  1.00  0.00    -0.490 A  
HETATM   13  C   UNL     1     -10.278   5.132  69.215  1.00  0.00    -0.276 A  
BRANCH  11  14
HETATM   14  C   UNL     1      -7.974   4.264  68.689  1.00  0.00    -0.073 C  
HETATM   15  O   UNL     1      -7.040   3.956  69.426  1.00  0.00    -0.045 OA 
BRANCH  14  16
HETATM   16  C   UNL     1      -8.119   3.583  67.372  1.00  0.00    -0.082 A  
HETATM   17  C   UNL     1      -7.757   4.290  66.216  1.00  0.00    -0.094 A  
HETATM   18  C   UNL     1      -7.917   3.711  64.956  1.00  0.00    -0.090 A  
HETATM   19  C   UNL     1      -8.446   2.426  64.844  1.00  0.00    -0.092 A  
HETATM   20  C   UNL     1      -8.813   1.715  65.985  1.00  0.00    -0.118 A  
HETATM   21 CL   UNL     1      -8.668   1.720  63.292  1.00  0.00    -0.082 Cl 
HETATM   22  C   UNL     1      -8.662   2.296  67.248  1.00  0.00    -0.141 A  
ENDBRANCH  14  16
ENDBRANCH  11  14
ENDBRANCH   3   8
TORSDOF 3
ENDMDL
MODEL      128
REMARK 921   NORMALIZED FREE ENERGY PREDICTED BY IDOCK:   -3.87 KCAL/MOL
REMARK 922        TOTAL FREE ENERGY PREDICTED BY IDOCK:   -5.18 KCAL/MOL
REMARK 923 INTER-LIGAND FREE ENERGY PREDICTED BY IDOCK:   -4.58 KCAL/MOL
REMARK 924 INTRA-LIGAND FREE ENERGY PREDICTED BY IDOCK:   -0.59 KCAL/MOL
REMARK 927      BINDING AFFINITY PREDICTED BY RF-SCORE:    0.00 PKD
ROOT
HETATM    1  C   UNL     1      -8.808   6.016  71.819  1.00  0.00    -0.138 C  
HETATM    2  C   UNL     1      -7.706   7.037  71.535  1.00  0.00    -0.090 C  
HETATM    3  O   UNL     1      -8.207   8.377  71.751  1.00  0.00    -0.128 OA 
HETATM    4  C   UNL     1      -6.627   6.852  72.628  1.00  0.00    -0.061 C  
HETATM    5  C   UNL     1      -6.991   6.805  70.198  1.00  0.00    -0.066 C  
HETATM    6  O   UNL     1      -6.354   7.990  73.317  1.00  0.00    -0.067 OA 
HETATM    7  O   UNL     1      -6.043   5.803  72.862  1.00  0.00    -0.041 OA 
ENDROOT
BRANCH   3   8
HETATM    8  C   UNL     1      -8.721   9.131  70.741  1.00  0.00    -0.236 A  
HETATM    9  C   UNL     1      -7.996   9.917  69.851  1.00  0.00    -0.193 A  
HETATM   10  C   UNL     1      -8.664  10.695  68.899  1.00  0.00    -0.163 A  
HETATM   11  C   UNL     1     -10.060  10.671  68.820  1.00  0.00    -0.203 A  
HETATM   12  C   UNL     1     -10.109   9.041  70.600  1.00  0.00    -0.284 A  
HETATM   13  C   UNL     1     -10.780   9.799  69.639  1.00  0.00    -0.264 A  
BRANCH  11  14
HETATM   14  C   UNL     1     -10.732  11.571  67.850  1.00  0.00    -0.200 C  
HETATM   15  O   UNL     1     -11.322  11.074  66.894  1.00  0.00    -0.357 OA 
BRANCH  14  16
HETATM   16  C   UNL     1     -10.672  13.054  67.980  1.00  0.00    -0.248 A  
HETATM   17  C   UNL     1     -11.714  13.704  68.658  1.00  0.00    -0.389 A  
HETATM   18  C   UNL     1     -11.725  15.096  68.765  1.00  0.00    -0.366 A  
HETATM   19  C   UNL     1     -10.698  15.845  68.191  1.00  0.00    -0.302 A  
HETATM   20  C   UNL     1      -9.660  15.211  67.512  1.00  0.00    -0.207 A  
HETATM   21 CL   UNL     1     -10.722  17.561  68.301  1.00  0.00    -0.351 Cl 
HETATM   22  C   UNL     1      -9.651  13.817  67.395  1.00  0.00    -0.229 A  
ENDBRANCH  14  16
ENDBRANCH  11  14
ENDBRANCH   3   8
TORSDOF 3
ENDMDL
MODEL      129
REMARK 921   NORMALIZED FREE ENERGY PREDICTED BY IDOCK:   -3.86 KCAL/MOL
REMARK 922        TOTAL FREE ENERGY PREDICTED BY IDOCK:   -5.15 KCAL/MOL
REMARK 923 INTER-LIGAND FREE ENERGY PREDICTED BY IDOCK:   -4.27 KCAL/MOL
REMARK 924 INTRA-LIGAND FREE ENERGY PREDICTED BY IDOCK:   -0.89 KCAL/MOL
REMARK 927      BINDING AFFINITY PREDICTED BY RF-SCORE:    0.00 PKD
ROOT
HETATM    1  C   UNL     1      -7.289   7.735  63.968  1.00  0.00    -0.098 C  
HETATM    2  C   UNL     1      -7.742   7.636  65.425  1.00  0.00    -0.104 C  
HETATM    3  O   UNL     1      -9.104   8.110  65.551  1.00  0.00    -0.098 OA 
HETATM    4  C   UNL     1      -7.828   6.131  65.770  1.00  0.00    -0.105 C  
HETATM    5  C   UNL     1      -6.737   8.237  66.417  1.00  0.00    -0.062 C  
HETATM    6  O   UNL     1      -9.046   5.751  66.235  1.00  0.00    -0.140 OA 
HETATM    7  O   UNL     1      -6.903   5.337  65.665  1.00  0.00    -0.058 OA 
ENDROOT
BRANCH   3   8
HETATM    8  C   UNL     1      -9.397   9.397  65.884  1.00  0.00    -0.230 A  
HETATM    9  C   UNL     1      -9.323  10.501  65.039  1.00  0.00    -0.268 A  
HETATM   10  C   UNL     1      -9.591  11.781  65.536  1.00  0.00    -0.222 A  
HETATM   11  C   UNL     1      -9.956  11.959  66.874  1.00  0.00    -0.219 A  
HETATM   12  C   UNL     1      -9.849   9.568  67.196  1.00  0.00    -0.239 A  
HETATM   13  C   UNL     1     -10.137  10.841  67.692  1.00  0.00    -0.205 A  
BRANCH  11  14
HETATM   14  C   UNL     1     -10.153  13.339  67.380  1.00  0.00    -0.233 C  
HETATM   15  O   UNL     1     -11.184  13.601  67.995  1.00  0.00    -0.247 OA 
BRANCH  14  16
HETATM   16  C   UNL     1      -9.161  14.421  67.123  1.00  0.00    -0.230 A  
HETATM   17  C   UNL     1      -7.879  14.292  67.678  1.00  0.00    -0.191 A  
HETATM   18  C   UNL     1      -6.931  15.301  67.503  1.00  0.00    -0.225 A  
HETATM   19  C   UNL     1      -7.260  16.447  66.778  1.00  0.00    -0.210 A  
HETATM   20  C   UNL     1      -8.531  16.588  66.226  1.00  0.00    -0.363 A  
HETATM   21 CL   UNL     1      -6.101  17.702  66.583  1.00  0.00    -0.202 Cl 
HETATM   22  C   UNL     1      -9.487  15.583  66.408  1.00  0.00    -0.320 A  
ENDBRANCH  14  16
ENDBRANCH  11  14
ENDBRANCH   3   8
TORSDOF 3
ENDMDL
MODEL      130
REMARK 921   NORMALIZED FREE ENERGY PREDICTED BY IDOCK:   -3.79 KCAL/MOL
REMARK 922        TOTAL FREE ENERGY PREDICTED BY IDOCK:   -5.07 KCAL/MOL
REMARK 923 INTER-LIGAND FREE ENERGY PREDICTED BY IDOCK:   -4.70 KCAL/MOL
REMARK 924 INTRA-LIGAND FREE ENERGY PREDICTED BY IDOCK:   -0.37 KCAL/MOL
REMARK 927      BINDING AFFINITY PREDICTED BY RF-SCORE:    0.00 PKD
ROOT
HETATM    1  C   UNL     1      -8.641   4.416  67.973  1.00  0.00    -0.111 C  
HETATM    2  C   UNL     1      -8.847   4.279  66.465  1.00  0.00    -0.116 C  
HETATM    3  O   UNL     1      -7.782   4.958  65.758  1.00  0.00    -0.089 OA 
HETATM    4  C   UNL     1      -8.645   2.786  66.115  1.00  0.00    -0.117 C  
HETATM    5  C   UNL     1     -10.270   4.627  66.010  1.00  0.00    -0.306 C  
HETATM    6  O   UNL     1      -7.697   2.575  65.165  1.00  0.00    -0.075 OA 
HETATM    7  O   UNL     1      -9.275   1.862  66.612  1.00  0.00    -0.083 OA 
ENDROOT
BRANCH   3   8
HETATM    8  C   UNL     1      -7.899   6.246  65.332  1.00  0.00    -0.104 A  
HETATM    9  C   UNL     1      -7.942   7.378  66.140  1.00  0.00    -0.112 A  
HETATM   10  C   UNL     1      -8.134   8.640  65.568  1.00  0.00    -0.114 A  
HETATM   11  C   UNL     1      -8.258   8.776  64.181  1.00  0.00    -0.163 A  
HETATM   12  C   UNL     1      -7.934   6.396  63.942  1.00  0.00    -0.085 A  
HETATM   13  C   UNL     1      -8.104   7.655  63.364  1.00  0.00    -0.044 A  
BRANCH  11  14
HETATM   14  C   UNL     1      -8.539  10.121  63.622  1.00  0.00    -0.197 C  
HETATM   15  O   UNL     1      -7.812  10.554  62.732  1.00  0.00    -0.153 OA 
BRANCH  14  16
HETATM   16  C   UNL     1      -9.645  10.975  64.141  1.00  0.00    -0.306 A  
HETATM   17  C   UNL     1     -10.375  11.746  63.225  1.00  0.00    -0.446 A  
HETATM   18  C   UNL     1     -11.390  12.595  63.668  1.00  0.00    -0.544 A  
HETATM   19  C   UNL     1     -11.677  12.682  65.030  1.00  0.00    -0.359 A  
HETATM   20  C   UNL     1     -10.956  11.924  65.951  1.00  0.00    -0.354 A  
HETATM   21 CL   UNL     1     -12.910  13.746  65.582  1.00  0.00    -0.519 Cl 
HETATM   22  C   UNL     1      -9.933  11.079  65.510  1.00  0.00    -0.308 A  
ENDBRANCH  14  16
ENDBRANCH  11  14
ENDBRANCH   3   8
TORSDOF 3
ENDMDL
MODEL      131
REMARK 921   NORMALIZED FREE ENERGY PREDICTED BY IDOCK:   -3.77 KCAL/MOL
REMARK 922        TOTAL FREE ENERGY PREDICTED BY IDOCK:   -5.05 KCAL/MOL
REMARK 923 INTER-LIGAND FREE ENERGY PREDICTED BY IDOCK:   -4.37 KCAL/MOL
REMARK 924 INTRA-LIGAND FREE ENERGY PREDICTED BY IDOCK:   -0.67 KCAL/MOL
REMARK 927      BINDING AFFINITY PREDICTED BY RF-SCORE:    0.00 PKD
ROOT
HETATM    1  C   UNL     1      -9.677   4.597  65.576  1.00  0.00    -0.192 C  
HETATM    2  C   UNL     1      -8.384   5.383  65.791  1.00  0.00    -0.126 C  
HETATM    3  O   UNL     1      -8.352   5.922  67.134  1.00  0.00    -0.106 OA 
HETATM    4  C   UNL     1      -7.224   4.361  65.763  1.00  0.00    -0.072 C  
HETATM    5  C   UNL     1      -8.086   6.386  64.668  1.00  0.00    -0.100 C  
HETATM    6  O   UNL     1      -6.448   4.391  66.877  1.00  0.00    -0.039 OA 
HETATM    7  O   UNL     1      -6.988   3.599  64.834  1.00  0.00    -0.054 OA 
ENDROOT
BRANCH   3   8
HETATM    8  C   UNL     1      -8.786   7.180  67.422  1.00  0.00    -0.120 A  
HETATM    9  C   UNL     1      -7.983   8.288  67.677  1.00  0.00    -0.118 A  
HETATM   10  C   UNL     1      -8.568   9.510  68.026  1.00  0.00    -0.120 A  
HETATM   11  C   UNL     1      -9.960   9.633  68.098  1.00  0.00    -0.185 A  
HETATM   12  C   UNL     1     -10.176   7.330  67.408  1.00  0.00    -0.304 A  
HETATM   13  C   UNL     1     -10.765   8.552  67.735  1.00  0.00    -0.170 A  
BRANCH  11  14
HETATM   14  C   UNL     1     -10.536  10.924  68.549  1.00  0.00    -0.188 C  
HETATM   15  O   UNL     1     -10.944  11.016  69.705  1.00  0.00    -0.251 OA 
BRANCH  14  16
HETATM   16  C   UNL     1     -10.674  12.089  67.631  1.00  0.00    -0.252 A  
HETATM   17  C   UNL     1     -11.832  12.182  66.846  1.00  0.00    -0.295 A  
HETATM   18  C   UNL     1     -11.986  13.231  65.938  1.00  0.00    -0.466 A  
HETATM   19  C   UNL     1     -10.980  14.189  65.805  1.00  0.00    -0.301 A  
HETATM   20  C   UNL     1      -9.824  14.105  66.577  1.00  0.00    -0.298 A  
HETATM   21 CL   UNL     1     -11.157  15.468  64.670  1.00  0.00    -0.409 Cl 
HETATM   22  C   UNL     1      -9.663  13.050  67.481  1.00  0.00    -0.206 A  
ENDBRANCH  14  16
ENDBRANCH  11  14
ENDBRANCH   3   8
TORSDOF 3
ENDMDL
MODEL      132
REMARK 921   NORMALIZED FREE ENERGY PREDICTED BY IDOCK:   -3.75 KCAL/MOL
REMARK 922        TOTAL FREE ENERGY PREDICTED BY IDOCK:   -5.03 KCAL/MOL
REMARK 923 INTER-LIGAND FREE ENERGY PREDICTED BY IDOCK:   -4.56 KCAL/MOL
REMARK 924 INTRA-LIGAND FREE ENERGY PREDICTED BY IDOCK:   -0.48 KCAL/MOL
REMARK 927      BINDING AFFINITY PREDICTED BY RF-SCORE:    0.00 PKD
ROOT
HETATM    1  C   UNL     1     -12.109  14.540  66.543  1.00  0.00    -0.330 C  
HETATM    2  C   UNL     1     -10.780  14.546  67.299  1.00  0.00    -0.287 C  
HETATM    3  O   UNL     1     -10.081  13.298  67.080  1.00  0.00    -0.237 OA 
HETATM    4  C   UNL     1      -9.882  15.610  66.624  1.00  0.00    -0.244 C  
HETATM    5  C   UNL     1     -10.915  14.981  68.765  1.00  0.00    -0.259 C  
HETATM    6  O   UNL     1      -8.686  15.121  66.204  1.00  0.00    -0.198 OA 
HETATM    7  O   UNL     1     -10.180  16.788  66.485  1.00  0.00    -0.296 OA 
ENDROOT
BRANCH   3   8
HETATM    8  C   UNL     1     -10.193  12.244  67.934  1.00  0.00    -0.200 A  
HETATM    9  C   UNL     1     -11.379  11.654  68.359  1.00  0.00    -0.339 A  
HETATM   10  C   UNL     1     -11.347  10.614  69.296  1.00  0.00    -0.346 A  
HETATM   11  C   UNL     1     -10.126  10.146  69.792  1.00  0.00    -0.269 A  
HETATM   12  C   UNL     1      -8.972  11.714  68.363  1.00  0.00    -0.176 A  
HETATM   13  C   UNL     1      -8.933  10.664  69.282  1.00  0.00    -0.098 A  
BRANCH  11  14
HETATM   14  C   UNL     1     -10.141   9.098  70.842  1.00  0.00    -0.287 C  
HETATM   15  O   UNL     1     -11.158   8.951  71.514  1.00  0.00    -0.274 OA 
BRANCH  14  16
HETATM   16  C   UNL     1      -8.946   8.256  71.131  1.00  0.00    -0.192 A  
HETATM   17  C   UNL     1      -9.032   6.877  70.891  1.00  0.00    -0.149 A  
HETATM   18  C   UNL     1      -7.954   6.041  71.189  1.00  0.00    -0.116 A  
HETATM   19  C   UNL     1      -6.788   6.578  71.735  1.00  0.00    -0.064 A  
HETATM   20  C   UNL     1      -6.693   7.946  71.982  1.00  0.00    -0.061 A  
HETATM   21 CL   UNL     1      -5.469   5.547  72.126  1.00  0.00    -0.017 Cl 
HETATM   22  C   UNL     1      -7.774   8.784  71.692  1.00  0.00    -0.117 A  
ENDBRANCH  14  16
ENDBRANCH  11  14
ENDBRANCH   3   8
TORSDOF 3
ENDMDL
MODEL      133
REMARK 921   NORMALIZED FREE ENERGY PREDICTED BY IDOCK:   -3.75 KCAL/MOL
REMARK 922        TOTAL FREE ENERGY PREDICTED BY IDOCK:   -5.02 KCAL/MOL
REMARK 923 INTER-LIGAND FREE ENERGY PREDICTED BY IDOCK:   -4.55 KCAL/MOL
REMARK 924 INTRA-LIGAND FREE ENERGY PREDICTED BY IDOCK:   -0.48 KCAL/MOL
REMARK 927      BINDING AFFINITY PREDICTED BY RF-SCORE:    0.00 PKD
ROOT
HETATM    1  C   UNL     1     -10.294   9.040  67.090  1.00  0.00    -0.342 C  
HETATM    2  C   UNL     1      -8.970   9.417  66.425  1.00  0.00    -0.152 C  
HETATM    3  O   UNL     1      -8.072   9.994  67.403  1.00  0.00    -0.113 OA 
HETATM    4  C   UNL     1      -8.281   8.096  66.008  1.00  0.00    -0.121 C  
HETATM    5  C   UNL     1      -9.146  10.223  65.131  1.00  0.00    -0.234 C  
HETATM    6  O   UNL     1      -7.029   7.954  66.515  1.00  0.00    -0.068 OA 
HETATM    7  O   UNL     1      -8.780   7.249  65.278  1.00  0.00    -0.049 OA 
ENDROOT
BRANCH   3   8
HETATM    8  C   UNL     1      -7.985  11.338  67.604  1.00  0.00    -0.118 A  
HETATM    9  C   UNL     1      -6.887  12.142  67.312  1.00  0.00    -0.149 A  
HETATM   10  C   UNL     1      -6.912  13.503  67.634  1.00  0.00    -0.176 A  
HETATM   11  C   UNL     1      -8.046  14.069  68.227  1.00  0.00    -0.148 A  
HETATM   12  C   UNL     1      -9.148  11.924  68.113  1.00  0.00    -0.190 A  
HETATM   13  C   UNL     1      -9.186  13.286  68.417  1.00  0.00    -0.145 A  
BRANCH  11  14
HETATM   14  C   UNL     1      -8.001  15.498  68.625  1.00  0.00    -0.146 C  
HETATM   15  O   UNL     1      -7.418  15.803  69.662  1.00  0.00    -0.199 OA 
BRANCH  14  16
HETATM   16  C   UNL     1      -8.679  16.559  67.828  1.00  0.00    -0.197 A  
HETATM   17  C   UNL     1      -8.472  17.897  68.194  1.00  0.00    -0.268 A  
HETATM   18  C   UNL     1      -9.122  18.924  67.506  1.00  0.00    -0.307 A  
HETATM   19  C   UNL     1      -9.985  18.618  66.454  1.00  0.00    -0.388 A  
HETATM   20  C   UNL     1     -10.202  17.292  66.085  1.00  0.00    -0.338 A  
HETATM   21 CL   UNL     1     -10.806  19.879  65.622  1.00  0.00    -0.448 Cl 
HETATM   22  C   UNL     1      -9.559  16.261  66.778  1.00  0.00    -0.254 A  
ENDBRANCH  14  16
ENDBRANCH  11  14
ENDBRANCH   3   8
TORSDOF 3
ENDMDL
MODEL      134
REMARK 921   NORMALIZED FREE ENERGY PREDICTED BY IDOCK:   -3.70 KCAL/MOL
REMARK 922        TOTAL FREE ENERGY PREDICTED BY IDOCK:   -4.97 KCAL/MOL
REMARK 923 INTER-LIGAND FREE ENERGY PREDICTED BY IDOCK:   -4.30 KCAL/MOL
REMARK 924 INTRA-LIGAND FREE ENERGY PREDICTED BY IDOCK:   -0.66 KCAL/MOL
REMARK 927      BINDING AFFINITY PREDICTED BY RF-SCORE:    0.00 PKD
ROOT
HETATM    1  C   UNL     1     -13.080   7.048  71.165  1.00  0.00    -0.260 C  
HETATM    2  C   UNL     1     -12.285   8.270  71.625  1.00  0.00    -0.313 C  
HETATM    3  O   UNL     1     -11.771   8.986  70.477  1.00  0.00    -0.234 OA 
HETATM    4  C   UNL     1     -13.295   9.251  72.266  1.00  0.00    -0.477 C  
HETATM    5  C   UNL     1     -11.259   7.951  72.721  1.00  0.00    -0.466 C  
HETATM    6  O   UNL     1     -13.278  10.488  71.706  1.00  0.00    -0.425 OA 
HETATM    7  O   UNL     1     -14.037   8.977  73.200  1.00  0.00    -0.313 OA 
ENDROOT
BRANCH   3   8
HETATM    8  C   UNL     1     -10.523   8.762  69.981  1.00  0.00    -0.212 A  
HETATM    9  C   UNL     1      -9.363   9.441  70.338  1.00  0.00    -0.317 A  
HETATM   10  C   UNL     1      -8.155   9.149  69.696  1.00  0.00    -0.106 A  
HETATM   11  C   UNL     1      -8.100   8.158  68.709  1.00  0.00    -0.120 A  
HETATM   12  C   UNL     1     -10.447   7.712  69.060  1.00  0.00    -0.214 A  
HETATM   13  C   UNL     1      -9.240   7.402  68.430  1.00  0.00    -0.138 A  
BRANCH  11  14
HETATM   14  C   UNL     1      -6.818   7.936  67.997  1.00  0.00    -0.072 C  
HETATM   15  O   UNL     1      -5.971   7.214  68.518  1.00  0.00    -0.024 OA 
BRANCH  14  16
HETATM   16  C   UNL     1      -6.514   8.596  66.696  1.00  0.00    -0.060 A  
HETATM   17  C   UNL     1      -5.559   9.624  66.680  1.00  0.00    -0.046 A  
HETATM   18  C   UNL     1      -5.274  10.302  65.494  1.00  0.00    -0.072 A  
HETATM   19  C   UNL     1      -5.946   9.962  64.320  1.00  0.00    -0.119 A  
HETATM   20  C   UNL     1      -6.899   8.946  64.324  1.00  0.00    -0.082 A  
HETATM   21 CL   UNL     1      -5.614  10.814  62.863  1.00  0.00    -0.161 Cl 
HETATM   22  C   UNL     1      -7.193   8.270  65.513  1.00  0.00    -0.071 A  
ENDBRANCH  14  16
ENDBRANCH  11  14
ENDBRANCH   3   8
TORSDOF 3
ENDMDL
MODEL      135
REMARK 921   NORMALIZED FREE ENERGY PREDICTED BY IDOCK:   -3.68 KCAL/MOL
REMARK 922        TOTAL FREE ENERGY PREDICTED BY IDOCK:   -4.94 KCAL/MOL
REMARK 923 INTER-LIGAND FREE ENERGY PREDICTED BY IDOCK:   -4.07 KCAL/MOL
REMARK 924 INTRA-LIGAND FREE ENERGY PREDICTED BY IDOCK:   -0.88 KCAL/MOL
REMARK 927      BINDING AFFINITY PREDICTED BY RF-SCORE:    0.00 PKD
ROOT
HETATM    1  C   UNL     1     -10.380   4.969  69.807  1.00  0.00    -0.286 C  
HETATM    2  C   UNL     1      -9.167   5.263  68.924  1.00  0.00    -0.118 C  
HETATM    3  O   UNL     1      -8.266   6.165  69.609  1.00  0.00    -0.113 OA 
HETATM    4  C   UNL     1      -8.368   3.945  68.800  1.00  0.00    -0.074 C  
HETATM    5  C   UNL     1      -9.541   5.663  67.490  1.00  0.00    -0.124 C  
HETATM    6  O   UNL     1      -7.071   4.061  69.186  1.00  0.00    -0.046 OA 
HETATM    7  O   UNL     1      -8.823   2.890  68.381  1.00  0.00    -0.096 OA 
ENDROOT
BRANCH   3   8
HETATM    8  C   UNL     1      -8.317   7.514  69.435  1.00  0.00    -0.132 A  
HETATM    9  C   UNL     1      -9.256   8.379  69.989  1.00  0.00    -0.158 A  
HETATM   10  C   UNL     1      -9.228   9.741  69.670  1.00  0.00    -0.239 A  
HETATM   11  C   UNL     1      -8.245  10.246  68.812  1.00  0.00    -0.119 A  
HETATM   12  C   UNL     1      -7.284   8.036  68.651  1.00  0.00    -0.081 A  
HETATM   13  C   UNL     1      -7.239   9.398  68.345  1.00  0.00    -0.076 A  
BRANCH  11  14
HETATM   14  C   UNL     1      -8.299  11.680  68.436  1.00  0.00    -0.157 C  
HETATM   15  O   UNL     1      -7.332  12.393  68.691  1.00  0.00    -0.105 OA 
BRANCH  14  16
HETATM   16  C   UNL     1      -9.505  12.283  67.802  1.00  0.00    -0.197 A  
HETATM   17  C   UNL     1      -9.729  12.045  66.439  1.00  0.00    -0.239 A  
HETATM   18  C   UNL     1     -10.820  12.626  65.791  1.00  0.00    -0.304 A  
HETATM   19  C   UNL     1     -11.690  13.453  66.502  1.00  0.00    -0.373 A  
HETATM   20  C   UNL     1     -11.476  13.701  67.856  1.00  0.00    -0.348 A  
HETATM   21 CL   UNL     1     -13.021  14.190  65.700  1.00  0.00    -0.437 Cl 
HETATM   22  C   UNL     1     -10.378  13.127  68.505  1.00  0.00    -0.245 A  
ENDBRANCH  14  16
ENDBRANCH  11  14
ENDBRANCH   3   8
TORSDOF 3
ENDMDL
MODEL      136
REMARK 921   NORMALIZED FREE ENERGY PREDICTED BY IDOCK:   -3.65 KCAL/MOL
REMARK 922        TOTAL FREE ENERGY PREDICTED BY IDOCK:   -4.91 KCAL/MOL
REMARK 923 INTER-LIGAND FREE ENERGY PREDICTED BY IDOCK:   -4.87 KCAL/MOL
REMARK 924 INTRA-LIGAND FREE ENERGY PREDICTED BY IDOCK:   -0.04 KCAL/MOL
REMARK 927      BINDING AFFINITY PREDICTED BY RF-SCORE:    0.00 PKD
ROOT
HETATM    1  C   UNL     1      -7.540  13.321  68.808  1.00  0.00    -0.043 C  
HETATM    2  C   UNL     1      -7.038  11.897  68.568  1.00  0.00    -0.089 C  
HETATM    3  O   UNL     1      -8.153  11.027  68.259  1.00  0.00    -0.115 OA 
HETATM    4  C   UNL     1      -6.204  11.926  67.265  1.00  0.00    -0.140 C  
HETATM    5  C   UNL     1      -6.088  11.394  69.662  1.00  0.00    -0.110 C  
HETATM    6  O   UNL     1      -6.635  11.043  66.328  1.00  0.00    -0.130 OA 
HETATM    7  O   UNL     1      -5.235  12.647  67.074  1.00  0.00    -0.334 OA 
ENDROOT
BRANCH   3   8
HETATM    8  C   UNL     1      -8.790  10.297  69.216  1.00  0.00    -0.177 A  
HETATM    9  C   UNL     1      -8.183   9.553  70.222  1.00  0.00    -0.209 A  
HETATM   10  C   UNL     1      -8.964   8.794  71.101  1.00  0.00    -0.280 A  
HETATM   11  C   UNL     1     -10.359   8.798  70.989  1.00  0.00    -0.297 A  
HETATM   12  C   UNL     1     -10.186  10.369  69.165  1.00  0.00    -0.239 A  
HETATM   13  C   UNL     1     -10.972   9.631  70.051  1.00  0.00    -0.297 A  
BRANCH  11  14
HETATM   14  C   UNL     1     -11.145   7.918  71.889  1.00  0.00    -0.267 C  
HETATM   15  O   UNL     1     -12.025   8.421  72.584  1.00  0.00    -0.396 OA 
BRANCH  14  16
HETATM   16  C   UNL     1     -10.866   6.459  72.005  1.00  0.00    -0.277 A  
HETATM   17  C   UNL     1     -11.109   5.833  73.236  1.00  0.00    -0.252 A  
HETATM   18  C   UNL     1     -10.821   4.478  73.407  1.00  0.00    -0.350 A  
HETATM   19  C   UNL     1     -10.283   3.743  72.350  1.00  0.00    -0.149 A  
HETATM   20  C   UNL     1     -10.033   4.355  71.124  1.00  0.00    -0.243 A  
HETATM   21 CL   UNL     1      -9.904   2.080  72.566  1.00  0.00    -0.177 Cl 
HETATM   22  C   UNL     1     -10.313   5.715  70.953  1.00  0.00    -0.303 A  
ENDBRANCH  14  16
ENDBRANCH  11  14
ENDBRANCH   3   8
TORSDOF 3
ENDMDL
MODEL      137
REMARK 921   NORMALIZED FREE ENERGY PREDICTED BY IDOCK:   -3.57 KCAL/MOL
REMARK 922        TOTAL FREE ENERGY PREDICTED BY IDOCK:   -4.82 KCAL/MOL
REMARK 923 INTER-LIGAND FREE ENERGY PREDICTED BY IDOCK:   -4.62 KCAL/MOL
REMARK 924 INTRA-LIGAND FREE ENERGY PREDICTED BY IDOCK:   -0.20 KCAL/MOL
REMARK 927      BINDING AFFINITY PREDICTED BY RF-SCORE:    0.00 PKD
ROOT
HETATM    1  C   UNL     1     -10.594  16.430  65.018  1.00  0.00    -0.217 C  
HETATM    2  C   UNL     1     -10.107  16.425  66.468  1.00  0.00    -0.295 C  
HETATM    3  O   UNL     1      -9.192  15.323  66.677  1.00  0.00    -0.235 OA 
HETATM    4  C   UNL     1      -9.233  17.687  66.655  1.00  0.00    -0.271 C  
HETATM    5  C   UNL     1     -11.243  16.547  67.492  1.00  0.00     0.021 C  
HETATM    6  O   UNL     1      -7.981  17.417  67.108  1.00  0.00    -0.193 OA 
HETATM    7  O   UNL     1      -9.607  18.833  66.444  1.00  0.00    -0.326 OA 
ENDROOT
BRANCH   3   8
HETATM    8  C   UNL     1      -9.607  14.116  67.150  1.00  0.00    -0.244 A  
HETATM    9  C   UNL     1      -9.547  12.903  66.472  1.00  0.00    -0.259 A  
HETATM   10  C   UNL     1     -10.074  11.746  67.057  1.00  0.00    -0.232 A  
HETATM   11  C   UNL     1     -10.641  11.796  68.334  1.00  0.00    -0.239 A  
HETATM   12  C   UNL     1     -10.093  14.143  68.462  1.00  0.00    -0.243 A  
HETATM   13  C   UNL     1     -10.602  12.988  69.059  1.00  0.00    -0.079 A  
BRANCH  11  14
HETATM   14  C   UNL     1     -11.260  10.564  68.885  1.00  0.00    -0.266 C  
HETATM   15  O   UNL     1     -12.443  10.595  69.214  1.00  0.00    -0.304 OA 
BRANCH  14  16
HETATM   16  C   UNL     1     -10.476   9.313  69.090  1.00  0.00    -0.231 A  
HETATM   17  C   UNL     1      -9.651   9.225  70.220  1.00  0.00    -0.276 A  
HETATM   18  C   UNL     1      -8.864   8.091  70.431  1.00  0.00    -0.141 A  
HETATM   19  C   UNL     1      -8.893   7.044  69.511  1.00  0.00    -0.133 A  
HETATM   20  C   UNL     1      -9.706   7.122  68.382  1.00  0.00    -0.143 A  
HETATM   21 CL   UNL     1      -7.906   5.657  69.756  1.00  0.00    -0.085 Cl 
HETATM   22  C   UNL     1     -10.489   8.260  68.164  1.00  0.00    -0.226 A  
ENDBRANCH  14  16
ENDBRANCH  11  14
ENDBRANCH   3   8
TORSDOF 3
ENDMDL
MODEL      138
REMARK 921   NORMALIZED FREE ENERGY PREDICTED BY IDOCK:   -3.52 KCAL/MOL
REMARK 922        TOTAL FREE ENERGY PREDICTED BY IDOCK:   -4.76 KCAL/MOL
REMARK 923 INTER-LIGAND FREE ENERGY PREDICTED BY IDOCK:   -4.08 KCAL/MOL
REMARK 924 INTRA-LIGAND FREE ENERGY PREDICTED BY IDOCK:   -0.68 KCAL/MOL
REMARK 927      BINDING AFFINITY PREDICTED BY RF-SCORE:    0.00 PKD
ROOT
HETATM    1  C   UNL     1     -13.237   7.146  71.125  1.00  0.00    -0.265 C  
HETATM    2  C   UNL     1     -12.383   8.316  71.614  1.00  0.00    -0.315 C  
HETATM    3  O   UNL     1     -11.831   9.030  70.483  1.00  0.00    -0.207 OA 
HETATM    4  C   UNL     1     -13.344   9.332  72.275  1.00  0.00    -0.477 C  
HETATM    5  C   UNL     1     -11.377   7.921  72.703  1.00  0.00    -0.468 C  
HETATM    6  O   UNL     1     -13.264  10.579  71.742  1.00  0.00    -0.425 OA 
HETATM    7  O   UNL     1     -14.101   9.075  73.201  1.00  0.00    -0.313 OA 
ENDROOT
BRANCH   3   8
HETATM    8  C   UNL     1     -10.595   8.755  69.983  1.00  0.00    -0.223 A  
HETATM    9  C   UNL     1      -9.407   9.390  70.332  1.00  0.00    -0.317 A  
HETATM   10  C   UNL     1      -8.214   9.047  69.687  1.00  0.00    -0.116 A  
HETATM   11  C   UNL     1      -8.202   8.050  68.706  1.00  0.00    -0.126 A  
HETATM   12  C   UNL     1     -10.563   7.698  69.068  1.00  0.00    -0.186 A  
HETATM   13  C   UNL     1      -9.372   7.337  68.435  1.00  0.00    -0.143 A  
BRANCH  11  14
HETATM   14  C   UNL     1      -6.932   7.773  67.990  1.00  0.00    -0.080 C  
HETATM   15  O   UNL     1      -5.901   8.308  68.390  1.00  0.00    -0.039 OA 
BRANCH  14  16
HETATM   16  C   UNL     1      -6.883   6.906  66.779  1.00  0.00    -0.064 A  
HETATM   17  C   UNL     1      -7.185   7.482  65.537  1.00  0.00    -0.069 A  
HETATM   18  C   UNL     1      -7.197   6.700  64.381  1.00  0.00    -0.069 A  
HETATM   19  C   UNL     1      -6.912   5.337  64.461  1.00  0.00    -0.049 A  
HETATM   20  C   UNL     1      -6.613   4.753  65.690  1.00  0.00    -0.041 A  
HETATM   21 CL   UNL     1      -6.949   4.367  63.042  1.00  0.00    -0.038 Cl 
HETATM   22  C   UNL     1      -6.610   5.532  66.852  1.00  0.00    -0.056 A  
ENDBRANCH  14  16
ENDBRANCH  11  14
ENDBRANCH   3   8
TORSDOF 3
ENDMDL
MODEL      139
REMARK 921   NORMALIZED FREE ENERGY PREDICTED BY IDOCK:   -3.47 KCAL/MOL
REMARK 922        TOTAL FREE ENERGY PREDICTED BY IDOCK:   -4.70 KCAL/MOL
REMARK 923 INTER-LIGAND FREE ENERGY PREDICTED BY IDOCK:   -4.36 KCAL/MOL
REMARK 924 INTRA-LIGAND FREE ENERGY PREDICTED BY IDOCK:   -0.34 KCAL/MOL
REMARK 927      BINDING AFFINITY PREDICTED BY RF-SCORE:    0.00 PKD
ROOT
HETATM    1  C   UNL     1      -9.507  13.250  67.516  1.00  0.00    -0.220 C  
HETATM    2  C   UNL     1     -10.649  12.247  67.687  1.00  0.00    -0.215 C  
HETATM    3  O   UNL     1     -10.183  11.087  68.416  1.00  0.00    -0.171 OA 
HETATM    4  C   UNL     1     -11.685  12.901  68.632  1.00  0.00    -0.324 C  
HETATM    5  C   UNL     1     -11.400  11.952  66.382  1.00  0.00    -0.400 C  
HETATM    6  O   UNL     1     -11.970  12.148  69.726  1.00  0.00    -0.315 OA 
HETATM    7  O   UNL     1     -12.229  13.979  68.433  1.00  0.00    -0.332 OA 
ENDROOT
BRANCH   3   8
HETATM    8  C   UNL     1      -9.725   9.970  67.786  1.00  0.00    -0.150 A  
HETATM    9  C   UNL     1     -10.501   8.911  67.326  1.00  0.00    -0.348 A  
HETATM   10  C   UNL     1      -9.887   7.791  66.754  1.00  0.00    -0.312 A  
HETATM   11  C   UNL     1      -8.496   7.738  66.619  1.00  0.00    -0.129 A  
HETATM   12  C   UNL     1      -8.344   9.953  67.567  1.00  0.00    -0.114 A  
HETATM   13  C   UNL     1      -7.728   8.848  66.979  1.00  0.00    -0.098 A  
BRANCH  11  14
HETATM   14  C   UNL     1      -7.881   6.500  66.080  1.00  0.00    -0.106 C  
HETATM   15  O   UNL     1      -6.693   6.284  66.309  1.00  0.00    -0.053 OA 
BRANCH  14  16
HETATM   16  C   UNL     1      -8.649   5.541  65.237  1.00  0.00    -0.149 A  
HETATM   17  C   UNL     1      -8.308   5.429  63.881  1.00  0.00    -0.109 A  
HETATM   18  C   UNL     1      -9.028   4.577  63.042  1.00  0.00    -0.129 A  
HETATM   19  C   UNL     1     -10.097   3.839  63.552  1.00  0.00    -0.193 A  
HETATM   20  C   UNL     1     -10.447   3.945  64.896  1.00  0.00    -0.125 A  
HETATM   21 CL   UNL     1     -11.001   2.808  62.514  1.00  0.00    -0.171 Cl 
HETATM   22  C   UNL     1      -9.733   4.805  65.737  1.00  0.00    -0.200 A  
ENDBRANCH  14  16
ENDBRANCH  11  14
ENDBRANCH   3   8
TORSDOF 3
ENDMDL
MODEL      140
REMARK 921   NORMALIZED FREE ENERGY PREDICTED BY IDOCK:   -3.40 KCAL/MOL
REMARK 922        TOTAL FREE ENERGY PREDICTED BY IDOCK:   -4.62 KCAL/MOL
REMARK 923 INTER-LIGAND FREE ENERGY PREDICTED BY IDOCK:   -3.75 KCAL/MOL
REMARK 924 INTRA-LIGAND FREE ENERGY PREDICTED BY IDOCK:   -0.87 KCAL/MOL
REMARK 927      BINDING AFFINITY PREDICTED BY RF-SCORE:    0.00 PKD
ROOT
HETATM    1  C   UNL     1      -8.699   5.770  71.566  1.00  0.00    -0.133 C  
HETATM    2  C   UNL     1      -7.339   6.404  71.272  1.00  0.00    -0.080 C  
HETATM    3  O   UNL     1      -7.319   7.771  71.746  1.00  0.00    -0.062 OA 
HETATM    4  C   UNL     1      -6.300   5.677  72.159  1.00  0.00    -0.048 C  
HETATM    5  C   UNL     1      -6.871   6.198  69.825  1.00  0.00    -0.068 C  
HETATM    6  O   UNL     1      -5.587   6.516  72.955  1.00  0.00    -0.037 OA 
HETATM    7  O   UNL     1      -6.101   4.470  72.154  1.00  0.00    -0.015 OA 
ENDROOT
BRANCH   3   8
HETATM    8  C   UNL     1      -7.625   8.824  70.938  1.00  0.00    -0.102 A  
HETATM    9  C   UNL     1      -8.885   9.135  70.437  1.00  0.00    -0.253 A  
HETATM   10  C   UNL     1      -9.042  10.214  69.560  1.00  0.00    -0.213 A  
HETATM   11  C   UNL     1      -7.941  11.000  69.201  1.00  0.00    -0.081 A  
HETATM   12  C   UNL     1      -6.546   9.664  70.649  1.00  0.00    -0.114 A  
HETATM   13  C   UNL     1      -6.700  10.755  69.791  1.00  0.00    -0.139 A  
BRANCH  11  14
HETATM   14  C   UNL     1      -8.137  12.084  68.207  1.00  0.00    -0.155 C  
HETATM   15  O   UNL     1      -7.426  13.083  68.277  1.00  0.00    -0.109 OA 
BRANCH  14  16
HETATM   16  C   UNL     1      -9.196  12.013  67.162  1.00  0.00    -0.190 A  
HETATM   17  C   UNL     1      -8.969  11.203  66.039  1.00  0.00    -0.210 A  
HETATM   18  C   UNL     1      -9.912  11.140  65.013  1.00  0.00    -0.325 A  
HETATM   19  C   UNL     1     -11.085  11.891  65.099  1.00  0.00    -0.305 A  
HETATM   20  C   UNL     1     -11.320  12.702  66.207  1.00  0.00    -0.376 A  
HETATM   21 CL   UNL     1     -12.237  11.834  63.824  1.00  0.00    -0.501 Cl 
HETATM   22  C   UNL     1     -10.372  12.774  67.234  1.00  0.00    -0.235 A  
ENDBRANCH  14  16
ENDBRANCH  11  14
ENDBRANCH   3   8
TORSDOF 3
ENDMDL
MODEL      141
REMARK 921   NORMALIZED FREE ENERGY PREDICTED BY IDOCK:   -3.35 KCAL/MOL
REMARK 922        TOTAL FREE ENERGY PREDICTED BY IDOCK:   -4.56 KCAL/MOL
REMARK 923 INTER-LIGAND FREE ENERGY PREDICTED BY IDOCK:   -3.88 KCAL/MOL
REMARK 924 INTRA-LIGAND FREE ENERGY PREDICTED BY IDOCK:   -0.68 KCAL/MOL
REMARK 927      BINDING AFFINITY PREDICTED BY RF-SCORE:    0.00 PKD
ROOT
HETATM    1  C   UNL     1      -9.020  15.482  67.344  1.00  0.00    -0.203 C  
HETATM    2  C   UNL     1     -10.460  15.135  67.723  1.00  0.00    -0.247 C  
HETATM    3  O   UNL     1     -10.468  14.150  68.783  1.00  0.00    -0.244 OA 
HETATM    4  C   UNL     1     -11.073  16.399  68.372  1.00  0.00    -0.351 C  
HETATM    5  C   UNL     1     -11.348  14.813  66.513  1.00  0.00    -0.344 C  
HETATM    6  O   UNL     1     -11.573  16.180  69.615  1.00  0.00    -0.312 OA 
HETATM    7  O   UNL     1     -11.136  17.497  67.837  1.00  0.00    -0.241 OA 
ENDROOT
BRANCH   3   8
HETATM    8  C   UNL     1     -10.553  12.814  68.532  1.00  0.00    -0.252 A  
HETATM    9  C   UNL     1     -11.690  12.023  68.665  1.00  0.00    -0.380 A  
HETATM   10  C   UNL     1     -11.615  10.645  68.435  1.00  0.00    -0.269 A  
HETATM   11  C   UNL     1     -10.406  10.058  68.047  1.00  0.00    -0.238 A  
HETATM   12  C   UNL     1      -9.370  12.239  68.057  1.00  0.00    -0.195 A  
HETATM   13  C   UNL     1      -9.294  10.867  67.806  1.00  0.00    -0.162 A  
BRANCH  11  14
HETATM   14  C   UNL     1     -10.351   8.584  67.891  1.00  0.00    -0.223 C  
HETATM   15  O   UNL     1     -11.379   7.983  67.590  1.00  0.00     0.411 OA 
BRANCH  14  16
HETATM   16  C   UNL     1      -9.099   7.812  68.134  1.00  0.00    -0.129 A  
HETATM   17  C   UNL     1      -8.628   7.707  69.451  1.00  0.00    -0.136 A  
HETATM   18  C   UNL     1      -7.437   7.032  69.722  1.00  0.00    -0.098 A  
HETATM   19  C   UNL     1      -6.706   6.465  68.677  1.00  0.00    -0.061 A  
HETATM   20  C   UNL     1      -7.161   6.567  67.365  1.00  0.00    -0.085 A  
HETATM   21 CL   UNL     1      -5.225   5.656  69.006  1.00  0.00    -0.003 Cl 
HETATM   22  C   UNL     1      -8.351   7.250  67.089  1.00  0.00    -0.118 A  
ENDBRANCH  14  16
ENDBRANCH  11  14
ENDBRANCH   3   8
TORSDOF 3
ENDMDL
MODEL      142
REMARK 921   NORMALIZED FREE ENERGY PREDICTED BY IDOCK:   -3.29 KCAL/MOL
REMARK 922        TOTAL FREE ENERGY PREDICTED BY IDOCK:   -4.49 KCAL/MOL
REMARK 923 INTER-LIGAND FREE ENERGY PREDICTED BY IDOCK:   -3.74 KCAL/MOL
REMARK 924 INTRA-LIGAND FREE ENERGY PREDICTED BY IDOCK:   -0.75 KCAL/MOL
REMARK 927      BINDING AFFINITY PREDICTED BY RF-SCORE:    0.00 PKD
ROOT
HETATM    1  C   UNL     1     -10.074   3.843  65.225  1.00  0.00    -0.122 C  
HETATM    2  C   UNL     1      -8.928   4.174  66.182  1.00  0.00    -0.126 C  
HETATM    3  O   UNL     1      -9.420   4.973  67.284  1.00  0.00    -0.124 OA 
HETATM    4  C   UNL     1      -8.491   2.844  66.841  1.00  0.00    -0.099 C  
HETATM    5  C   UNL     1      -7.681   4.719  65.474  1.00  0.00    -0.086 C  
HETATM    6  O   UNL     1      -8.528   2.874  68.198  1.00  0.00    -0.076 OA 
HETATM    7  O   UNL     1      -8.124   1.850  66.229  1.00  0.00    -0.075 OA 
ENDROOT
BRANCH   3   8
HETATM    8  C   UNL     1      -9.375   6.334  67.270  1.00  0.00    -0.118 A  
HETATM    9  C   UNL     1     -10.083   7.171  66.414  1.00  0.00    -0.051 A  
HETATM   10  C   UNL     1      -9.888   8.555  66.468  1.00  0.00    -0.342 A  
HETATM   11  C   UNL     1      -9.000   9.108  67.397  1.00  0.00    -0.128 A  
HETATM   12  C   UNL     1      -8.557   6.895  68.256  1.00  0.00    -0.125 A  
HETATM   13  C   UNL     1      -8.374   8.277  68.329  1.00  0.00    -0.132 A  
BRANCH  11  14
HETATM   14  C   UNL     1      -8.762  10.572  67.368  1.00  0.00    -0.125 C  
HETATM   15  O   UNL     1      -7.722  10.991  66.866  1.00  0.00    -0.126 OA 
BRANCH  14  16
HETATM   16  C   UNL     1      -9.724  11.539  67.969  1.00  0.00    -0.187 A  
HETATM   17  C   UNL     1      -9.337  12.882  68.076  1.00  0.00    -0.213 A  
HETATM   18  C   UNL     1     -10.186  13.816  68.673  1.00  0.00    -0.209 A  
HETATM   19  C   UNL     1     -11.423  13.410  69.172  1.00  0.00    -0.300 A  
HETATM   20  C   UNL     1     -11.818  12.077  69.075  1.00  0.00    -0.372 A  
HETATM   21 CL   UNL     1     -12.460  14.553  69.930  1.00  0.00    -0.337 Cl 
HETATM   22  C   UNL     1     -10.965  11.138  68.486  1.00  0.00    -0.267 A  
ENDBRANCH  14  16
ENDBRANCH  11  14
ENDBRANCH   3   8
TORSDOF 3
ENDMDL
MODEL      143
REMARK 921   NORMALIZED FREE ENERGY PREDICTED BY IDOCK:   -3.14 KCAL/MOL
REMARK 922        TOTAL FREE ENERGY PREDICTED BY IDOCK:   -4.31 KCAL/MOL
REMARK 923 INTER-LIGAND FREE ENERGY PREDICTED BY IDOCK:   -3.66 KCAL/MOL
REMARK 924 INTRA-LIGAND FREE ENERGY PREDICTED BY IDOCK:   -0.65 KCAL/MOL
REMARK 927      BINDING AFFINITY PREDICTED BY RF-SCORE:    0.00 PKD
ROOT
HETATM    1  C   UNL     1      -7.756   5.345  66.727  1.00  0.00    -0.100 C  
HETATM    2  C   UNL     1      -8.349   5.712  68.087  1.00  0.00    -0.099 C  
HETATM    3  O   UNL     1      -9.260   6.828  67.944  1.00  0.00    -0.116 OA 
HETATM    4  C   UNL     1      -9.255   4.534  68.518  1.00  0.00    -0.133 C  
HETATM    5  C   UNL     1      -7.295   5.855  69.193  1.00  0.00    -0.083 C  
HETATM    6  O   UNL     1     -10.532   4.905  68.792  1.00  0.00    -0.063 OA 
HETATM    7  O   UNL     1      -8.883   3.373  68.630  1.00  0.00    -0.093 OA 
ENDROOT
BRANCH   3   8
HETATM    8  C   UNL     1      -8.862   8.117  68.129  1.00  0.00    -0.132 A  
HETATM    9  C   UNL     1      -9.020   8.867  69.291  1.00  0.00    -0.144 A  
HETATM   10  C   UNL     1      -8.622  10.208  69.318  1.00  0.00    -0.180 A  
HETATM   11  C   UNL     1      -8.042  10.796  68.189  1.00  0.00    -0.117 A  
HETATM   12  C   UNL     1      -8.202   8.682  67.034  1.00  0.00    -0.106 A  
HETATM   13  C   UNL     1      -7.784  10.014  67.062  1.00  0.00    -0.095 A  
BRANCH  11  14
HETATM   14  C   UNL     1      -7.708  12.241  68.234  1.00  0.00    -0.143 C  
HETATM   15  O   UNL     1      -6.796  12.613  68.968  1.00  0.00    -0.097 OA 
BRANCH  14  16
HETATM   16  C   UNL     1      -8.475  13.252  67.453  1.00  0.00    -0.206 A  
HETATM   17  C   UNL     1      -9.750  12.902  66.985  1.00  0.00    -0.230 A  
HETATM   18  C   UNL     1     -10.487  13.799  66.211  1.00  0.00    -0.291 A  
HETATM   19  C   UNL     1      -9.951  15.048  65.894  1.00  0.00    -0.326 A  
HETATM   20  C   UNL     1      -8.684  15.405  66.350  1.00  0.00    -0.307 A  
HETATM   21 CL   UNL     1     -10.847  16.145  64.919  1.00  0.00    -0.429 Cl 
HETATM   22  C   UNL     1      -7.940  14.504  67.119  1.00  0.00    -0.167 A  
ENDBRANCH  14  16
ENDBRANCH  11  14
ENDBRANCH   3   8
TORSDOF 3
ENDMDL
MODEL      144
REMARK 921   NORMALIZED FREE ENERGY PREDICTED BY IDOCK:   -2.96 KCAL/MOL
REMARK 922        TOTAL FREE ENERGY PREDICTED BY IDOCK:   -4.11 KCAL/MOL
REMARK 923 INTER-LIGAND FREE ENERGY PREDICTED BY IDOCK:   -3.94 KCAL/MOL
REMARK 924 INTRA-LIGAND FREE ENERGY PREDICTED BY IDOCK:   -0.16 KCAL/MOL
REMARK 927      BINDING AFFINITY PREDICTED BY RF-SCORE:    0.00 PKD
ROOT
HETATM    1  C   UNL     1     -10.342  14.458  64.647  1.00  0.00    -0.215 C  
HETATM    2  C   UNL     1     -11.246  13.306  65.088  1.00  0.00    -0.302 C  
HETATM    3  O   UNL     1     -10.664  12.632  66.229  1.00  0.00    -0.251 OA 
HETATM    4  C   UNL     1     -12.545  13.938  65.641  1.00  0.00    -0.517 C  
HETATM    5  C   UNL     1     -11.682  12.397  63.932  1.00  0.00    -0.529 C  
HETATM    6  O   UNL     1     -12.836  13.554  66.911  1.00  0.00     0.115 OA 
HETATM    7  O   UNL     1     -13.272  14.698  65.016  1.00  0.00    -0.358 OA 
ENDROOT
BRANCH   3   8
HETATM    8  C   UNL     1      -9.871  11.533  66.095  1.00  0.00    -0.221 A  
HETATM    9  C   UNL     1     -10.153  10.404  65.331  1.00  0.00    -0.354 A  
HETATM   10  C   UNL     1      -9.273   9.316  65.339  1.00  0.00    -0.284 A  
HETATM   11  C   UNL     1      -8.095   9.364  66.093  1.00  0.00    -0.111 A  
HETATM   12  C   UNL     1      -8.651  11.613  66.774  1.00  0.00    -0.180 A  
HETATM   13  C   UNL     1      -7.759  10.539  66.769  1.00  0.00    -0.118 A  
BRANCH  11  14
HETATM   14  C   UNL     1      -7.230   8.160  66.136  1.00  0.00    -0.066 C  
HETATM   15  O   UNL     1      -6.382   8.010  65.259  1.00  0.00    -0.045 OA 
BRANCH  14  16
HETATM   16  C   UNL     1      -7.393   7.111  67.182  1.00  0.00    -0.090 A  
HETATM   17  C   UNL     1      -6.240   6.606  67.800  1.00  0.00    -0.035 A  
HETATM   18  C   UNL     1      -6.338   5.590  68.753  1.00  0.00    -0.038 A  
HETATM   19  C   UNL     1      -7.588   5.070  69.087  1.00  0.00    -0.072 A  
HETATM   20  C   UNL     1      -8.740   5.561  68.477  1.00  0.00    -0.105 A  
HETATM   21 CL   UNL     1      -7.709   3.802  70.242  1.00  0.00    -0.047 Cl 
HETATM   22  C   UNL     1      -8.644   6.572  67.515  1.00  0.00    -0.119 A  
ENDBRANCH  14  16
ENDBRANCH  11  14
ENDBRANCH   3   8
TORSDOF 3
ENDMDL
MODEL      145
REMARK 921   NORMALIZED FREE ENERGY PREDICTED BY IDOCK:   -2.93 KCAL/MOL
REMARK 922        TOTAL FREE ENERGY PREDICTED BY IDOCK:   -4.07 KCAL/MOL
REMARK 923 INTER-LIGAND FREE ENERGY PREDICTED BY IDOCK:   -3.59 KCAL/MOL
REMARK 924 INTRA-LIGAND FREE ENERGY PREDICTED BY IDOCK:   -0.48 KCAL/MOL
REMARK 927      BINDING AFFINITY PREDICTED BY RF-SCORE:    0.00 PKD
ROOT
HETATM    1  C   UNL     1     -10.054  11.199  70.034  1.00  0.00     0.833 C  
HETATM    2  C   UNL     1     -10.925  12.092  69.149  1.00  0.00    -0.178 C  
HETATM    3  O   UNL     1     -10.198  12.459  67.952  1.00  0.00    -0.202 OA 
HETATM    4  C   UNL     1     -12.091  11.216  68.633  1.00  0.00    -0.110 C  
HETATM    5  C   UNL     1     -11.577  13.253  69.910  1.00  0.00    -0.260 C  
HETATM    6  O   UNL     1     -12.193  11.194  67.279  1.00  0.00     0.029 OA 
HETATM    7  O   UNL     1     -12.876  10.607  69.348  1.00  0.00    -0.144 OA 
ENDROOT
BRANCH   3   8
HETATM    8  C   UNL     1      -9.484  13.615  67.863  1.00  0.00    -0.213 A  
HETATM    9  C   UNL     1     -10.005  14.905  67.869  1.00  0.00    -0.219 A  
HETATM   10  C   UNL     1      -9.155  16.004  67.703  1.00  0.00    -0.200 A  
HETATM   11  C   UNL     1      -7.777  15.816  67.554  1.00  0.00    -0.186 A  
HETATM   12  C   UNL     1      -8.098  13.436  67.805  1.00  0.00    -0.173 A  
HETATM   13  C   UNL     1      -7.243  14.530  67.659  1.00  0.00    -0.206 A  
BRANCH  11  14
HETATM   14  C   UNL     1      -6.922  17.002  67.300  1.00  0.00    -0.165 C  
HETATM   15  O   UNL     1      -6.546  17.223  66.152  1.00  0.00    -0.229 OA 
BRANCH  14  16
HETATM   16  C   UNL     1      -6.472  17.899  68.402  1.00  0.00    -0.198 A  
HETATM   17  C   UNL     1      -5.582  17.385  69.356  1.00  0.00    -0.201 A  
HETATM   18  C   UNL     1      -5.168  18.173  70.431  1.00  0.00    -0.250 A  
HETATM   19  C   UNL     1      -5.647  19.477  70.561  1.00  0.00    -0.245 A  
HETATM   20  C   UNL     1      -6.535  19.997  69.622  1.00  0.00    -0.374 A  
HETATM   21 CL   UNL     1      -5.158  20.441  71.898  1.00  0.00    -0.378 Cl 
HETATM   22  C   UNL     1      -6.958  19.207  68.549  1.00  0.00    -0.318 A  
ENDBRANCH  14  16
ENDBRANCH  11  14
ENDBRANCH   3   8
TORSDOF 3
ENDMDL
MODEL      146
REMARK 921   NORMALIZED FREE ENERGY PREDICTED BY IDOCK:   -2.88 KCAL/MOL
REMARK 922        TOTAL FREE ENERGY PREDICTED BY IDOCK:   -4.01 KCAL/MOL
REMARK 923 INTER-LIGAND FREE ENERGY PREDICTED BY IDOCK:   -3.39 KCAL/MOL
REMARK 924 INTRA-LIGAND FREE ENERGY PREDICTED BY IDOCK:   -0.62 KCAL/MOL
REMARK 927      BINDING AFFINITY PREDICTED BY RF-SCORE:    0.00 PKD
ROOT
HETATM    1  C   UNL     1     -10.912   6.581  67.073  1.00  0.00    -0.466 C  
HETATM    2  C   UNL     1      -9.419   6.372  66.821  1.00  0.00    -0.150 C  
HETATM    3  O   UNL     1      -8.678   6.576  68.048  1.00  0.00    -0.118 OA 
HETATM    4  C   UNL     1      -9.220   4.872  66.500  1.00  0.00    -0.135 C  
HETATM    5  C   UNL     1      -8.895   7.135  65.597  1.00  0.00    -0.043 C  
HETATM    6  O   UNL     1      -8.320   4.259  67.313  1.00  0.00    -0.100 OA 
HETATM    7  O   UNL     1      -9.787   4.270  65.598  1.00  0.00    -0.186 OA 
ENDROOT
BRANCH   3   8
HETATM    8  C   UNL     1      -8.128   7.779  68.372  1.00  0.00    -0.124 A  
HETATM    9  C   UNL     1      -6.884   8.250  67.963  1.00  0.00    -0.066 A  
HETATM   10  C   UNL     1      -6.415   9.483  68.429  1.00  0.00    -0.053 A  
HETATM   11  C   UNL     1      -7.201  10.260  69.287  1.00  0.00    -0.093 A  
HETATM   12  C   UNL     1      -8.947   8.597  69.156  1.00  0.00    -0.142 A  
HETATM   13  C   UNL     1      -8.493   9.838  69.608  1.00  0.00    -0.194 A  
BRANCH  11  14
HETATM   14  C   UNL     1      -6.634  11.522  69.821  1.00  0.00    -0.091 C  
HETATM   15  O   UNL     1      -6.074  11.502  70.914  1.00  0.00    -0.360 OA 
BRANCH  14  16
HETATM   16  C   UNL     1      -6.765  12.815  69.091  1.00  0.00    -0.080 A  
HETATM   17  C   UNL     1      -7.822  12.960  68.181  1.00  0.00    -0.147 A  
HETATM   18  C   UNL     1      -7.958  14.136  67.441  1.00  0.00    -0.201 A  
HETATM   19  C   UNL     1      -7.036  15.170  67.603  1.00  0.00    -0.186 A  
HETATM   20  C   UNL     1      -5.980  15.036  68.501  1.00  0.00    -0.094 A  
HETATM   21 CL   UNL     1      -7.189  16.609  66.674  1.00  0.00    -0.274 Cl 
HETATM   22  C   UNL     1      -5.835  13.856  69.237  1.00  0.00    -0.085 A  
ENDBRANCH  14  16
ENDBRANCH  11  14
ENDBRANCH   3   8
TORSDOF 3
ENDMDL
MODEL      147
REMARK 921   NORMALIZED FREE ENERGY PREDICTED BY IDOCK:   -2.84 KCAL/MOL
REMARK 922        TOTAL FREE ENERGY PREDICTED BY IDOCK:   -3.96 KCAL/MOL
REMARK 923 INTER-LIGAND FREE ENERGY PREDICTED BY IDOCK:   -3.19 KCAL/MOL
REMARK 924 INTRA-LIGAND FREE ENERGY PREDICTED BY IDOCK:   -0.77 KCAL/MOL
REMARK 927      BINDING AFFINITY PREDICTED BY RF-SCORE:    0.00 PKD
ROOT
HETATM    1  C   UNL     1      -6.642  13.666  69.736  1.00  0.00    -0.009 C  
HETATM    2  C   UNL     1      -7.027  13.170  68.342  1.00  0.00    -0.104 C  
HETATM    3  O   UNL     1      -8.278  12.444  68.404  1.00  0.00    -0.164 OA 
HETATM    4  C   UNL     1      -7.353  14.420  67.491  1.00  0.00    -0.186 C  
HETATM    5  C   UNL     1      -5.882  12.454  67.612  1.00  0.00    -0.127 C  
HETATM    6  O   UNL     1      -8.592  14.388  66.935  1.00  0.00    -0.215 OA 
HETATM    7  O   UNL     1      -6.586  15.354  67.302  1.00  0.00    -0.265 OA 
ENDROOT
BRANCH   3   8
HETATM    8  C   UNL     1      -8.325  11.090  68.547  1.00  0.00    -0.149 A  
HETATM    9  C   UNL     1      -8.132  10.383  69.730  1.00  0.00    -0.061 A  
HETATM   10  C   UNL     1      -8.143   8.984  69.717  1.00  0.00    -0.109 A  
HETATM   11  C   UNL     1      -8.372   8.288  68.525  1.00  0.00    -0.129 A  
HETATM   12  C   UNL     1      -8.642  10.395  67.376  1.00  0.00    -0.125 A  
HETATM   13  C   UNL     1      -8.675   8.999  67.362  1.00  0.00    -0.122 A  
BRANCH  11  14
HETATM   14  C   UNL     1      -8.296   6.807  68.541  1.00  0.00    -0.120 C  
HETATM   15  O   UNL     1      -7.641   6.259  69.424  1.00  0.00    -0.094 OA 
BRANCH  14  16
HETATM   16  C   UNL     1      -8.952   5.973  67.495  1.00  0.00    -0.111 A  
HETATM   17  C   UNL     1      -8.136   5.228  66.631  1.00  0.00    -0.105 A  
HETATM   18  C   UNL     1      -8.703   4.468  65.607  1.00  0.00    -0.124 A  
HETATM   19  C   UNL     1     -10.088   4.453  65.437  1.00  0.00    -0.223 A  
HETATM   20  C   UNL     1     -10.908   5.192  66.286  1.00  0.00    -0.180 A  
HETATM   21 CL   UNL     1     -10.786   3.537  64.161  1.00  0.00    -0.194 Cl 
HETATM   22  C   UNL     1     -10.342   5.962  67.308  1.00  0.00    -0.279 A  
ENDBRANCH  14  16
ENDBRANCH  11  14
ENDBRANCH   3   8
TORSDOF 3
ENDMDL
MODEL      148
REMARK 921   NORMALIZED FREE ENERGY PREDICTED BY IDOCK:   -2.73 KCAL/MOL
REMARK 922        TOTAL FREE ENERGY PREDICTED BY IDOCK:   -3.83 KCAL/MOL
REMARK 923 INTER-LIGAND FREE ENERGY PREDICTED BY IDOCK:   -3.56 KCAL/MOL
REMARK 924 INTRA-LIGAND FREE ENERGY PREDICTED BY IDOCK:   -0.27 KCAL/MOL
REMARK 927      BINDING AFFINITY PREDICTED BY RF-SCORE:    0.00 PKD
ROOT
HETATM    1  C   UNL     1      -8.693  15.254  69.199  1.00  0.00    -0.238 C  
HETATM    2  C   UNL     1      -9.607  14.560  68.189  1.00  0.00    -0.212 C  
HETATM    3  O   UNL     1      -9.954  13.238  68.665  1.00  0.00    -0.210 OA 
HETATM    4  C   UNL     1     -10.949  15.330  68.190  1.00  0.00    -0.292 C  
HETATM    5  C   UNL     1      -9.086  14.629  66.747  1.00  0.00    -0.287 C  
HETATM    6  O   UNL     1     -12.024  14.542  68.451  1.00  0.00    -0.321 OA 
HETATM    7  O   UNL     1     -11.067  16.526  67.963  1.00  0.00    -0.345 OA 
ENDROOT
BRANCH   3   8
HETATM    8  C   UNL     1      -9.250  12.129  68.305  1.00  0.00    -0.192 A  
HETATM    9  C   UNL     1      -9.769  10.983  67.711  1.00  0.00    -0.183 A  
HETATM   10  C   UNL     1      -8.936   9.888  67.455  1.00  0.00    -0.141 A  
HETATM   11  C   UNL     1      -7.574   9.946  67.772  1.00  0.00    -0.090 A  
HETATM   12  C   UNL     1      -7.873  12.217  68.537  1.00  0.00    -0.122 A  
HETATM   13  C   UNL     1      -7.034  11.135  68.265  1.00  0.00    -0.070 A  
BRANCH  11  14
HETATM   14  C   UNL     1      -6.743   8.736  67.559  1.00  0.00    -0.066 C  
HETATM   15  O   UNL     1      -5.578   8.744  67.948  1.00  0.00    -0.035 OA 
BRANCH  14  16
HETATM   16  C   UNL     1      -7.267   7.536  66.848  1.00  0.00    -0.085 A  
HETATM   17  C   UNL     1      -7.452   7.614  65.460  1.00  0.00    -0.077 A  
HETATM   18  C   UNL     1      -7.983   6.531  64.757  1.00  0.00    -0.120 A  
HETATM   19  C   UNL     1      -8.338   5.367  65.439  1.00  0.00    -0.139 A  
HETATM   20  C   UNL     1      -8.162   5.279  66.818  1.00  0.00    -0.108 A  
HETATM   21 CL   UNL     1      -9.015   4.041  64.579  1.00  0.00    -0.130 Cl 
HETATM   22  C   UNL     1      -7.639   6.366  67.526  1.00  0.00    -0.100 A  
ENDBRANCH  14  16
ENDBRANCH  11  14
ENDBRANCH   3   8
TORSDOF 3
ENDMDL
MODEL      149
REMARK 921   NORMALIZED FREE ENERGY PREDICTED BY IDOCK:   -2.69 KCAL/MOL
REMARK 922        TOTAL FREE ENERGY PREDICTED BY IDOCK:   -3.78 KCAL/MOL
REMARK 923 INTER-LIGAND FREE ENERGY PREDICTED BY IDOCK:   -3.13 KCAL/MOL
REMARK 924 INTRA-LIGAND FREE ENERGY PREDICTED BY IDOCK:   -0.65 KCAL/MOL
REMARK 927      BINDING AFFINITY PREDICTED BY RF-SCORE:    0.00 PKD
ROOT
HETATM    1  C   UNL     1      -9.689   5.927  73.442  1.00  0.00    -0.158 C  
HETATM    2  C   UNL     1      -8.436   5.856  72.569  1.00  0.00    -0.116 C  
HETATM    3  O   UNL     1      -7.762   7.137  72.567  1.00  0.00    -0.088 OA 
HETATM    4  C   UNL     1      -7.445   4.904  73.279  1.00  0.00    -0.088 C  
HETATM    5  C   UNL     1      -8.692   5.240  71.187  1.00  0.00    -0.136 C  
HETATM    6  O   UNL     1      -6.233   5.467  73.521  1.00  0.00    -0.053 OA 
HETATM    7  O   UNL     1      -7.690   3.746  73.588  1.00  0.00    -0.072 OA 
ENDROOT
BRANCH   3   8
HETATM    8  C   UNL     1      -7.988   8.074  71.606  1.00  0.00    -0.112 A  
HETATM    9  C   UNL     1      -9.221   8.623  71.268  1.00  0.00    -0.283 A  
HETATM   10  C   UNL     1      -9.315   9.533  70.209  1.00  0.00    -0.305 A  
HETATM   11  C   UNL     1      -8.171   9.915  69.500  1.00  0.00    -0.163 A  
HETATM   12  C   UNL     1      -6.836   8.526  70.956  1.00  0.00    -0.059 A  
HETATM   13  C   UNL     1      -6.921   9.449  69.912  1.00  0.00    -0.071 A  
BRANCH  11  14
HETATM   14  C   UNL     1      -8.326  10.820  68.335  1.00  0.00    -0.132 C  
HETATM   15  O   UNL     1      -8.563  12.008  68.538  1.00  0.00    -0.157 OA 
BRANCH  14  16
HETATM   16  C   UNL     1      -8.248  10.320  66.933  1.00  0.00    -0.123 A  
HETATM   17  C   UNL     1      -9.283  10.656  66.049  1.00  0.00    -0.208 A  
HETATM   18  C   UNL     1      -9.277  10.174  64.740  1.00  0.00    -0.291 A  
HETATM   19  C   UNL     1      -8.239   9.348  64.309  1.00  0.00    -0.153 A  
HETATM   20  C   UNL     1      -7.207   9.003  65.179  1.00  0.00    -0.088 A  
HETATM   21 CL   UNL     1      -8.242   8.732  62.703  1.00  0.00    -0.183 Cl 
HETATM   22  C   UNL     1      -7.215   9.478  66.494  1.00  0.00    -0.089 A  
ENDBRANCH  14  16
ENDBRANCH  11  14
ENDBRANCH   3   8
TORSDOF 3
ENDMDL
MODEL      150
REMARK 921   NORMALIZED FREE ENERGY PREDICTED BY IDOCK:   -2.60 KCAL/MOL
REMARK 922        TOTAL FREE ENERGY PREDICTED BY IDOCK:   -3.68 KCAL/MOL
REMARK 923 INTER-LIGAND FREE ENERGY PREDICTED BY IDOCK:   -3.09 KCAL/MOL
REMARK 924 INTRA-LIGAND FREE ENERGY PREDICTED BY IDOCK:   -0.58 KCAL/MOL
REMARK 927      BINDING AFFINITY PREDICTED BY RF-SCORE:    0.00 PKD
ROOT
HETATM    1  C   UNL     1      -6.651  13.662  69.702  1.00  0.00    -0.040 C  
HETATM    2  C   UNL     1      -7.078  13.222  68.301  1.00  0.00    -0.109 C  
HETATM    3  O   UNL     1      -8.378  12.589  68.358  1.00  0.00    -0.167 OA 
HETATM    4  C   UNL     1      -7.316  14.509  67.477  1.00  0.00    -0.189 C  
HETATM    5  C   UNL     1      -5.992  12.439  67.552  1.00  0.00    -0.144 C  
HETATM    6  O   UNL     1      -8.557  14.578  66.928  1.00  0.00    -0.216 OA 
HETATM    7  O   UNL     1      -6.484  15.388  67.299  1.00  0.00    -0.292 OA 
ENDROOT
BRANCH   3   8
HETATM    8  C   UNL     1      -8.524  11.240  68.477  1.00  0.00    -0.156 A  
HETATM    9  C   UNL     1      -8.376  10.498  69.645  1.00  0.00    -0.010 A  
HETATM   10  C   UNL     1      -8.490   9.104  69.607  1.00  0.00    -0.133 A  
HETATM   11  C   UNL     1      -8.776   8.450  68.404  1.00  0.00    -0.136 A  
HETATM   12  C   UNL     1      -8.898  10.592  67.296  1.00  0.00    -0.138 A  
HETATM   13  C   UNL     1      -9.033   9.203  67.256  1.00  0.00    -0.136 A  
BRANCH  11  14
HETATM   14  C   UNL     1      -8.809   6.967  68.392  1.00  0.00    -0.123 C  
HETATM   15  O   UNL     1      -9.028   6.390  67.329  1.00  0.00    -0.108 OA 
BRANCH  14  16
HETATM   16  C   UNL     1      -8.631   6.165  69.635  1.00  0.00    -0.128 A  
HETATM   17  C   UNL     1      -9.726   5.432  70.115  1.00  0.00    -0.252 A  
HETATM   18  C   UNL     1      -9.620   4.702  71.300  1.00  0.00    -0.238 A  
HETATM   19  C   UNL     1      -8.422   4.706  72.015  1.00  0.00    -0.118 A  
HETATM   20  C   UNL     1      -7.329   5.434  71.550  1.00  0.00    -0.085 A  
HETATM   21 CL   UNL     1      -8.298   3.827  73.488  1.00  0.00    -0.087 Cl 
HETATM   22  C   UNL     1      -7.435   6.173  70.367  1.00  0.00    -0.090 A  
ENDBRANCH  14  16
ENDBRANCH  11  14
ENDBRANCH   3   8
TORSDOF 3
ENDMDL
MODEL      151
REMARK 921   NORMALIZED FREE ENERGY PREDICTED BY IDOCK:   -2.52 KCAL/MOL
REMARK 922        TOTAL FREE ENERGY PREDICTED BY IDOCK:   -3.59 KCAL/MOL
REMARK 923 INTER-LIGAND FREE ENERGY PREDICTED BY IDOCK:   -3.41 KCAL/MOL
REMARK 924 INTRA-LIGAND FREE ENERGY PREDICTED BY IDOCK:   -0.17 KCAL/MOL
REMARK 927      BINDING AFFINITY PREDICTED BY RF-SCORE:    0.00 PKD
ROOT
HETATM    1  C   UNL     1      -6.531  14.521  70.157  1.00  0.00    -0.156 C  
HETATM    2  C   UNL     1      -6.974  14.958  68.760  1.00  0.00    -0.109 C  
HETATM    3  O   UNL     1      -8.345  14.558  68.530  1.00  0.00    -0.149 OA 
HETATM    4  C   UNL     1      -7.024  16.504  68.765  1.00  0.00    -0.180 C  
HETATM    5  C   UNL     1      -5.978  14.575  67.658  1.00  0.00    -0.044 C  
HETATM    6  O   UNL     1      -8.230  17.008  68.398  1.00  0.00    -0.230 OA 
HETATM    7  O   UNL     1      -6.081  17.232  69.047  1.00  0.00    -0.178 OA 
ENDROOT
BRANCH   3   8
HETATM    8  C   UNL     1      -8.665  13.386  67.915  1.00  0.00    -0.187 A  
HETATM    9  C   UNL     1      -8.836  13.196  66.547  1.00  0.00     0.005 A  
HETATM   10  C   UNL     1      -9.232  11.946  66.058  1.00  0.00    -0.176 A  
HETATM   11  C   UNL     1      -9.434  10.875  66.935  1.00  0.00    -0.198 A  
HETATM   12  C   UNL     1      -8.781  12.291  68.778  1.00  0.00     0.134 A  
HETATM   13  C   UNL     1      -9.156  11.037  68.293  1.00  0.00    -0.158 A  
BRANCH  11  14
HETATM   14  C   UNL     1      -9.930   9.590  66.384  1.00  0.00    -0.269 C  
HETATM   15  O   UNL     1     -10.492   9.594  65.291  1.00  0.00     0.160 OA 
BRANCH  14  16
HETATM   16  C   UNL     1      -9.806   8.310  67.136  1.00  0.00    -0.281 A  
HETATM   17  C   UNL     1     -10.803   7.339  66.964  1.00  0.00    -0.350 A  
HETATM   18  C   UNL     1     -10.754   6.143  67.682  1.00  0.00    -0.388 A  
HETATM   19  C   UNL     1      -9.712   5.914  68.580  1.00  0.00    -0.127 A  
HETATM   20  C   UNL     1      -8.718   6.872  68.763  1.00  0.00    -0.129 A  
HETATM   21 CL   UNL     1      -9.663   4.451  69.484  1.00  0.00    -0.275 Cl 
HETATM   22  C   UNL     1      -8.769   8.075  68.052  1.00  0.00    -0.125 A  
ENDBRANCH  14  16
ENDBRANCH  11  14
ENDBRANCH   3   8
TORSDOF 3
ENDMDL
MODEL      152
REMARK 921   NORMALIZED FREE ENERGY PREDICTED BY IDOCK:   -2.27 KCAL/MOL
REMARK 922        TOTAL FREE ENERGY PREDICTED BY IDOCK:   -3.28 KCAL/MOL
REMARK 923 INTER-LIGAND FREE ENERGY PREDICTED BY IDOCK:   -2.43 KCAL/MOL
REMARK 924 INTRA-LIGAND FREE ENERGY PREDICTED BY IDOCK:   -0.86 KCAL/MOL
REMARK 927      BINDING AFFINITY PREDICTED BY RF-SCORE:    0.00 PKD
ROOT
HETATM    1  C   UNL     1      -8.518   2.523  64.785  1.00  0.00    -0.091 C  
HETATM    2  C   UNL     1      -9.293   3.833  64.642  1.00  0.00    -0.153 C  
HETATM    3  O   UNL     1      -8.404   4.888  64.205  1.00  0.00    -0.119 OA 
HETATM    4  C   UNL     1     -10.277   3.649  63.463  1.00  0.00    -0.210 C  
HETATM    5  C   UNL     1     -10.162   4.162  65.864  1.00  0.00    -0.124 C  
HETATM    6  O   UNL     1     -10.142   4.591  62.494  1.00  0.00    -0.079 OA 
HETATM    7  O   UNL     1     -11.120   2.765  63.388  1.00  0.00    -0.269 OA 
ENDROOT
BRANCH   3   8
HETATM    8  C   UNL     1      -7.784   5.724  65.082  1.00  0.00    -0.095 A  
HETATM    9  C   UNL     1      -6.644   5.436  65.826  1.00  0.00    -0.044 A  
HETATM   10  C   UNL     1      -6.151   6.371  66.743  1.00  0.00    -0.029 A  
HETATM   11  C   UNL     1      -6.785   7.608  66.901  1.00  0.00    -0.067 A  
HETATM   12  C   UNL     1      -8.360   6.995  65.177  1.00  0.00    -0.078 A  
HETATM   13  C   UNL     1      -7.861   7.940  66.075  1.00  0.00    -0.095 A  
BRANCH  11  14
HETATM   14  C   UNL     1      -6.278   8.538  67.940  1.00  0.00    -0.056 C  
HETATM   15  O   UNL     1      -5.370   9.312  67.647  1.00  0.00    -0.037 OA 
BRANCH  14  16
HETATM   16  C   UNL     1      -6.807   8.527  69.333  1.00  0.00    -0.046 A  
HETATM   17  C   UNL     1      -6.099   7.806  70.306  1.00  0.00    -0.030 A  
HETATM   18  C   UNL     1      -6.580   7.729  71.614  1.00  0.00    -0.042 A  
HETATM   19  C   UNL     1      -7.773   8.366  71.955  1.00  0.00    -0.123 A  
HETATM   20  C   UNL     1      -8.486   9.082  70.996  1.00  0.00    -0.254 A  
HETATM   21 CL   UNL     1      -8.379   8.252  73.560  1.00  0.00    -0.284 Cl 
HETATM   22  C   UNL     1      -8.012   9.154  69.683  1.00  0.00    -0.103 A  
ENDBRANCH  14  16
ENDBRANCH  11  14
ENDBRANCH   3   8
TORSDOF 3
ENDMDL
MODEL      153
REMARK 921   NORMALIZED FREE ENERGY PREDICTED BY IDOCK:   -1.86 KCAL/MOL
REMARK 922        TOTAL FREE ENERGY PREDICTED BY IDOCK:   -2.81 KCAL/MOL
REMARK 923 INTER-LIGAND FREE ENERGY PREDICTED BY IDOCK:   -2.53 KCAL/MOL
REMARK 924 INTRA-LIGAND FREE ENERGY PREDICTED BY IDOCK:   -0.28 KCAL/MOL
REMARK 927      BINDING AFFINITY PREDICTED BY RF-SCORE:    0.00 PKD
ROOT
HETATM    1  C   UNL     1      -8.529   2.490  64.752  1.00  0.00    -0.091 C  
HETATM    2  C   UNL     1      -9.442   3.700  64.554  1.00  0.00    -0.157 C  
HETATM    3  O   UNL     1      -8.651   4.869  64.235  1.00  0.00    -0.137 OA 
HETATM    4  C   UNL     1     -10.269   3.438  63.272  1.00  0.00    -0.190 C  
HETATM    5  C   UNL     1     -10.466   3.882  65.682  1.00  0.00     0.218 C  
HETATM    6  O   UNL     1     -10.152   4.421  62.342  1.00  0.00    -0.139 OA 
HETATM    7  O   UNL     1     -10.983   2.461  63.091  1.00  0.00    -0.226 OA 
ENDROOT
BRANCH   3   8
HETATM    8  C   UNL     1      -8.233   5.745  65.190  1.00  0.00    -0.140 A  
HETATM    9  C   UNL     1      -8.136   5.489  66.554  1.00  0.00    -0.105 A  
HETATM   10  C   UNL     1      -7.753   6.508  67.432  1.00  0.00    -0.101 A  
HETATM   11  C   UNL     1      -7.441   7.782  66.944  1.00  0.00    -0.094 A  
HETATM   12  C   UNL     1      -7.834   6.992  64.697  1.00  0.00    -0.123 A  
HETATM   13  C   UNL     1      -7.431   8.007  65.566  1.00  0.00    -0.081 A  
BRANCH  11  14
HETATM   14  C   UNL     1      -7.117   8.855  67.916  1.00  0.00    -0.079 C  
HETATM   15  O   UNL     1      -6.505   8.559  68.939  1.00  0.00    -0.047 OA 
BRANCH  14  16
HETATM   16  C   UNL     1      -7.551  10.265  67.707  1.00  0.00    -0.089 A  
HETATM   17  C   UNL     1      -8.925  10.546  67.723  1.00  0.00    -0.132 A  
HETATM   18  C   UNL     1      -9.381  11.844  67.487  1.00  0.00    -0.177 A  
HETATM   19  C   UNL     1      -8.468  12.866  67.228  1.00  0.00    -0.197 A  
HETATM   20  C   UNL     1      -7.101  12.598  67.206  1.00  0.00    -0.101 A  
HETATM   21 CL   UNL     1      -9.029  14.460  66.913  1.00  0.00    -0.258 Cl 
HETATM   22  C   UNL     1      -6.641  11.297  67.433  1.00  0.00    -0.081 A  
ENDBRANCH  14  16
ENDBRANCH  11  14
ENDBRANCH   3   8
TORSDOF 3
ENDMDL
MODEL      154
REMARK 921   NORMALIZED FREE ENERGY PREDICTED BY IDOCK:   -0.92 KCAL/MOL
REMARK 922        TOTAL FREE ENERGY PREDICTED BY IDOCK:   -1.70 KCAL/MOL
REMARK 923 INTER-LIGAND FREE ENERGY PREDICTED BY IDOCK:   -1.09 KCAL/MOL
REMARK 924 INTRA-LIGAND FREE ENERGY PREDICTED BY IDOCK:   -0.61 KCAL/MOL
REMARK 927      BINDING AFFINITY PREDICTED BY RF-SCORE:    0.00 PKD
ROOT
HETATM    1  C   UNL     1      -6.623  14.321  70.746  1.00  0.00     0.209 C  
HETATM    2  C   UNL     1      -6.725  14.825  69.306  1.00  0.00    -0.137 C  
HETATM    3  O   UNL     1      -7.999  14.440  68.738  1.00  0.00    -0.138 OA 
HETATM    4  C   UNL     1      -6.788  16.370  69.372  1.00  0.00    -0.217 C  
HETATM    5  C   UNL     1      -5.492  14.492  68.456  1.00  0.00    -0.099 C  
HETATM    6  O   UNL     1      -7.877  16.894  68.752  1.00  0.00    -0.233 OA 
HETATM    7  O   UNL     1      -5.946  17.080  69.903  1.00  0.00    -0.223 OA 
ENDROOT
BRANCH   3   8
HETATM    8  C   UNL     1      -8.154  13.299  68.010  1.00  0.00    -0.157 A  
HETATM    9  C   UNL     1      -7.814  13.126  66.672  1.00  0.00     0.561 A  
HETATM   10  C   UNL     1      -8.092  11.914  66.031  1.00  0.00     0.406 A  
HETATM   11  C   UNL     1      -8.689  10.863  66.734  1.00  0.00    -0.147 A  
HETATM   12  C   UNL     1      -8.668  12.217  68.732  1.00  0.00     0.134 A  
HETATM   13  C   UNL     1      -8.928  10.999  68.103  1.00  0.00    -0.152 A  
BRANCH  11  14
HETATM   14  C   UNL     1      -9.039   9.624  65.996  1.00  0.00    -0.171 C  
HETATM   15  O   UNL     1     -10.094   9.590  65.367  1.00  0.00    -0.218 OA 
BRANCH  14  16
HETATM   16  C   UNL     1      -8.173   8.412  66.036  1.00  0.00    -0.112 A  
HETATM   17  C   UNL     1      -7.094   8.337  65.143  1.00  0.00    -0.075 A  
HETATM   18  C   UNL     1      -6.282   7.202  65.111  1.00  0.00    -0.037 A  
HETATM   19  C   UNL     1      -6.548   6.134  65.968  1.00  0.00    -0.048 A  
HETATM   20  C   UNL     1      -7.618   6.195  66.858  1.00  0.00    -0.099 A  
HETATM   21 CL   UNL     1      -5.564   4.725  65.914  1.00  0.00    -0.017 Cl 
HETATM   22  C   UNL     1      -8.439   7.328  66.885  1.00  0.00    -0.119 A  
ENDBRANCH  14  16
ENDBRANCH  11  14
ENDBRANCH   3   8
TORSDOF 3
ENDMDL
MODEL      155
REMARK 921   NORMALIZED FREE ENERGY PREDICTED BY IDOCK:   -0.18 KCAL/MOL
REMARK 922        TOTAL FREE ENERGY PREDICTED BY IDOCK:   -0.83 KCAL/MOL
REMARK 923 INTER-LIGAND FREE ENERGY PREDICTED BY IDOCK:   -1.08 KCAL/MOL
REMARK 924 INTRA-LIGAND FREE ENERGY PREDICTED BY IDOCK:    0.25 KCAL/MOL
REMARK 927      BINDING AFFINITY PREDICTED BY RF-SCORE:    0.00 PKD
ROOT
HETATM    1  C   UNL     1      -8.384   7.144  69.905  1.00  0.00    -0.135 C  
HETATM    2  C   UNL     1      -7.872   8.392  70.626  1.00  0.00    -0.092 C  
HETATM    3  O   UNL     1      -8.964   9.313  70.856  1.00  0.00    -0.235 OA 
HETATM    4  C   UNL     1      -7.442   7.948  72.045  1.00  0.00    -0.082 C  
HETATM    5  C   UNL     1      -6.619   8.998  69.979  1.00  0.00    -0.043 C  
HETATM    6  O   UNL     1      -8.055   8.642  73.038  1.00  0.00    -0.394 OA 
HETATM    7  O   UNL     1      -6.617   7.076  72.283  1.00  0.00    -0.056 OA 
ENDROOT
BRANCH   3   8
HETATM    8  C   UNL     1      -9.254  10.324  69.992  1.00  0.00     0.130 A  
HETATM    9  C   UNL     1     -10.524  10.703  69.567  1.00  0.00    -0.236 A  
HETATM   10  C   UNL     1     -10.671  11.722  68.620  1.00  0.00    -0.252 A  
HETATM   11  C   UNL     1      -9.546  12.383  68.113  1.00  0.00    -0.218 A  
HETATM   12  C   UNL     1      -8.141  11.046  69.551  1.00  0.00     0.179 A  
HETATM   13  C   UNL     1      -8.282  12.078  68.621  1.00  0.00    -0.052 A  
BRANCH  11  14
HETATM   14  C   UNL     1      -9.740  13.402  67.053  1.00  0.00    -0.239 C  
HETATM   15  O   UNL     1      -9.494  13.097  65.888  1.00  0.00    -0.160 OA 
BRANCH  14  16
HETATM   16  C   UNL     1     -10.179  14.791  67.366  1.00  0.00    -0.236 A  
HETATM   17  C   UNL     1      -9.209  15.719  67.773  1.00  0.00    -0.197 A  
HETATM   18  C   UNL     1      -9.578  17.019  68.120  1.00  0.00    -0.266 A  
HETATM   19  C   UNL     1     -10.920  17.398  68.069  1.00  0.00    -0.164 A  
HETATM   20  C   UNL     1     -11.893  16.484  67.670  1.00  0.00     0.741 A  
HETATM   21 CL   UNL     1     -11.380  18.992  68.521  1.00  0.00     1.210 Cl 
HETATM   22  C   UNL     1     -11.527  15.178  67.330  1.00  0.00    -0.284 A  
ENDBRANCH  14  16
ENDBRANCH  11  14
ENDBRANCH   3   8
TORSDOF 3
ENDMDL
MODEL      156
REMARK 921   NORMALIZED FREE ENERGY PREDICTED BY IDOCK:    1.12 KCAL/MOL
REMARK 922        TOTAL FREE ENERGY PREDICTED BY IDOCK:    0.70 KCAL/MOL
REMARK 923 INTER-LIGAND FREE ENERGY PREDICTED BY IDOCK:    1.47 KCAL/MOL
REMARK 924 INTRA-LIGAND FREE ENERGY PREDICTED BY IDOCK:   -0.77 KCAL/MOL
REMARK 927      BINDING AFFINITY PREDICTED BY RF-SCORE:    0.00 PKD
ROOT
HETATM    1  C   UNL     1     -11.337  16.708  72.166  1.00  0.00     0.311 C  
HETATM    2  C   UNL     1     -12.212  15.496  71.845  1.00  0.00    -0.401 C  
HETATM    3  O   UNL     1     -11.393  14.307  71.746  1.00  0.00     0.444 OA 
HETATM    4  C   UNL     1     -13.104  15.242  73.083  1.00  0.00    -0.518 C  
HETATM    5  C   UNL     1     -13.177  15.734  70.676  1.00  0.00     0.067 C  
HETATM    6  O   UNL     1     -12.993  13.984  73.582  1.00  0.00    -0.287 OA 
HETATM    7  O   UNL     1     -13.862  16.066  73.578  1.00  0.00    -0.420 OA 
ENDROOT
BRANCH   3   8
HETATM    8  C   UNL     1     -10.900  13.863  70.557  1.00  0.00     1.025 A  
HETATM    9  C   UNL     1     -10.007  14.541  69.733  1.00  0.00     0.308 A  
HETATM   10  C   UNL     1      -9.635  13.990  68.502  1.00  0.00    -0.201 A  
HETATM   11  C   UNL     1     -10.137  12.747  68.102  1.00  0.00    -0.239 A  
HETATM   12  C   UNL     1     -11.328  12.582  70.196  1.00  0.00     0.170 A  
HETATM   13  C   UNL     1     -10.944  12.018  68.978  1.00  0.00    -0.260 A  
BRANCH  11  14
HETATM   14  C   UNL     1      -9.781  12.237  66.756  1.00  0.00    -0.213 C  
HETATM   15  O   UNL     1      -8.597  12.031  66.497  1.00  0.00    -0.177 OA 
BRANCH  14  16
HETATM   16  C   UNL     1     -10.809  12.012  65.700  1.00  0.00    -0.325 A  
HETATM   17  C   UNL     1     -10.468  11.211  64.601  1.00  0.00    -0.400 A  
HETATM   18  C   UNL     1     -11.382  11.009  63.566  1.00  0.00     0.385 A  
HETATM   19  C   UNL     1     -12.638  11.612  63.620  1.00  0.00    -0.196 A  
HETATM   20  C   UNL     1     -12.987  12.413  64.705  1.00  0.00     0.000 A  
HETATM   21 CL   UNL     1     -13.757  11.385  62.334  1.00  0.00     2.880 Cl 
HETATM   22  C   UNL     1     -12.070  12.625  65.740  1.00  0.00    -0.484 A  
ENDBRANCH  14  16
ENDBRANCH  11  14
ENDBRANCH   3   8
TORSDOF 3
ENDMDL
MODEL      157
REMARK 921   NORMALIZED FREE ENERGY PREDICTED BY IDOCK:    2.25 KCAL/MOL
REMARK 922        TOTAL FREE ENERGY PREDICTED BY IDOCK:    2.02 KCAL/MOL
REMARK 923 INTER-LIGAND FREE ENERGY PREDICTED BY IDOCK:    1.83 KCAL/MOL
REMARK 924 INTRA-LIGAND FREE ENERGY PREDICTED BY IDOCK:    0.18 KCAL/MOL
REMARK 927      BINDING AFFINITY PREDICTED BY RF-SCORE:    0.00 PKD
ROOT
HETATM    1  C   UNL     1     -13.800  16.264  72.977  1.00  0.00    -0.022 C  
HETATM    2  C   UNL     1     -13.171  15.402  71.882  1.00  0.00    -0.444 C  
HETATM    3  O   UNL     1     -11.751  15.669  71.798  1.00  0.00    -0.369 OA 
HETATM    4  C   UNL     1     -13.256  13.933  72.358  1.00  0.00    -0.488 C  
HETATM    5  C   UNL     1     -13.934  15.456  70.552  1.00  0.00     0.395 C  
HETATM    6  O   UNL     1     -12.053  13.303  72.387  1.00  0.00     0.737 OA 
HETATM    7  O   UNL     1     -14.291  13.358  72.666  1.00  0.00    -0.709 OA 
ENDROOT
BRANCH   3   8
HETATM    8  C   UNL     1     -11.234  16.583  70.931  1.00  0.00    -0.001 A  
HETATM    9  C   UNL     1     -10.926  16.361  69.592  1.00  0.00    -0.329 A  
HETATM   10  C   UNL     1     -10.335  17.377  68.832  1.00  0.00    -0.340 A  
HETATM   11  C   UNL     1     -10.072  18.626  69.405  1.00  0.00     0.083 A  
HETATM   12  C   UNL     1     -11.052  17.858  71.474  1.00  0.00     2.674 A  
HETATM   13  C   UNL     1     -10.482  18.882  70.715  1.00  0.00     2.225 A  
BRANCH  11  14
HETATM   14  C   UNL     1      -9.372  19.648  68.589  1.00  0.00    -0.321 C  
HETATM   15  O   UNL     1      -9.672  20.830  68.739  1.00  0.00     0.395 OA 
BRANCH  14  16
HETATM   16  C   UNL     1      -8.355  19.277  67.565  1.00  0.00    -0.322 A  
HETATM   17  C   UNL     1      -8.030  17.922  67.411  1.00  0.00    -0.221 A  
HETATM   18  C   UNL     1      -7.051  17.530  66.497  1.00  0.00    -0.289 A  
HETATM   19  C   UNL     1      -6.386  18.492  65.736  1.00  0.00    -0.256 A  
HETATM   20  C   UNL     1      -6.697  19.842  65.883  1.00  0.00    -0.274 A  
HETATM   21 CL   UNL     1      -5.162  18.014  64.627  1.00  0.00     0.044 Cl 
HETATM   22  C   UNL     1      -7.672  20.238  66.804  1.00  0.00    -0.333 A  
ENDBRANCH  14  16
ENDBRANCH  11  14
ENDBRANCH   3   8
TORSDOF 3
ENDMDL
MODEL      158
REMARK 921   NORMALIZED FREE ENERGY PREDICTED BY IDOCK:    9.13 KCAL/MOL
REMARK 922        TOTAL FREE ENERGY PREDICTED BY IDOCK:   10.11 KCAL/MOL
REMARK 923 INTER-LIGAND FREE ENERGY PREDICTED BY IDOCK:   10.08 KCAL/MOL
REMARK 924 INTRA-LIGAND FREE ENERGY PREDICTED BY IDOCK:    0.03 KCAL/MOL
REMARK 927      BINDING AFFINITY PREDICTED BY RF-SCORE:    0.00 PKD
ROOT
HETATM    1  C   UNL     1      -7.588  12.858  71.771  1.00  0.00     9.580 C  
HETATM    2  C   UNL     1      -7.032  13.019  70.357  1.00  0.00     1.373 C  
HETATM    3  O   UNL     1      -7.848  12.280  69.418  1.00  0.00     0.351 OA 
HETATM    4  C   UNL     1      -7.237  14.499  69.957  1.00  0.00     0.125 C  
HETATM    5  C   UNL     1      -5.521  12.766  70.264  1.00  0.00    -0.138 C  
HETATM    6  O   UNL     1      -7.937  14.657  68.804  1.00  0.00    -0.141 OA 
HETATM    7  O   UNL     1      -6.807  15.458  70.585  1.00  0.00     0.264 OA 
ENDROOT
BRANCH   3   8
HETATM    8  C   UNL     1      -7.549  11.005  69.044  1.00  0.00    -0.134 A  
HETATM    9  C   UNL     1      -6.396  10.300  69.375  1.00  0.00    -0.050 A  
HETATM   10  C   UNL     1      -6.190   9.014  68.864  1.00  0.00    -0.044 A  
HETATM   11  C   UNL     1      -7.150   8.420  68.037  1.00  0.00    -0.086 A  
HETATM   12  C   UNL     1      -8.546  10.374  68.292  1.00  0.00    -0.128 A  
HETATM   13  C   UNL     1      -8.355   9.083  67.796  1.00  0.00    -0.117 A  
BRANCH  11  14
HETATM   14  C   UNL     1      -6.857   7.089  67.452  1.00  0.00    -0.073 C  
HETATM   15  O   UNL     1      -6.043   7.013  66.535  1.00  0.00    -0.033 OA 
BRANCH  14  16
HETATM   16  C   UNL     1      -7.553   5.854  67.914  1.00  0.00    -0.086 A  
HETATM   17  C   UNL     1      -7.522   4.725  67.083  1.00  0.00    -0.086 A  
HETATM   18  C   UNL     1      -8.197   3.560  67.452  1.00  0.00    -0.090 A  
HETATM   19  C   UNL     1      -8.912   3.521  68.650  1.00  0.00    -0.130 A  
HETATM   20  C   UNL     1      -8.953   4.638  69.481  1.00  0.00    -0.137 A  
HETATM   21 CL   UNL     1      -9.765   2.095  69.094  1.00  0.00    -0.040 Cl 
HETATM   22  C   UNL     1      -8.284   5.809  69.110  1.00  0.00    -0.101 A  
ENDBRANCH  14  16
ENDBRANCH  11  14
ENDBRANCH   3   8
TORSDOF 3
ENDMDL
MODEL      159
REMARK 921   NORMALIZED FREE ENERGY PREDICTED BY IDOCK:   19.23 KCAL/MOL
REMARK 922        TOTAL FREE ENERGY PREDICTED BY IDOCK:   21.98 KCAL/MOL
REMARK 923 INTER-LIGAND FREE ENERGY PREDICTED BY IDOCK:   22.00 KCAL/MOL
REMARK 924 INTRA-LIGAND FREE ENERGY PREDICTED BY IDOCK:   -0.02 KCAL/MOL
REMARK 927      BINDING AFFINITY PREDICTED BY RF-SCORE:    0.00 PKD
ROOT
HETATM    1  C   UNL     1     -10.066  17.339  74.008  1.00  0.00     9.095 C  
HETATM    2  C   UNL     1     -11.409  17.438  73.284  1.00  0.00     1.439 C  
HETATM    3  O   UNL     1     -12.043  16.138  73.241  1.00  0.00    -0.477 OA 
HETATM    4  C   UNL     1     -12.343  18.288  74.177  1.00  0.00     2.960 C  
HETATM    5  C   UNL     1     -11.324  18.178  71.943  1.00  0.00     3.465 C  
HETATM    6  O   UNL     1     -13.505  17.661  74.497  1.00  0.00     2.042 OA 
HETATM    7  O   UNL     1     -12.098  19.424  74.560  1.00  0.00     4.766 OA 
ENDROOT
BRANCH   3   8
HETATM    8  C   UNL     1     -11.898  15.294  72.181  1.00  0.00    -0.439 A  
HETATM    9  C   UNL     1     -10.785  15.201  71.352  1.00  0.00     0.212 A  
HETATM   10  C   UNL     1     -10.800  14.332  70.255  1.00  0.00     0.274 A  
HETATM   11  C   UNL     1     -11.922  13.536  69.999  1.00  0.00    -0.410 A  
HETATM   12  C   UNL     1     -12.981  14.433  71.975  1.00  0.00    -0.432 A  
HETATM   13  C   UNL     1     -12.993  13.550  70.894  1.00  0.00    -0.224 A  
BRANCH  11  14
HETATM   14  C   UNL     1     -11.927  12.689  68.781  1.00  0.00    -0.237 C  
HETATM   15  O   UNL     1     -12.000  11.469  68.912  1.00  0.00    -0.333 OA 
BRANCH  14  16
HETATM   16  C   UNL     1     -11.802  13.271  67.415  1.00  0.00    -0.413 A  
HETATM   17  C   UNL     1     -10.757  14.174  67.171  1.00  0.00    -0.280 A  
HETATM   18  C   UNL     1     -10.627  14.780  65.921  1.00  0.00    -0.322 A  
HETATM   19  C   UNL     1     -11.543  14.491  64.910  1.00  0.00    -0.401 A  
HETATM   20  C   UNL     1     -12.587  13.599  65.141  1.00  0.00    -0.474 A  
HETATM   21 CL   UNL     1     -11.399  15.255  63.376  1.00  0.00     1.740 Cl 
HETATM   22  C   UNL     1     -12.726  12.997  66.396  1.00  0.00     0.451 A  
ENDBRANCH  14  16
ENDBRANCH  11  14
ENDBRANCH   3   8
TORSDOF 3
ENDMDL
MODEL      160
REMARK 921   NORMALIZED FREE ENERGY PREDICTED BY IDOCK:   19.40 KCAL/MOL
REMARK 922        TOTAL FREE ENERGY PREDICTED BY IDOCK:   22.18 KCAL/MOL
REMARK 923 INTER-LIGAND FREE ENERGY PREDICTED BY IDOCK:   21.64 KCAL/MOL
REMARK 924 INTRA-LIGAND FREE ENERGY PREDICTED BY IDOCK:    0.53 KCAL/MOL
REMARK 927      BINDING AFFINITY PREDICTED BY RF-SCORE:    0.00 PKD
ROOT
HETATM    1  C   UNL     1     -10.070  17.347  74.006  1.00  0.00     8.681 C  
HETATM    2  C   UNL     1     -11.420  17.503  73.306  1.00  0.00     1.279 C  
HETATM    3  O   UNL     1     -12.123  16.238  73.302  1.00  0.00    -0.489 OA 
HETATM    4  C   UNL     1     -12.289  18.419  74.200  1.00  0.00     3.434 C  
HETATM    5  C   UNL     1     -11.324  18.212  71.949  1.00  0.00     3.465 C  
HETATM    6  O   UNL     1     -13.476  17.862  74.554  1.00  0.00     2.678 OA 
HETATM    7  O   UNL     1     -11.977  19.548  74.554  1.00  0.00     5.210 OA 
ENDROOT
BRANCH   3   8
HETATM    8  C   UNL     1     -12.044  15.368  72.258  1.00  0.00    -0.411 A  
HETATM    9  C   UNL     1     -13.030  14.469  71.861  1.00  0.00    -0.415 A  
HETATM   10  C   UNL     1     -12.786  13.583  70.806  1.00  0.00    -0.243 A  
HETATM   11  C   UNL     1     -11.563  13.611  70.128  1.00  0.00    -0.208 A  
HETATM   12  C   UNL     1     -10.859  15.453  71.521  1.00  0.00     0.008 A  
HETATM   13  C   UNL     1     -10.618  14.586  70.454  1.00  0.00     0.377 A  
BRANCH  11  14
HETATM   14  C   UNL     1     -11.315  12.603  69.068  1.00  0.00    -0.292 C  
HETATM   15  O   UNL     1     -11.136  12.989  67.916  1.00  0.00    -0.237 OA 
BRANCH  14  16
HETATM   16  C   UNL     1     -11.324  11.140  69.355  1.00  0.00    -0.352 A  
HETATM   17  C   UNL     1     -12.417  10.607  70.053  1.00  0.00    -0.294 A  
HETATM   18  C   UNL     1     -12.449   9.251  70.384  1.00  0.00     0.266 A  
HETATM   19  C   UNL     1     -11.385   8.423  70.024  1.00  0.00    -0.001 A  
HETATM   20  C   UNL     1     -10.292   8.942  69.334  1.00  0.00    -0.217 A  
HETATM   21 CL   UNL     1     -11.411   6.758  70.453  1.00  0.00    -0.371 Cl 
HETATM   22  C   UNL     1     -10.254  10.302  69.009  1.00  0.00    -0.225 A  
ENDBRANCH  14  16
ENDBRANCH  11  14
ENDBRANCH   3   8
TORSDOF 3
ENDMDL
MODEL      161
REMARK 921   NORMALIZED FREE ENERGY PREDICTED BY IDOCK:   20.11 KCAL/MOL
REMARK 922        TOTAL FREE ENERGY PREDICTED BY IDOCK:   23.01 KCAL/MOL
REMARK 923 INTER-LIGAND FREE ENERGY PREDICTED BY IDOCK:   22.16 KCAL/MOL
REMARK 924 INTRA-LIGAND FREE ENERGY PREDICTED BY IDOCK:    0.85 KCAL/MOL
REMARK 927      BINDING AFFINITY PREDICTED BY RF-SCORE:    0.00 PKD
ROOT
HETATM    1  C   UNL     1     -10.070  17.347  74.006  1.00  0.00     8.681 C  
HETATM    2  C   UNL     1     -11.423  17.490  73.309  1.00  0.00     1.279 C  
HETATM    3  O   UNL     1     -12.116  16.219  73.310  1.00  0.00    -0.489 OA 
HETATM    4  C   UNL     1     -12.298  18.402  74.203  1.00  0.00     3.434 C  
HETATM    5  C   UNL     1     -11.336  18.196  71.949  1.00  0.00     3.465 C  
HETATM    6  O   UNL     1     -13.479  17.835  74.562  1.00  0.00     2.337 OA 
HETATM    7  O   UNL     1     -11.994  19.534  74.553  1.00  0.00     5.210 OA 
ENDROOT
BRANCH   3   8
HETATM    8  C   UNL     1     -12.032  15.347  72.268  1.00  0.00    -0.438 A  
HETATM    9  C   UNL     1     -12.089  13.959  72.351  1.00  0.00     0.446 A  
HETATM   10  C   UNL     1     -11.923  13.181  71.200  1.00  0.00     0.225 A  
HETATM   11  C   UNL     1     -11.723  13.791  69.957  1.00  0.00    -0.327 A  
HETATM   12  C   UNL     1     -11.923  15.954  71.013  1.00  0.00    -0.453 A  
HETATM   13  C   UNL     1     -11.776  15.183  69.858  1.00  0.00    -0.346 A  
BRANCH  11  14
HETATM   14  C   UNL     1     -11.471  12.930  68.776  1.00  0.00    -0.303 C  
HETATM   15  O   UNL     1     -12.273  12.955  67.846  1.00  0.00    -0.234 OA 
BRANCH  14  16
HETATM   16  C   UNL     1     -10.303  12.007  68.708  1.00  0.00    -0.181 A  
HETATM   17  C   UNL     1     -10.078  11.141  69.788  1.00  0.00     0.413 A  
HETATM   18  C   UNL     1      -8.971  10.290  69.790  1.00  0.00    -0.079 A  
HETATM   19  C   UNL     1      -8.081  10.305  68.716  1.00  0.00    -0.120 A  
HETATM   20  C   UNL     1      -8.292  11.164  67.640  1.00  0.00    -0.122 A  
HETATM   21 CL   UNL     1      -6.703   9.276  68.728  1.00  0.00    -0.053 Cl 
HETATM   22  C   UNL     1      -9.395  12.024  67.640  1.00  0.00    -0.185 A  
ENDBRANCH  14  16
ENDBRANCH  11  14
ENDBRANCH   3   8
TORSDOF 3
ENDMDL
