MODEL        1
REMARK 921   NORMALIZED FREE ENERGY PREDICTED BY IDOCK:   -7.29 KCAL/MOL
REMARK 922        TOTAL FREE ENERGY PREDICTED BY IDOCK:  -10.46 KCAL/MOL
REMARK 923 INTER-LIGAND FREE ENERGY PREDICTED BY IDOCK:   -9.85 KCAL/MOL
REMARK 924 INTRA-LIGAND FREE ENERGY PREDICTED BY IDOCK:   -0.61 KCAL/MOL
REMARK 927      BINDING AFFINITY PREDICTED BY RF-SCORE:    0.00 PKD
ROOT
HETATM    1  C   UNL     1     -12.236  12.112  70.603  1.00  0.00    -0.392 C  
HETATM    2  C   UNL     1     -11.788  12.829  69.322  1.00  0.00    -0.303 C  
ENDROOT
BRANCH   2   3
HETATM    3  C   UNL     1     -12.314  14.289  69.373  1.00  0.00    -0.238 C  
BRANCH   3   4
HETATM    4  C   UNL     1     -12.566  14.829  70.762  1.00  0.00    -0.412 A  
HETATM    5  C   UNL     1     -11.703  15.583  72.904  1.00  0.00    -0.521 A  
HETATM    6  H   UNL     1     -12.417  16.572  75.132  1.00  0.00     0.000 HD 
HETATM    7  C   UNL     1     -13.866  15.113  71.203  1.00  0.00    -0.495 A  
HETATM    8  C   UNL     1     -11.488  15.063  71.628  1.00  0.00    -0.377 A  
HETATM    9  C   UNL     1     -14.083  15.633  72.482  1.00  0.00    -0.562 A  
HETATM   10  O   UNL     1     -13.159  16.407  74.562  1.00  0.00    -0.462 OA 
HETATM   11  C   UNL     1     -12.996  15.873  73.317  1.00  0.00    -0.570 A  
ENDBRANCH   3   4
ENDBRANCH   2   3
BRANCH   2  12
HETATM   12  N   UNL     1     -10.327  12.796  69.156  1.00  0.00    -0.426 NA 
HETATM   13  H   UNL     1     -10.042  11.943  68.675  1.00  0.00     0.000 HD 
BRANCH  12  14
HETATM   14  C   UNL     1      -9.769  13.974  68.482  1.00  0.00    -0.215 C  
BRANCH  14  15
HETATM   15  C   UNL     1      -9.261  13.643  67.055  1.00  0.00    -0.250 C  
HETATM   16  H   UNL     1      -8.537  12.069  66.107  1.00  0.00     0.000 HD 
HETATM   17  O   UNL     1      -8.847  12.272  66.981  1.00  0.00    -0.192 OA 
BRANCH  15  18
HETATM   18  C   UNL     1     -10.329  13.902  66.009  1.00  0.00    -0.310 A  
HETATM   19  O   UNL     1     -11.612  16.644  63.913  1.00  0.00    -1.582 OA 
HETATM   20  C   UNL     1     -11.462  15.417  64.489  1.00  0.00    -0.311 A  
HETATM   21  C   UNL     1     -10.451  15.170  65.420  1.00  0.00    -0.416 A  
HETATM   22  C   UNL     1     -12.355  14.420  64.117  1.00  0.00    -0.340 A  
HETATM   23  H   UNL     1     -12.299  16.812  63.279  1.00  0.00     0.000 HD 
HETATM   24  C   UNL     1     -12.233  13.162  64.692  1.00  0.00    -0.414 A  
HETATM   25  O   UNL     1     -13.082  12.145  64.372  1.00  0.00    -0.740 OA 
HETATM   26  C   UNL     1     -11.235  12.897  65.625  1.00  0.00    -0.325 A  
HETATM   27  H   UNL     1     -13.000  11.284  64.766  1.00  0.00     0.000 HD 
ENDBRANCH  15  18
ENDBRANCH  14  15
ENDBRANCH  12  14
ENDBRANCH   2  12
TORSDOF 6
ENDMDL
MODEL        2
REMARK 921   NORMALIZED FREE ENERGY PREDICTED BY IDOCK:   -7.23 KCAL/MOL
REMARK 922        TOTAL FREE ENERGY PREDICTED BY IDOCK:  -10.38 KCAL/MOL
REMARK 923 INTER-LIGAND FREE ENERGY PREDICTED BY IDOCK:   -9.71 KCAL/MOL
REMARK 924 INTRA-LIGAND FREE ENERGY PREDICTED BY IDOCK:   -0.67 KCAL/MOL
REMARK 927      BINDING AFFINITY PREDICTED BY RF-SCORE:    0.00 PKD
ROOT
HETATM    1  C   UNL     1     -12.124  12.076  70.476  1.00  0.00    -0.402 C  
HETATM    2  C   UNL     1     -11.648  12.686  69.150  1.00  0.00    -0.320 C  
ENDROOT
BRANCH   2   3
HETATM    3  C   UNL     1     -12.144  14.156  69.085  1.00  0.00    -0.362 C  
BRANCH   3   4
HETATM    4  C   UNL     1     -12.452  14.785  70.425  1.00  0.00    -0.405 A  
HETATM    5  C   UNL     1     -14.078  15.434  72.109  1.00  0.00    -0.651 A  
HETATM    6  H   UNL     1     -14.285  16.452  74.427  1.00  0.00     0.000 HD 
HETATM    7  C   UNL     1     -11.427  15.273  71.248  1.00  0.00    -0.431 A  
HETATM    8  C   UNL     1     -13.780  14.878  70.866  1.00  0.00    -0.266 A  
HETATM    9  C   UNL     1     -11.724  15.831  72.494  1.00  0.00    -0.566 A  
HETATM   10  O   UNL     1     -13.381  16.407  74.138  1.00  0.00    -0.506 OA 
HETATM   11  C   UNL     1     -13.048  15.897  72.918  1.00  0.00    -0.507 A  
ENDBRANCH   3   4
ENDBRANCH   2   3
BRANCH   2  12
HETATM   12  N   UNL     1     -10.186  12.611  69.003  1.00  0.00    -0.428 NA 
HETATM   13  H   UNL     1      -9.910  11.692  68.657  1.00  0.00     0.000 HD 
BRANCH  12  14
HETATM   14  C   UNL     1      -9.608  13.669  68.167  1.00  0.00    -0.221 C  
BRANCH  14  15
HETATM   15  C   UNL     1      -9.299  13.171  66.731  1.00  0.00    -0.244 C  
HETATM   16  H   UNL     1      -8.992  11.437  65.836  1.00  0.00     0.000 HD 
HETATM   17  O   UNL     1      -9.181  11.742  66.715  1.00  0.00    -0.182 OA 
BRANCH  15  18
HETATM   18  C   UNL     1     -10.374  13.597  65.749  1.00  0.00    -0.304 A  
HETATM   19  O   UNL     1     -13.155  12.155  63.813  1.00  0.00    -0.774 OA 
HETATM   20  C   UNL     1     -12.257  13.048  64.320  1.00  0.00    -0.396 A  
HETATM   21  C   UNL     1     -11.295  12.661  65.255  1.00  0.00    -0.350 A  
HETATM   22  C   UNL     1     -12.331  14.359  63.868  1.00  0.00    -0.119 A  
HETATM   23  H   UNL     1     -13.809  12.419  63.177  1.00  0.00     0.000 HD 
HETATM   24  C   UNL     1     -11.425  15.290  64.358  1.00  0.00    -0.239 A  
HETATM   25  O   UNL     1     -11.445  16.591  63.949  1.00  0.00    -1.608 OA 
HETATM   26  C   UNL     1     -10.458  14.923  65.288  1.00  0.00    -0.427 A  
HETATM   27  H   UNL     1     -10.824  17.228  64.284  1.00  0.00     0.000 HD 
ENDBRANCH  15  18
ENDBRANCH  14  15
ENDBRANCH  12  14
ENDBRANCH   2  12
TORSDOF 6
ENDMDL
MODEL        3
REMARK 921   NORMALIZED FREE ENERGY PREDICTED BY IDOCK:   -7.22 KCAL/MOL
REMARK 922        TOTAL FREE ENERGY PREDICTED BY IDOCK:  -10.36 KCAL/MOL
REMARK 923 INTER-LIGAND FREE ENERGY PREDICTED BY IDOCK:   -9.07 KCAL/MOL
REMARK 924 INTRA-LIGAND FREE ENERGY PREDICTED BY IDOCK:   -1.30 KCAL/MOL
REMARK 927      BINDING AFFINITY PREDICTED BY RF-SCORE:    0.00 PKD
ROOT
HETATM    1  C   UNL     1     -10.646  16.444  68.902  1.00  0.00    -0.307 C  
HETATM    2  C   UNL     1     -10.604  15.040  69.522  1.00  0.00    -0.254 C  
ENDROOT
BRANCH   2   3
HETATM    3  C   UNL     1     -11.871  14.269  69.065  1.00  0.00    -0.370 C  
BRANCH   3   4
HETATM    4  C   UNL     1     -12.232  13.072  69.915  1.00  0.00    -0.271 A  
HETATM    5  C   UNL     1     -12.212  10.668  70.265  1.00  0.00    -0.417 A  
HETATM    6  H   UNL     1     -12.858   8.867  71.935  1.00  0.00     0.000 HD 
HETATM    7  C   UNL     1     -12.882  13.231  71.147  1.00  0.00    -0.363 A  
HETATM    8  C   UNL     1     -11.907  11.779  69.480  1.00  0.00    -0.402 A  
HETATM    9  C   UNL     1     -13.190  12.117  71.935  1.00  0.00    -0.474 A  
HETATM   10  O   UNL     1     -13.096   9.735  72.238  1.00  0.00    -0.416 OA 
HETATM   11  C   UNL     1     -12.842  10.846  71.490  1.00  0.00    -0.454 A  
ENDBRANCH   3   4
ENDBRANCH   2   3
BRANCH   2  12
HETATM   12  N   UNL     1      -9.378  14.314  69.156  1.00  0.00    -0.403 NA 
HETATM   13  H   UNL     1      -9.535  13.307  69.197  1.00  0.00     0.000 HD 
BRANCH  12  14
HETATM   14  C   UNL     1      -8.819  14.693  67.853  1.00  0.00    -0.170 C  
BRANCH  14  15
HETATM   15  C   UNL     1      -9.004  13.575  66.794  1.00  0.00    -0.176 C  
HETATM   16  H   UNL     1      -9.283  11.620  66.787  1.00  0.00     0.000 HD 
HETATM   17  O   UNL     1      -9.169  12.304  67.436  1.00  0.00    -0.172 OA 
BRANCH  15  18
HETATM   18  C   UNL     1     -10.201  13.846  65.901  1.00  0.00    -0.326 A  
HETATM   19  O   UNL     1     -13.130  12.101  64.510  1.00  0.00    -0.720 OA 
HETATM   20  C   UNL     1     -12.215  13.073  64.789  1.00  0.00    -0.435 A  
HETATM   21  C   UNL     1     -11.137  12.833  65.644  1.00  0.00    -0.311 A  
HETATM   22  C   UNL     1     -12.391  14.312  64.187  1.00  0.00    -0.361 A  
HETATM   23  H   UNL     1     -13.863  12.265  63.928  1.00  0.00     0.000 HD 
HETATM   24  C   UNL     1     -11.470  15.320  64.444  1.00  0.00    -0.239 A  
HETATM   25  O   UNL     1     -11.587  16.555  63.879  1.00  0.00    -1.598 OA 
HETATM   26  C   UNL     1     -10.388  15.099  65.291  1.00  0.00    -0.425 A  
HETATM   27  H   UNL     1     -10.956  17.244  64.055  1.00  0.00     0.000 HD 
ENDBRANCH  15  18
ENDBRANCH  14  15
ENDBRANCH  12  14
ENDBRANCH   2  12
TORSDOF 6
ENDMDL
MODEL        4
REMARK 921   NORMALIZED FREE ENERGY PREDICTED BY IDOCK:   -7.21 KCAL/MOL
REMARK 922        TOTAL FREE ENERGY PREDICTED BY IDOCK:  -10.34 KCAL/MOL
REMARK 923 INTER-LIGAND FREE ENERGY PREDICTED BY IDOCK:   -9.39 KCAL/MOL
REMARK 924 INTRA-LIGAND FREE ENERGY PREDICTED BY IDOCK:   -0.95 KCAL/MOL
REMARK 927      BINDING AFFINITY PREDICTED BY RF-SCORE:    0.00 PKD
ROOT
HETATM    1  C   UNL     1     -11.975  16.110  72.531  1.00  0.00    -0.660 C  
HETATM    2  C   UNL     1     -11.505  15.262  71.341  1.00  0.00    -0.389 C  
ENDROOT
BRANCH   2   3
HETATM    3  C   UNL     1     -12.724  14.472  70.795  1.00  0.00    -0.425 C  
BRANCH   3   4
HETATM    4  C   UNL     1     -12.595  12.967  70.871  1.00  0.00    -0.364 A  
HETATM    5  C   UNL     1     -13.151  10.870  71.963  1.00  0.00    -0.462 A  
HETATM    6  H   UNL     1     -12.831   8.356  71.787  1.00  0.00     0.000 HD 
HETATM    7  C   UNL     1     -11.844  12.257  69.924  1.00  0.00    -0.383 A  
HETATM    8  C   UNL     1     -13.241  12.259  71.895  1.00  0.00    -0.481 A  
HETATM    9  C   UNL     1     -11.752  10.864  69.992  1.00  0.00    -0.427 A  
HETATM   10  O   UNL     1     -12.377   8.822  71.094  1.00  0.00    -0.288 OA 
HETATM   11  C   UNL     1     -12.416  10.182  71.007  1.00  0.00    -0.375 A  
ENDBRANCH   3   4
ENDBRANCH   2   3
BRANCH   2  12
HETATM   12  N   UNL     1     -10.890  16.086  70.289  1.00  0.00    -0.333 NA 
HETATM   13  H   UNL     1     -10.486  16.932  70.689  1.00  0.00     0.000 HD 
BRANCH  12  14
HETATM   14  C   UNL     1      -9.896  15.379  69.474  1.00  0.00    -0.260 C  
BRANCH  14  15
HETATM   15  C   UNL     1      -9.615  16.111  68.135  1.00  0.00    -0.217 C  
HETATM   16  H   UNL     1      -8.043  16.522  67.013  1.00  0.00     0.000 HD 
HETATM   17  O   UNL     1      -8.214  16.074  67.832  1.00  0.00    -0.146 OA 
BRANCH  15  18
HETATM   18  C   UNL     1     -10.393  15.493  66.988  1.00  0.00    -0.279 A  
HETATM   19  O   UNL     1     -11.588  16.347  63.611  1.00  0.00    -1.514 OA 
HETATM   20  C   UNL     1     -11.356  15.661  64.767  1.00  0.00    -0.343 A  
HETATM   21  C   UNL     1     -10.604  16.216  65.804  1.00  0.00    -0.347 A  
HETATM   22  C   UNL     1     -11.899  14.387  64.877  1.00  0.00    -0.419 A  
HETATM   23  H   UNL     1     -12.100  15.969  62.906  1.00  0.00     0.000 HD 
HETATM   24  C   UNL     1     -11.688  13.666  66.044  1.00  0.00    -0.358 A  
HETATM   25  O   UNL     1     -12.200  12.414  66.214  1.00  0.00    -0.620 OA 
HETATM   26  C   UNL     1     -10.944  14.204  67.090  1.00  0.00    -0.304 A  
HETATM   27  H   UNL     1     -12.056  11.921  67.013  1.00  0.00     0.000 HD 
ENDBRANCH  15  18
ENDBRANCH  14  15
ENDBRANCH  12  14
ENDBRANCH   2  12
TORSDOF 6
ENDMDL
MODEL        5
REMARK 921   NORMALIZED FREE ENERGY PREDICTED BY IDOCK:   -7.06 KCAL/MOL
REMARK 922        TOTAL FREE ENERGY PREDICTED BY IDOCK:  -10.15 KCAL/MOL
REMARK 923 INTER-LIGAND FREE ENERGY PREDICTED BY IDOCK:   -9.32 KCAL/MOL
REMARK 924 INTRA-LIGAND FREE ENERGY PREDICTED BY IDOCK:   -0.82 KCAL/MOL
REMARK 927      BINDING AFFINITY PREDICTED BY RF-SCORE:    0.00 PKD
ROOT
HETATM    1  C   UNL     1     -12.812  15.609  72.348  1.00  0.00    -0.519 C  
HETATM    2  C   UNL     1     -11.969  14.555  71.616  1.00  0.00    -0.253 C  
ENDROOT
BRANCH   2   3
HETATM    3  C   UNL     1     -12.932  13.615  70.842  1.00  0.00    -0.256 C  
BRANCH   3   4
HETATM    4  C   UNL     1     -12.528  12.158  70.829  1.00  0.00    -0.362 A  
HETATM    5  C   UNL     1     -12.726   9.921  71.756  1.00  0.00    -0.523 A  
HETATM    6  H   UNL     1     -11.936   7.529  71.438  1.00  0.00     0.000 HD 
HETATM    7  C   UNL     1     -11.621  11.668  69.878  1.00  0.00    -0.366 A  
HETATM    8  C   UNL     1     -13.070  11.272  71.771  1.00  0.00    -0.527 A  
HETATM    9  C   UNL     1     -11.274  10.314  69.863  1.00  0.00    -0.360 A  
HETATM   10  O   UNL     1     -11.550   8.118  70.800  1.00  0.00    -0.283 OA 
HETATM   11  C   UNL     1     -11.838   9.451  70.797  1.00  0.00    -0.256 A  
ENDBRANCH   3   4
ENDBRANCH   2   3
BRANCH   2  12
HETATM   12  N   UNL     1     -10.984  15.169  70.712  1.00  0.00    -0.506 NA 
HETATM   13  H   UNL     1     -10.136  14.604  70.672  1.00  0.00     0.000 HD 
BRANCH  12  14
HETATM   14  C   UNL     1     -11.488  15.433  69.360  1.00  0.00    -0.324 C  
BRANCH  14  15
HETATM   15  C   UNL     1     -10.453  15.054  68.269  1.00  0.00    -0.237 C  
HETATM   16  H   UNL     1      -9.151  13.603  67.952  1.00  0.00     0.000 HD 
HETATM   17  O   UNL     1      -9.784  13.835  68.621  1.00  0.00    -0.213 OA 
BRANCH  15  18
HETATM   18  C   UNL     1     -11.108  14.894  66.910  1.00  0.00    -0.337 A  
HETATM   19  O   UNL     1     -13.070  12.430  65.001  1.00  0.00    -0.678 OA 
HETATM   20  C   UNL     1     -12.386  13.563  65.334  1.00  0.00    -0.478 A  
HETATM   21  C   UNL     1     -11.820  13.725  66.600  1.00  0.00    -0.445 A  
HETATM   22  C   UNL     1     -12.270  14.550  64.364  1.00  0.00    -0.480 A  
HETATM   23  H   UNL     1     -13.455  12.321  64.140  1.00  0.00     0.000 HD 
HETATM   24  C   UNL     1     -11.572  15.711  64.669  1.00  0.00    -0.249 A  
HETATM   25  O   UNL     1     -11.420  16.714  63.758  1.00  0.00    -1.518 OA 
HETATM   26  C   UNL     1     -10.998  15.890  65.924  1.00  0.00    -0.151 A  
HETATM   27  H   UNL     1     -10.942  17.508  63.966  1.00  0.00     0.000 HD 
ENDBRANCH  15  18
ENDBRANCH  14  15
ENDBRANCH  12  14
ENDBRANCH   2  12
TORSDOF 6
ENDMDL
MODEL        6
REMARK 921   NORMALIZED FREE ENERGY PREDICTED BY IDOCK:   -7.03 KCAL/MOL
REMARK 922        TOTAL FREE ENERGY PREDICTED BY IDOCK:  -10.10 KCAL/MOL
REMARK 923 INTER-LIGAND FREE ENERGY PREDICTED BY IDOCK:   -8.80 KCAL/MOL
REMARK 924 INTRA-LIGAND FREE ENERGY PREDICTED BY IDOCK:   -1.30 KCAL/MOL
REMARK 927      BINDING AFFINITY PREDICTED BY RF-SCORE:    0.00 PKD
ROOT
HETATM    1  C   UNL     1     -12.598  15.518  73.233  1.00  0.00    -0.617 C  
HETATM    2  C   UNL     1     -12.093  15.016  71.873  1.00  0.00    -0.372 C  
ENDROOT
BRANCH   2   3
HETATM    3  C   UNL     1     -13.186  14.105  71.253  1.00  0.00    -0.399 C  
BRANCH   3   4
HETATM    4  C   UNL     1     -12.775  12.666  71.045  1.00  0.00    -0.316 A  
HETATM    5  C   UNL     1     -11.546  11.001  69.773  1.00  0.00    -0.401 A  
HETATM    6  H   UNL     1     -10.948   8.533  69.727  1.00  0.00     0.000 HD 
HETATM    7  C   UNL     1     -13.195  11.659  71.927  1.00  0.00    -0.475 A  
HETATM    8  C   UNL     1     -11.953  12.321  69.963  1.00  0.00    -0.379 A  
HETATM    9  C   UNL     1     -12.789  10.335  71.736  1.00  0.00    -0.565 A  
HETATM   10  O   UNL     1     -11.515   8.748  70.458  1.00  0.00    -0.262 OA 
HETATM   11  C   UNL     1     -11.959  10.021  70.665  1.00  0.00    -0.313 A  
ENDBRANCH   3   4
ENDBRANCH   2   3
BRANCH   2  12
HETATM   12  N   UNL     1     -11.751  16.127  70.970  1.00  0.00    -0.549 NA 
HETATM   13  H   UNL     1     -11.376  16.914  71.499  1.00  0.00     0.000 HD 
BRANCH  12  14
HETATM   14  C   UNL     1     -10.840  15.760  69.881  1.00  0.00    -0.327 C  
BRANCH  14  15
HETATM   15  C   UNL     1     -11.488  15.965  68.486  1.00  0.00    -0.377 C  
HETATM   16  H   UNL     1     -11.378  17.284  67.020  1.00  0.00     0.000 HD 
HETATM   17  O   UNL     1     -10.981  17.158  67.874  1.00  0.00    -0.343 OA 
BRANCH  15  18
HETATM   18  C   UNL     1     -11.229  14.782  67.572  1.00  0.00    -0.339 A  
HETATM   19  O   UNL     1      -8.463  12.600  66.503  1.00  0.00    -0.408 OA 
HETATM   20  C   UNL     1      -9.703  13.157  66.615  1.00  0.00    -0.261 A  
HETATM   21  C   UNL     1      -9.947  14.218  67.488  1.00  0.00    -0.235 A  
HETATM   22  C   UNL     1     -10.716  12.631  65.824  1.00  0.00    -0.295 A  
HETATM   23  H   UNL     1      -8.297  11.878  65.909  1.00  0.00     0.000 HD 
HETATM   24  C   UNL     1     -11.987  13.182  65.908  1.00  0.00    -0.427 A  
HETATM   25  O   UNL     1     -13.021  12.712  65.154  1.00  0.00    -0.754 OA 
HETATM   26  C   UNL     1     -12.250  14.242  66.770  1.00  0.00    -0.384 A  
HETATM   27  H   UNL     1     -13.891  13.090  65.211  1.00  0.00     0.000 HD 
ENDBRANCH  15  18
ENDBRANCH  14  15
ENDBRANCH  12  14
ENDBRANCH   2  12
TORSDOF 6
ENDMDL
MODEL        7
REMARK 921   NORMALIZED FREE ENERGY PREDICTED BY IDOCK:   -7.00 KCAL/MOL
REMARK 922        TOTAL FREE ENERGY PREDICTED BY IDOCK:  -10.06 KCAL/MOL
REMARK 923 INTER-LIGAND FREE ENERGY PREDICTED BY IDOCK:   -9.13 KCAL/MOL
REMARK 924 INTRA-LIGAND FREE ENERGY PREDICTED BY IDOCK:   -0.93 KCAL/MOL
REMARK 927      BINDING AFFINITY PREDICTED BY RF-SCORE:    0.00 PKD
ROOT
HETATM    1  C   UNL     1     -12.543  15.330  70.642  1.00  0.00    -0.471 C  
HETATM    2  C   UNL     1     -11.782  14.974  69.357  1.00  0.00    -0.326 C  
ENDROOT
BRANCH   2   3
HETATM    3  C   UNL     1     -10.430  15.737  69.367  1.00  0.00    -0.257 C  
BRANCH   3   4
HETATM    4  C   UNL     1     -10.347  16.901  68.405  1.00  0.00    -0.338 A  
HETATM    5  C   UNL     1     -10.021  19.276  68.015  1.00  0.00    -0.473 A  
HETATM    6  H   UNL     1      -9.840  21.012  66.169  1.00  0.00     0.000 HD 
HETATM    7  C   UNL     1     -10.479  16.707  67.023  1.00  0.00    -0.283 A  
HETATM    8  C   UNL     1     -10.125  18.197  68.892  1.00  0.00    -0.354 A  
HETATM    9  C   UNL     1     -10.377  17.789  66.143  1.00  0.00    -0.340 A  
HETATM   10  O   UNL     1     -10.004  20.142  65.825  1.00  0.00    -0.422 OA 
HETATM   11  C   UNL     1     -10.139  19.063  66.648  1.00  0.00    -0.392 A  
ENDBRANCH   3   4
ENDBRANCH   2   3
BRANCH   2  12
HETATM   12  N   UNL     1     -11.573  13.524  69.226  1.00  0.00    -0.297 NA 
HETATM   13  H   UNL     1     -12.455  13.054  69.021  1.00  0.00     0.000 HD 
BRANCH  12  14
HETATM   14  C   UNL     1     -10.553  13.148  68.241  1.00  0.00    -0.248 C  
BRANCH  14  15
HETATM   15  C   UNL     1     -10.953  11.879  67.444  1.00  0.00    -0.263 C  
HETATM   16  H   UNL     1     -12.375  10.510  67.522  1.00  0.00     0.000 HD 
HETATM   17  O   UNL     1     -12.130  11.288  68.010  1.00  0.00    -0.638 OA 
BRANCH  15  18
HETATM   18  C   UNL     1     -11.203  12.194  65.981  1.00  0.00    -0.382 A  
HETATM   19  O   UNL     1     -10.591  10.761  62.645  1.00  0.00    -0.742 OA 
HETATM   20  C   UNL     1     -10.990  11.609  63.636  1.00  0.00    -0.431 A  
HETATM   21  C   UNL     1     -10.797  11.296  64.983  1.00  0.00    -0.285 A  
HETATM   22  C   UNL     1     -11.595  12.800  63.256  1.00  0.00    -0.378 A  
HETATM   23  H   UNL     1     -10.724  10.974  61.729  1.00  0.00     0.000 HD 
HETATM   24  C   UNL     1     -12.004  13.689  64.241  1.00  0.00    -0.445 A  
HETATM   25  O   UNL     1     -12.599  14.876  63.930  1.00  0.00    -0.964 OA 
HETATM   26  C   UNL     1     -11.817  13.397  65.588  1.00  0.00    -0.403 A  
HETATM   27  H   UNL     1     -12.879  15.485  64.604  1.00  0.00     0.000 HD 
ENDBRANCH  15  18
ENDBRANCH  14  15
ENDBRANCH  12  14
ENDBRANCH   2  12
TORSDOF 6
ENDMDL
MODEL        8
REMARK 921   NORMALIZED FREE ENERGY PREDICTED BY IDOCK:   -6.99 KCAL/MOL
REMARK 922        TOTAL FREE ENERGY PREDICTED BY IDOCK:  -10.05 KCAL/MOL
REMARK 923 INTER-LIGAND FREE ENERGY PREDICTED BY IDOCK:   -9.03 KCAL/MOL
REMARK 924 INTRA-LIGAND FREE ENERGY PREDICTED BY IDOCK:   -1.01 KCAL/MOL
REMARK 927      BINDING AFFINITY PREDICTED BY RF-SCORE:    0.00 PKD
ROOT
HETATM    1  C   UNL     1      -9.352  16.211  69.137  1.00  0.00    -0.238 C  
HETATM    2  C   UNL     1     -10.396  15.776  68.100  1.00  0.00    -0.242 C  
ENDROOT
BRANCH   2   3
HETATM    3  C   UNL     1     -11.763  15.622  68.820  1.00  0.00    -0.382 C  
BRANCH   3   4
HETATM    4  C   UNL     1     -11.957  14.311  69.548  1.00  0.00    -0.384 A  
HETATM    5  C   UNL     1     -12.841  13.080  71.446  1.00  0.00    -0.385 A  
HETATM    6  H   UNL     1     -13.094  10.736  72.390  1.00  0.00     0.000 HD 
HETATM    7  C   UNL     1     -11.478  13.108  69.010  1.00  0.00    -0.345 A  
HETATM    8  C   UNL     1     -12.633  14.285  70.776  1.00  0.00    -0.427 A  
HETATM    9  C   UNL     1     -11.684  11.900  69.682  1.00  0.00    -0.413 A  
HETATM   10  O   UNL     1     -12.622  10.738  71.565  1.00  0.00    -0.388 OA 
HETATM   11  C   UNL     1     -12.373  11.897  70.891  1.00  0.00    -0.300 A  
ENDBRANCH   3   4
ENDBRANCH   2   3
BRANCH   2  12
HETATM   12  N   UNL     1     -10.489  16.728  66.982  1.00  0.00    -0.308 NA 
HETATM   13  H   UNL     1      -9.911  17.548  67.163  1.00  0.00     0.000 HD 
BRANCH  12  14
HETATM   14  C   UNL     1     -10.165  16.153  65.671  1.00  0.00    -0.364 C  
BRANCH  14  15
HETATM   15  C   UNL     1     -11.409  15.529  64.987  1.00  0.00    -0.299 C  
HETATM   16  H   UNL     1     -12.470  15.843  63.351  1.00  0.00     0.000 HD 
HETATM   17  O   UNL     1     -11.709  16.225  63.770  1.00  0.00    -0.969 OA 
BRANCH  15  18
HETATM   18  C   UNL     1     -11.199  14.057  64.684  1.00  0.00    -0.377 A  
HETATM   19  O   UNL     1      -8.773  11.365  65.338  1.00  0.00    -0.378 OA 
HETATM   20  C   UNL     1      -9.863  12.039  64.873  1.00  0.00    -0.175 A  
HETATM   21  C   UNL     1     -10.076  13.383  65.188  1.00  0.00    -0.266 A  
HETATM   22  C   UNL     1     -10.756  11.341  64.070  1.00  0.00    -0.444 A  
HETATM   23  H   UNL     1      -8.629  10.451  65.124  1.00  0.00     0.000 HD 
HETATM   24  C   UNL     1     -11.871  12.002  63.574  1.00  0.00    -0.492 A  
HETATM   25  O   UNL     1     -12.780  11.372  62.777  1.00  0.00    -0.927 OA 
HETATM   26  C   UNL     1     -12.099  13.341  63.874  1.00  0.00    -0.531 A  
HETATM   27  H   UNL     1     -13.543  11.824  62.437  1.00  0.00     0.000 HD 
ENDBRANCH  15  18
ENDBRANCH  14  15
ENDBRANCH  12  14
ENDBRANCH   2  12
TORSDOF 6
ENDMDL
MODEL        9
REMARK 921   NORMALIZED FREE ENERGY PREDICTED BY IDOCK:   -6.97 KCAL/MOL
REMARK 922        TOTAL FREE ENERGY PREDICTED BY IDOCK:  -10.02 KCAL/MOL
REMARK 923 INTER-LIGAND FREE ENERGY PREDICTED BY IDOCK:   -9.26 KCAL/MOL
REMARK 924 INTRA-LIGAND FREE ENERGY PREDICTED BY IDOCK:   -0.76 KCAL/MOL
REMARK 927      BINDING AFFINITY PREDICTED BY RF-SCORE:    0.00 PKD
ROOT
HETATM    1  C   UNL     1      -9.865  10.568  68.295  1.00  0.00    -0.162 C  
HETATM    2  C   UNL     1     -10.970  11.614  68.093  1.00  0.00    -0.226 C  
ENDROOT
BRANCH   2   3
HETATM    3  C   UNL     1     -11.307  11.679  66.579  1.00  0.00    -0.331 C  
BRANCH   3   4
HETATM    4  C   UNL     1     -11.340  13.072  65.991  1.00  0.00    -0.343 A  
HETATM    5  C   UNL     1     -10.621  15.391  66.060  1.00  0.00    -0.330 A  
HETATM    6  H   UNL     1     -10.789  17.593  64.806  1.00  0.00     0.000 HD 
HETATM    7  C   UNL     1     -12.073  13.349  64.829  1.00  0.00    -0.448 A  
HETATM    8  C   UNL     1     -10.620  14.108  66.604  1.00  0.00    -0.278 A  
HETATM    9  C   UNL     1     -12.076  14.636  64.283  1.00  0.00    -0.437 A  
HETATM   10  O   UNL     1     -11.292  16.906  64.385  1.00  0.00    -1.133 OA 
HETATM   11  C   UNL     1     -11.341  15.644  64.900  1.00  0.00    -0.315 A  
ENDBRANCH   3   4
ENDBRANCH   2   3
BRANCH   2  12
HETATM   12  N   UNL     1     -12.168  11.309  68.891  1.00  0.00    -0.532 NA 
HETATM   13  H   UNL     1     -12.537  10.392  68.643  1.00  0.00     0.000 HD 
BRANCH  12  14
HETATM   14  C   UNL     1     -11.966  11.405  70.341  1.00  0.00    -0.374 C  
BRANCH  14  15
HETATM   15  C   UNL     1     -13.140  12.136  71.044  1.00  0.00     0.069 C  
HETATM   16  H   UNL     1     -14.249  11.874  72.658  1.00  0.00     0.000 HD 
HETATM   17  O   UNL     1     -13.530  11.426  72.227  1.00  0.00    -0.351 OA 
BRANCH  15  18
HETATM   18  C   UNL     1     -12.769  13.560  71.413  1.00  0.00    -0.423 A  
HETATM   19  O   UNL     1     -10.978  16.457  70.013  1.00  0.00    -0.354 OA 
HETATM   20  C   UNL     1     -11.682  15.660  70.867  1.00  0.00    -0.387 A  
HETATM   21  C   UNL     1     -12.058  14.364  70.508  1.00  0.00    -0.404 A  
HETATM   22  C   UNL     1     -12.009  16.184  72.111  1.00  0.00    -0.623 A  
HETATM   23  H   UNL     1     -10.723  17.339  70.257  1.00  0.00     0.000 HD 
HETATM   24  C   UNL     1     -12.718  15.395  73.006  1.00  0.00    -0.451 A  
HETATM   25  O   UNL     1     -13.064  15.851  74.243  1.00  0.00    -0.860 OA 
HETATM   26  C   UNL     1     -13.099  14.100  72.669  1.00  0.00    -0.564 A  
HETATM   27  H   UNL     1     -13.549  15.311  74.856  1.00  0.00     0.000 HD 
ENDBRANCH  15  18
ENDBRANCH  14  15
ENDBRANCH  12  14
ENDBRANCH   2  12
TORSDOF 6
ENDMDL
MODEL       10
REMARK 921   NORMALIZED FREE ENERGY PREDICTED BY IDOCK:   -6.96 KCAL/MOL
REMARK 922        TOTAL FREE ENERGY PREDICTED BY IDOCK:  -10.01 KCAL/MOL
REMARK 923 INTER-LIGAND FREE ENERGY PREDICTED BY IDOCK:   -9.05 KCAL/MOL
REMARK 924 INTRA-LIGAND FREE ENERGY PREDICTED BY IDOCK:   -0.95 KCAL/MOL
REMARK 927      BINDING AFFINITY PREDICTED BY RF-SCORE:    0.00 PKD
ROOT
HETATM    1  C   UNL     1      -8.353  16.944  68.371  1.00  0.00    -0.238 C  
HETATM    2  C   UNL     1      -9.080  15.970  69.308  1.00  0.00    -0.235 C  
ENDROOT
BRANCH   2   3
HETATM    3  C   UNL     1     -10.593  16.317  69.290  1.00  0.00    -0.293 C  
BRANCH   3   4
HETATM    4  C   UNL     1     -11.449  15.489  70.221  1.00  0.00    -0.352 A  
HETATM    5  C   UNL     1     -12.509  15.196  72.387  1.00  0.00    -0.433 A  
HETATM    6  H   UNL     1     -14.045  13.648  73.689  1.00  0.00     0.000 HD 
HETATM    7  C   UNL     1     -12.009  14.275  69.799  1.00  0.00    -0.394 A  
HETATM    8  C   UNL     1     -11.701  15.937  71.526  1.00  0.00    -0.545 A  
HETATM    9  C   UNL     1     -12.817  13.529  70.663  1.00  0.00    -0.189 A  
HETATM   10  O   UNL     1     -13.874  13.324  72.812  1.00  0.00    -0.690 OA 
HETATM   11  C   UNL     1     -13.068  14.004  71.947  1.00  0.00    -0.386 A  
ENDBRANCH   3   4
ENDBRANCH   2   3
BRANCH   2  12
HETATM   12  N   UNL     1      -8.852  14.568  68.927  1.00  0.00    -0.310 NA 
HETATM   13  H   UNL     1      -9.658  13.995  69.176  1.00  0.00     0.000 HD 
BRANCH  12  14
HETATM   14  C   UNL     1      -8.504  14.375  67.515  1.00  0.00    -0.192 C  
BRANCH  14  15
HETATM   15  C   UNL     1      -9.241  13.159  66.895  1.00  0.00    -0.236 C  
HETATM   16  H   UNL     1     -10.274  11.607  67.547  1.00  0.00     0.000 HD 
HETATM   17  O   UNL     1      -9.822  12.351  67.926  1.00  0.00    -0.191 OA 
BRANCH  15  18
HETATM   18  C   UNL     1     -10.327  13.598  65.930  1.00  0.00    -0.304 A  
HETATM   19  O   UNL     1     -11.403  16.590  64.072  1.00  0.00    -1.475 OA 
HETATM   20  C   UNL     1     -11.361  15.320  64.568  1.00  0.00    -0.300 A  
HETATM   21  C   UNL     1     -10.337  14.907  65.422  1.00  0.00    -0.413 A  
HETATM   22  C   UNL     1     -12.378  14.451  64.193  1.00  0.00    -0.340 A  
HETATM   23  H   UNL     1     -12.100  16.871  63.491  1.00  0.00     0.000 HD 
HETATM   24  C   UNL     1     -12.368  13.154  64.687  1.00  0.00    -0.405 A  
HETATM   25  O   UNL     1     -13.341  12.256  64.360  1.00  0.00    -0.786 OA 
HETATM   26  C   UNL     1     -11.358  12.724  65.543  1.00  0.00    -0.347 A  
HETATM   27  H   UNL     1     -13.334  11.369  64.699  1.00  0.00     0.000 HD 
ENDBRANCH  15  18
ENDBRANCH  14  15
ENDBRANCH  12  14
ENDBRANCH   2  12
TORSDOF 6
ENDMDL
MODEL       11
REMARK 921   NORMALIZED FREE ENERGY PREDICTED BY IDOCK:   -6.93 KCAL/MOL
REMARK 922        TOTAL FREE ENERGY PREDICTED BY IDOCK:   -9.97 KCAL/MOL
REMARK 923 INTER-LIGAND FREE ENERGY PREDICTED BY IDOCK:   -8.64 KCAL/MOL
REMARK 924 INTRA-LIGAND FREE ENERGY PREDICTED BY IDOCK:   -1.33 KCAL/MOL
REMARK 927      BINDING AFFINITY PREDICTED BY RF-SCORE:    0.00 PKD
ROOT
HETATM    1  C   UNL     1     -10.183  18.167  68.467  1.00  0.00    -0.399 C  
HETATM    2  C   UNL     1     -10.226  16.813  69.189  1.00  0.00    -0.306 C  
ENDROOT
BRANCH   2   3
HETATM    3  C   UNL     1     -11.531  16.082  68.773  1.00  0.00    -0.375 C  
BRANCH   3   4
HETATM    4  C   UNL     1     -12.157  15.229  69.854  1.00  0.00    -0.375 A  
HETATM    5  C   UNL     1     -12.649  13.032  70.765  1.00  0.00    -0.321 A  
HETATM    6  H   UNL     1     -13.702  11.865  72.760  1.00  0.00     0.000 HD 
HETATM    7  C   UNL     1     -12.792  15.813  70.959  1.00  0.00    -0.425 A  
HETATM    8  C   UNL     1     -12.098  13.831  69.764  1.00  0.00    -0.400 A  
HETATM    9  C   UNL     1     -13.347  15.013  71.962  1.00  0.00    -0.475 A  
HETATM   10  O   UNL     1     -13.761  12.810  72.829  1.00  0.00    -0.446 OA 
HETATM   11  C   UNL     1     -13.260  13.628  71.860  1.00  0.00    -0.411 A  
ENDBRANCH   3   4
ENDBRANCH   2   3
BRANCH   2  12
HETATM   12  N   UNL     1      -9.041  15.994  68.891  1.00  0.00    -0.221 NA 
HETATM   13  H   UNL     1      -9.269  15.001  68.950  1.00  0.00     0.000 HD 
BRANCH  12  14
HETATM   14  C   UNL     1      -8.405  16.297  67.604  1.00  0.00    -0.161 C  
BRANCH  14  15
HETATM   15  C   UNL     1      -8.349  15.054  66.677  1.00  0.00    -0.080 C  
HETATM   16  H   UNL     1      -7.869  13.146  66.843  1.00  0.00     0.000 HD 
HETATM   17  O   UNL     1      -7.903  13.906  67.411  1.00  0.00    -0.173 OA 
BRANCH  15  18
HETATM   18  C   UNL     1      -9.702  14.760  66.056  1.00  0.00    -0.350 A  
HETATM   19  O   UNL     1     -12.274  12.125  66.025  1.00  0.00    -0.609 OA 
HETATM   20  C   UNL     1     -11.603  13.282  65.757  1.00  0.00    -0.337 A  
HETATM   21  C   UNL     1     -10.378  13.569  66.362  1.00  0.00    -0.289 A  
HETATM   22  C   UNL     1     -12.182  14.165  64.854  1.00  0.00    -0.451 A  
HETATM   23  H   UNL     1     -13.107  11.931  65.613  1.00  0.00     0.000 HD 
HETATM   24  C   UNL     1     -11.519  15.348  64.553  1.00  0.00    -0.311 A  
HETATM   25  O   UNL     1     -12.034  16.251  63.672  1.00  0.00    -1.356 OA 
HETATM   26  C   UNL     1     -10.296  15.650  65.144  1.00  0.00    -0.366 A  
HETATM   27  H   UNL     1     -11.581  17.060  63.466  1.00  0.00     0.000 HD 
ENDBRANCH  15  18
ENDBRANCH  14  15
ENDBRANCH  12  14
ENDBRANCH   2  12
TORSDOF 6
ENDMDL
MODEL       12
REMARK 921   NORMALIZED FREE ENERGY PREDICTED BY IDOCK:   -6.91 KCAL/MOL
REMARK 922        TOTAL FREE ENERGY PREDICTED BY IDOCK:   -9.94 KCAL/MOL
REMARK 923 INTER-LIGAND FREE ENERGY PREDICTED BY IDOCK:   -9.42 KCAL/MOL
REMARK 924 INTRA-LIGAND FREE ENERGY PREDICTED BY IDOCK:   -0.52 KCAL/MOL
REMARK 927      BINDING AFFINITY PREDICTED BY RF-SCORE:    0.00 PKD
ROOT
HETATM    1  C   UNL     1     -12.506  12.376  70.876  1.00  0.00    -0.367 C  
HETATM    2  C   UNL     1     -11.954  11.095  70.235  1.00  0.00    -0.373 C  
ENDROOT
BRANCH   2   3
HETATM    3  C   UNL     1     -12.425   9.884  71.084  1.00  0.00    -0.464 C  
BRANCH   3   4
HETATM    4  C   UNL     1     -11.314   9.008  71.618  1.00  0.00    -0.430 A  
HETATM    5  C   UNL     1      -8.960   8.412  71.673  1.00  0.00    -0.261 A  
HETATM    6  H   UNL     1      -7.297   6.861  72.804  1.00  0.00     0.000 HD 
HETATM    7  C   UNL     1     -11.574   8.009  72.566  1.00  0.00    -0.464 A  
HETATM    8  C   UNL     1      -9.998   9.196  71.171  1.00  0.00    -0.377 A  
HETATM    9  C   UNL     1     -10.534   7.221  73.068  1.00  0.00    -0.355 A  
HETATM   10  O   UNL     1      -8.185   6.712  73.108  1.00  0.00    -0.112 OA 
HETATM   11  C   UNL     1      -9.233   7.438  72.623  1.00  0.00    -0.145 A  
ENDBRANCH   3   4
ENDBRANCH   2   3
BRANCH   2  12
HETATM   12  N   UNL     1     -12.376  10.956  68.832  1.00  0.00    -0.759 NA 
HETATM   13  H   UNL     1     -13.268  11.427  68.680  1.00  0.00     0.000 HD 
BRANCH  12  14
HETATM   14  C   UNL     1     -11.383  11.416  67.855  1.00  0.00    -0.303 C  
BRANCH  14  15
HETATM   15  C   UNL     1     -11.509  12.935  67.567  1.00  0.00    -0.335 C  
HETATM   16  H   UNL     1     -10.393  14.548  67.799  1.00  0.00     0.000 HD 
HETATM   17  O   UNL     1     -10.316  13.618  67.976  1.00  0.00    -0.238 OA 
BRANCH  15  18
HETATM   18  C   UNL     1     -11.764  13.204  66.096  1.00  0.00    -0.428 A  
HETATM   19  O   UNL     1     -12.269  11.372  62.942  1.00  0.00    -0.940 OA 
HETATM   20  C   UNL     1     -12.121  12.390  63.838  1.00  0.00    -0.499 A  
HETATM   21  C   UNL     1     -11.928  12.139  65.198  1.00  0.00    -0.324 A  
HETATM   22  C   UNL     1     -12.166  13.688  63.348  1.00  0.00    -0.236 A  
HETATM   23  H   UNL     1     -12.400  11.543  62.018  1.00  0.00     0.000 HD 
HETATM   24  C   UNL     1     -12.009  14.746  64.233  1.00  0.00    -0.368 A  
HETATM   25  O   UNL     1     -12.039  16.042  63.812  1.00  0.00    -1.318 OA 
HETATM   26  C   UNL     1     -11.813  14.516  65.592  1.00  0.00    -0.326 A  
HETATM   27  H   UNL     1     -11.931  16.766  64.418  1.00  0.00     0.000 HD 
ENDBRANCH  15  18
ENDBRANCH  14  15
ENDBRANCH  12  14
ENDBRANCH   2  12
TORSDOF 6
ENDMDL
MODEL       13
REMARK 921   NORMALIZED FREE ENERGY PREDICTED BY IDOCK:   -6.89 KCAL/MOL
REMARK 922        TOTAL FREE ENERGY PREDICTED BY IDOCK:   -9.92 KCAL/MOL
REMARK 923 INTER-LIGAND FREE ENERGY PREDICTED BY IDOCK:   -8.95 KCAL/MOL
REMARK 924 INTRA-LIGAND FREE ENERGY PREDICTED BY IDOCK:   -0.97 KCAL/MOL
REMARK 927      BINDING AFFINITY PREDICTED BY RF-SCORE:    0.00 PKD
ROOT
HETATM    1  C   UNL     1     -10.170  17.647  68.819  1.00  0.00    -0.373 C  
HETATM    2  C   UNL     1     -11.151  16.470  68.914  1.00  0.00    -0.300 C  
ENDROOT
BRANCH   2   3
HETATM    3  C   UNL     1     -10.480  15.226  68.272  1.00  0.00    -0.244 C  
BRANCH   3   4
HETATM    4  C   UNL     1     -11.027  14.832  66.919  1.00  0.00    -0.328 A  
HETATM    5  C   UNL     1     -12.441  13.389  65.571  1.00  0.00    -0.534 A  
HETATM    6  H   UNL     1     -13.264  13.016  63.197  1.00  0.00     0.000 HD 
HETATM    7  C   UNL     1     -10.675  15.542  65.763  1.00  0.00    -0.362 A  
HETATM    8  C   UNL     1     -11.910  13.748  66.809  1.00  0.00    -0.454 A  
HETATM    9  C   UNL     1     -11.206  15.182  64.521  1.00  0.00    -0.283 A  
HETATM   10  O   UNL     1     -12.658  13.746  63.253  1.00  0.00    -0.830 OA 
HETATM   11  C   UNL     1     -12.093  14.113  64.439  1.00  0.00    -0.463 A  
ENDBRANCH   3   4
ENDBRANCH   2   3
BRANCH   2  12
HETATM   12  N   UNL     1     -11.553  16.200  70.303  1.00  0.00    -0.409 NA 
HETATM   13  H   UNL     1     -11.652  17.073  70.822  1.00  0.00     0.000 HD 
BRANCH  12  14
HETATM   14  C   UNL     1     -12.767  15.387  70.433  1.00  0.00    -0.362 C  
BRANCH  14  15
HETATM   15  C   UNL     1     -12.752  14.521  71.720  1.00  0.00    -0.343 C  
HETATM   16  H   UNL     1     -13.933  14.220  73.274  1.00  0.00     0.000 HD 
HETATM   17  O   UNL     1     -13.942  14.750  72.487  1.00  0.00    -0.457 OA 
BRANCH  15  18
HETATM   18  C   UNL     1     -12.641  13.043  71.396  1.00  0.00    -0.329 A  
HETATM   19  O   UNL     1     -11.157  10.818  68.865  1.00  0.00    -0.216 OA 
HETATM   20  C   UNL     1     -11.847  11.258  69.956  1.00  0.00    -0.367 A  
HETATM   21  C   UNL     1     -11.912  12.616  70.275  1.00  0.00    -0.363 A  
HETATM   22  C   UNL     1     -12.486  10.305  70.739  1.00  0.00    -0.439 A  
HETATM   23  H   UNL     1     -11.113   9.894  68.648  1.00  0.00     0.000 HD 
HETATM   24  C   UNL     1     -13.203  10.723  71.852  1.00  0.00    -0.419 A  
HETATM   25  O   UNL     1     -13.856   9.836  72.655  1.00  0.00    -0.674 OA 
HETATM   26  C   UNL     1     -13.283  12.071  72.184  1.00  0.00    -0.400 A  
HETATM   27  H   UNL     1     -14.347  10.122  73.417  1.00  0.00     0.000 HD 
ENDBRANCH  15  18
ENDBRANCH  14  15
ENDBRANCH  12  14
ENDBRANCH   2  12
TORSDOF 6
ENDMDL
MODEL       14
REMARK 921   NORMALIZED FREE ENERGY PREDICTED BY IDOCK:   -6.88 KCAL/MOL
REMARK 922        TOTAL FREE ENERGY PREDICTED BY IDOCK:   -9.90 KCAL/MOL
REMARK 923 INTER-LIGAND FREE ENERGY PREDICTED BY IDOCK:   -8.98 KCAL/MOL
REMARK 924 INTRA-LIGAND FREE ENERGY PREDICTED BY IDOCK:   -0.92 KCAL/MOL
REMARK 927      BINDING AFFINITY PREDICTED BY RF-SCORE:    0.00 PKD
ROOT
HETATM    1  C   UNL     1      -9.201  14.905  68.842  1.00  0.00    -0.192 C  
HETATM    2  C   UNL     1     -10.566  15.028  69.532  1.00  0.00    -0.254 C  
ENDROOT
BRANCH   2   3
HETATM    3  C   UNL     1     -11.401  16.096  68.774  1.00  0.00    -0.359 C  
BRANCH   3   4
HETATM    4  C   UNL     1     -10.602  17.252  68.217  1.00  0.00    -0.383 A  
HETATM    5  C   UNL     1      -9.804  18.515  66.302  1.00  0.00    -0.352 A  
HETATM    6  H   UNL     1      -8.475  20.582  65.660  1.00  0.00     0.000 HD 
HETATM    7  C   UNL     1      -9.948  18.155  69.066  1.00  0.00    -0.294 A  
HETATM    8  C   UNL     1     -10.517  17.439  66.829  1.00  0.00    -0.257 A  
HETATM    9  C   UNL     1      -9.232  19.233  68.538  1.00  0.00    -0.434 A  
HETATM   10  O   UNL     1      -8.513  20.462  66.602  1.00  0.00    -0.252 OA 
HETATM   11  C   UNL     1      -9.175  19.408  67.159  1.00  0.00    -0.313 A  
ENDBRANCH   3   4
ENDBRANCH   2   3
BRANCH   2  12
HETATM   12  N   UNL     1     -11.273  13.739  69.584  1.00  0.00    -0.440 NA 
HETATM   13  H   UNL     1     -11.809  13.661  70.449  1.00  0.00     0.000 HD 
BRANCH  12  14
HETATM   14  C   UNL     1     -12.132  13.474  68.424  1.00  0.00    -0.258 C  
BRANCH  14  15
HETATM   15  C   UNL     1     -11.480  12.474  67.434  1.00  0.00    -0.341 C  
HETATM   16  H   UNL     1     -11.585  10.539  67.054  1.00  0.00     0.000 HD 
HETATM   17  O   UNL     1     -11.984  11.151  67.660  1.00  0.00    -0.613 OA 
BRANCH  15  18
HETATM   18  C   UNL     1     -11.736  12.870  65.992  1.00  0.00    -0.456 A  
HETATM   19  O   UNL     1     -12.031  15.893  63.910  1.00  0.00    -1.164 OA 
HETATM   20  C   UNL     1     -12.012  14.585  64.298  1.00  0.00    -0.397 A  
HETATM   21  C   UNL     1     -11.734  14.222  65.617  1.00  0.00    -0.358 A  
HETATM   22  C   UNL     1     -12.282  13.625  63.331  1.00  0.00    -0.236 A  
HETATM   23  H   UNL     1     -12.220  16.139  63.013  1.00  0.00     0.000 HD 
HETATM   24  C   UNL     1     -12.279  12.286  63.696  1.00  0.00    -0.567 A  
HETATM   25  O   UNL     1     -12.542  11.298  62.794  1.00  0.00    -0.912 OA 
HETATM   26  C   UNL     1     -12.008  11.904  65.007  1.00  0.00    -0.150 A  
HETATM   27  H   UNL     1     -12.540  10.381  63.044  1.00  0.00     0.000 HD 
ENDBRANCH  15  18
ENDBRANCH  14  15
ENDBRANCH  12  14
ENDBRANCH   2  12
TORSDOF 6
ENDMDL
MODEL       15
REMARK 921   NORMALIZED FREE ENERGY PREDICTED BY IDOCK:   -6.85 KCAL/MOL
REMARK 922        TOTAL FREE ENERGY PREDICTED BY IDOCK:   -9.86 KCAL/MOL
REMARK 923 INTER-LIGAND FREE ENERGY PREDICTED BY IDOCK:   -8.92 KCAL/MOL
REMARK 924 INTRA-LIGAND FREE ENERGY PREDICTED BY IDOCK:   -0.94 KCAL/MOL
REMARK 927      BINDING AFFINITY PREDICTED BY RF-SCORE:    0.00 PKD
ROOT
HETATM    1  C   UNL     1     -10.063  17.773  68.830  1.00  0.00    -0.381 C  
HETATM    2  C   UNL     1     -11.120  16.659  68.851  1.00  0.00    -0.247 C  
ENDROOT
BRANCH   2   3
HETATM    3  C   UNL     1     -10.507  15.395  68.189  1.00  0.00    -0.247 C  
BRANCH   3   4
HETATM    4  C   UNL     1     -11.114  15.012  66.859  1.00  0.00    -0.331 A  
HETATM    5  C   UNL     1     -11.320  15.379  64.467  1.00  0.00    -0.321 A  
HETATM    6  H   UNL     1     -12.418  14.457  62.371  1.00  0.00     0.000 HD 
HETATM    7  C   UNL     1     -12.001  13.931  66.754  1.00  0.00    -0.472 A  
HETATM    8  C   UNL     1     -10.786  15.737  65.704  1.00  0.00    -0.360 A  
HETATM    9  C   UNL     1     -12.538  13.573  65.514  1.00  0.00    -0.531 A  
HETATM   10  O   UNL     1     -12.661  13.964  63.146  1.00  0.00    -0.775 OA 
HETATM   11  C   UNL     1     -12.184  14.296  64.379  1.00  0.00    -0.447 A  
ENDBRANCH   3   4
ENDBRANCH   2   3
BRANCH   2  12
HETATM   12  N   UNL     1     -11.588  16.371  70.215  1.00  0.00    -0.421 NA 
HETATM   13  H   UNL     1     -11.768  17.238  70.721  1.00  0.00     0.000 HD 
BRANCH  12  14
HETATM   14  C   UNL     1     -12.759  15.489  70.278  1.00  0.00    -0.268 C  
BRANCH  14  15
HETATM   15  C   UNL     1     -12.747  14.597  71.547  1.00  0.00    -0.338 C  
HETATM   16  H   UNL     1     -13.941  14.248  73.081  1.00  0.00     0.000 HD 
HETATM   17  O   UNL     1     -13.948  14.795  72.305  1.00  0.00    -0.429 OA 
BRANCH  15  18
HETATM   18  C   UNL     1     -12.613  13.127  71.193  1.00  0.00    -0.403 A  
HETATM   19  O   UNL     1     -13.413   9.812  72.581  1.00  0.00    -0.626 OA 
HETATM   20  C   UNL     1     -12.951  10.790  71.751  1.00  0.00    -0.463 A  
HETATM   21  C   UNL     1     -13.113  12.141  72.058  1.00  0.00    -0.462 A  
HETATM   22  C   UNL     1     -12.308  10.391  70.586  1.00  0.00    -0.438 A  
HETATM   23  H   UNL     1     -13.303   8.892  72.371  1.00  0.00     0.000 HD 
HETATM   24  C   UNL     1     -11.818  11.363  69.723  1.00  0.00    -0.364 A  
HETATM   25  O   UNL     1     -11.174  11.034  68.568  1.00  0.00    -0.224 OA 
HETATM   26  C   UNL     1     -11.966  12.715  70.015  1.00  0.00    -0.377 A  
HETATM   27  H   UNL     1     -10.838  11.699  67.978  1.00  0.00     0.000 HD 
ENDBRANCH  15  18
ENDBRANCH  14  15
ENDBRANCH  12  14
ENDBRANCH   2  12
TORSDOF 6
ENDMDL
MODEL       16
REMARK 921   NORMALIZED FREE ENERGY PREDICTED BY IDOCK:   -6.82 KCAL/MOL
REMARK 922        TOTAL FREE ENERGY PREDICTED BY IDOCK:   -9.83 KCAL/MOL
REMARK 923 INTER-LIGAND FREE ENERGY PREDICTED BY IDOCK:   -8.48 KCAL/MOL
REMARK 924 INTRA-LIGAND FREE ENERGY PREDICTED BY IDOCK:   -1.34 KCAL/MOL
REMARK 927      BINDING AFFINITY PREDICTED BY RF-SCORE:    0.00 PKD
ROOT
HETATM    1  C   UNL     1     -12.844  15.244  70.410  1.00  0.00    -0.360 C  
HETATM    2  C   UNL     1     -11.547  15.255  69.588  1.00  0.00    -0.321 C  
ENDROOT
BRANCH   2   3
HETATM    3  C   UNL     1     -10.796  16.580  69.883  1.00  0.00    -0.285 C  
BRANCH   3   4
HETATM    4  C   UNL     1      -9.973  17.117  68.734  1.00  0.00    -0.315 A  
HETATM    5  C   UNL     1      -7.936  17.063  67.412  1.00  0.00    -0.197 A  
HETATM    6  H   UNL     1      -6.827  18.091  65.371  1.00  0.00     0.000 HD 
HETATM    7  C   UNL     1     -10.469  18.130  67.901  1.00  0.00    -0.408 A  
HETATM    8  C   UNL     1      -8.696  16.595  68.483  1.00  0.00    -0.242 A  
HETATM    9  C   UNL     1      -9.707  18.602  66.828  1.00  0.00    -0.348 A  
HETATM   10  O   UNL     1      -7.685  18.465  65.535  1.00  0.00    -0.484 OA 
HETATM   11  C   UNL     1      -8.450  18.055  66.588  1.00  0.00    -0.262 A  
ENDBRANCH   3   4
ENDBRANCH   2   3
BRANCH   2  12
HETATM   12  N   UNL     1     -10.702  14.087  69.880  1.00  0.00    -0.406 NA 
HETATM   13  H   UNL     1     -10.807  13.806  70.855  1.00  0.00     0.000 HD 
BRANCH  12  14
HETATM   14  C   UNL     1     -10.924  12.943  68.990  1.00  0.00    -0.197 C  
BRANCH  14  15
HETATM   15  C   UNL     1     -10.013  12.996  67.735  1.00  0.00    -0.227 C  
HETATM   16  H   UNL     1      -8.858  11.747  66.732  1.00  0.00     0.000 HD 
HETATM   17  O   UNL     1      -9.416  11.714  67.500  1.00  0.00    -0.168 OA 
BRANCH  15  18
HETATM   18  C   UNL     1     -10.787  13.424  66.502  1.00  0.00    -0.286 A  
HETATM   19  O   UNL     1     -11.057  16.281  64.195  1.00  0.00    -1.187 OA 
HETATM   20  C   UNL     1     -11.275  15.073  64.791  1.00  0.00    -0.386 A  
HETATM   21  C   UNL     1     -10.532  14.665  65.900  1.00  0.00    -0.325 A  
HETATM   22  C   UNL     1     -12.267  14.263  64.254  1.00  0.00    -0.451 A  
HETATM   23  H   UNL     1     -11.562  16.558  63.441  1.00  0.00     0.000 HD 
HETATM   24  C   UNL     1     -12.519  13.032  64.843  1.00  0.00    -0.455 A  
HETATM   25  O   UNL     1     -13.483  12.195  64.366  1.00  0.00    -0.675 OA 
HETATM   26  C   UNL     1     -11.792  12.608  65.951  1.00  0.00    -0.499 A  
HETATM   27  H   UNL     1     -13.656  11.352  64.769  1.00  0.00     0.000 HD 
ENDBRANCH  15  18
ENDBRANCH  14  15
ENDBRANCH  12  14
ENDBRANCH   2  12
TORSDOF 6
ENDMDL
MODEL       17
REMARK 921   NORMALIZED FREE ENERGY PREDICTED BY IDOCK:   -6.81 KCAL/MOL
REMARK 922        TOTAL FREE ENERGY PREDICTED BY IDOCK:   -9.81 KCAL/MOL
REMARK 923 INTER-LIGAND FREE ENERGY PREDICTED BY IDOCK:   -9.11 KCAL/MOL
REMARK 924 INTRA-LIGAND FREE ENERGY PREDICTED BY IDOCK:   -0.71 KCAL/MOL
REMARK 927      BINDING AFFINITY PREDICTED BY RF-SCORE:    0.00 PKD
ROOT
HETATM    1  C   UNL     1      -9.123   9.995  68.613  1.00  0.00    -0.139 C  
HETATM    2  C   UNL     1     -10.369  10.752  68.132  1.00  0.00    -0.171 C  
ENDROOT
BRANCH   2   3
HETATM    3  C   UNL     1     -10.555  10.469  66.617  1.00  0.00    -0.263 C  
BRANCH   3   4
HETATM    4  C   UNL     1     -11.126  11.618  65.818  1.00  0.00    -0.313 A  
HETATM    5  C   UNL     1     -12.311  13.737  65.750  1.00  0.00    -0.523 A  
HETATM    6  H   UNL     1     -13.082  15.568  64.169  1.00  0.00     0.000 HD 
HETATM    7  C   UNL     1     -10.984  11.670  64.424  1.00  0.00    -0.399 A  
HETATM    8  C   UNL     1     -11.801  12.658  66.472  1.00  0.00    -0.463 A  
HETATM    9  C   UNL     1     -11.498  12.749  63.699  1.00  0.00    -0.544 A  
HETATM   10  O   UNL     1     -12.638  14.865  63.709  1.00  0.00    -0.791 OA 
HETATM   11  C   UNL     1     -12.148  13.779  64.372  1.00  0.00    -0.436 A  
ENDBRANCH   3   4
ENDBRANCH   2   3
BRANCH   2  12
HETATM   12  N   UNL     1     -11.569  10.376  68.894  1.00  0.00    -0.486 NA 
HETATM   13  H   UNL     1     -11.785   9.389  68.755  1.00  0.00     0.000 HD 
BRANCH  12  14
HETATM   14  C   UNL     1     -11.497  10.687  70.326  1.00  0.00    -0.337 C  
BRANCH  14  15
HETATM   15  C   UNL     1     -12.836  11.255  70.866  1.00  0.00    -0.251 C  
HETATM   16  H   UNL     1     -13.983  10.995  72.452  1.00  0.00     0.000 HD 
HETATM   17  O   UNL     1     -13.163  10.647  72.122  1.00  0.00    -0.464 OA 
BRANCH  15  18
HETATM   18  C   UNL     1     -12.772  12.762  71.039  1.00  0.00    -0.331 A  
HETATM   19  O   UNL     1     -13.774  15.365  73.443  1.00  0.00    -0.598 OA 
HETATM   20  C   UNL     1     -13.266  14.753  72.334  1.00  0.00    -0.389 A  
HETATM   21  C   UNL     1     -13.288  13.364  72.197  1.00  0.00    -0.613 A  
HETATM   22  C   UNL     1     -12.728  15.564  71.343  1.00  0.00    -0.517 A  
HETATM   23  H   UNL     1     -13.758  16.310  73.536  1.00  0.00     0.000 HD 
HETATM   24  C   UNL     1     -12.211  14.972  70.199  1.00  0.00    -0.343 A  
HETATM   25  O   UNL     1     -11.675  15.715  69.190  1.00  0.00    -0.353 OA 
HETATM   26  C   UNL     1     -12.227  13.589  70.042  1.00  0.00    -0.381 A  
HETATM   27  H   UNL     1     -11.321  15.309  68.406  1.00  0.00     0.000 HD 
ENDBRANCH  15  18
ENDBRANCH  14  15
ENDBRANCH  12  14
ENDBRANCH   2  12
TORSDOF 6
ENDMDL
MODEL       18
REMARK 921   NORMALIZED FREE ENERGY PREDICTED BY IDOCK:   -6.81 KCAL/MOL
REMARK 922        TOTAL FREE ENERGY PREDICTED BY IDOCK:   -9.81 KCAL/MOL
REMARK 923 INTER-LIGAND FREE ENERGY PREDICTED BY IDOCK:   -8.79 KCAL/MOL
REMARK 924 INTRA-LIGAND FREE ENERGY PREDICTED BY IDOCK:   -1.02 KCAL/MOL
REMARK 927      BINDING AFFINITY PREDICTED BY RF-SCORE:    0.00 PKD
ROOT
HETATM    1  C   UNL     1      -8.810  14.639  68.037  1.00  0.00    -0.169 C  
HETATM    2  C   UNL     1     -10.077  14.801  68.889  1.00  0.00    -0.237 C  
ENDROOT
BRANCH   2   3
HETATM    3  C   UNL     1     -11.093  15.661  68.092  1.00  0.00    -0.330 C  
BRANCH   3   4
HETATM    4  C   UNL     1     -10.658  17.085  67.832  1.00  0.00    -0.365 A  
HETATM    5  C   UNL     1      -9.955  19.249  68.685  1.00  0.00    -0.506 A  
HETATM    6  H   UNL     1      -9.165  21.547  67.949  1.00  0.00     0.000 HD 
HETATM    7  C   UNL     1     -10.517  17.572  66.525  1.00  0.00    -0.270 A  
HETATM    8  C   UNL     1     -10.381  17.940  68.909  1.00  0.00    -0.272 A  
HETATM    9  C   UNL     1     -10.092  18.884  66.299  1.00  0.00    -0.460 A  
HETATM   10  O   UNL     1      -9.361  20.985  67.209  1.00  0.00    -0.314 OA 
HETATM   11  C   UNL     1      -9.805  19.708  67.383  1.00  0.00    -0.368 A  
ENDBRANCH   3   4
ENDBRANCH   2   3
BRANCH   2  12
HETATM   12  N   UNL     1     -10.657  13.502  69.263  1.00  0.00    -0.441 NA 
HETATM   13  H   UNL     1     -11.013  13.532  70.218  1.00  0.00     0.000 HD 
BRANCH  12  14
HETATM   14  C   UNL     1     -11.694  13.018  68.345  1.00  0.00    -0.351 C  
BRANCH  14  15
HETATM   15  C   UNL     1     -11.202  11.820  67.490  1.00  0.00    -0.291 C  
HETATM   16  H   UNL     1     -11.666   9.913  67.269  1.00  0.00     0.000 HD 
HETATM   17  O   UNL     1     -11.967  10.646  67.793  1.00  0.00    -0.359 OA 
BRANCH  15  18
HETATM   18  C   UNL     1     -11.302  12.117  66.006  1.00  0.00    -0.410 A  
HETATM   19  O   UNL     1     -12.727  14.632  63.725  1.00  0.00    -0.877 OA 
HETATM   20  C   UNL     1     -12.083  13.523  64.188  1.00  0.00    -0.435 A  
HETATM   21  C   UNL     1     -11.956  13.274  65.556  1.00  0.00    -0.445 A  
HETATM   22  C   UNL     1     -11.560  12.644  63.248  1.00  0.00    -0.419 A  
HETATM   23  H   UNL     1     -12.813  14.801  62.794  1.00  0.00     0.000 HD 
HETATM   24  C   UNL     1     -10.907  11.501  63.688  1.00  0.00    -0.415 A  
HETATM   25  O   UNL     1     -10.377  10.599  62.814  1.00  0.00    -0.738 OA 
HETATM   26  C   UNL     1     -10.773  11.234  65.047  1.00  0.00    -0.322 A  
HETATM   27  H   UNL     1      -9.931   9.816  63.115  1.00  0.00     0.000 HD 
ENDBRANCH  15  18
ENDBRANCH  14  15
ENDBRANCH  12  14
ENDBRANCH   2  12
TORSDOF 6
ENDMDL
MODEL       19
REMARK 921   NORMALIZED FREE ENERGY PREDICTED BY IDOCK:   -6.79 KCAL/MOL
REMARK 922        TOTAL FREE ENERGY PREDICTED BY IDOCK:   -9.78 KCAL/MOL
REMARK 923 INTER-LIGAND FREE ENERGY PREDICTED BY IDOCK:   -8.79 KCAL/MOL
REMARK 924 INTRA-LIGAND FREE ENERGY PREDICTED BY IDOCK:   -0.99 KCAL/MOL
REMARK 927      BINDING AFFINITY PREDICTED BY RF-SCORE:    0.00 PKD
ROOT
HETATM    1  C   UNL     1      -9.566  15.653  69.254  1.00  0.00    -0.268 C  
HETATM    2  C   UNL     1     -10.876  15.060  68.715  1.00  0.00    -0.249 C  
ENDROOT
BRANCH   2   3
HETATM    3  C   UNL     1     -11.939  15.121  69.844  1.00  0.00    -0.372 C  
BRANCH   3   4
HETATM    4  C   UNL     1     -12.285  13.788  70.467  1.00  0.00    -0.440 A  
HETATM    5  C   UNL     1     -13.435  12.516  72.189  1.00  0.00    -0.523 A  
HETATM    6  H   UNL     1     -13.924  10.146  72.958  1.00  0.00     0.000 HD 
HETATM    7  C   UNL     1     -11.826  12.588  69.908  1.00  0.00    -0.373 A  
HETATM    8  C   UNL     1     -13.087  13.740  71.617  1.00  0.00    -0.456 A  
HETATM    9  C   UNL     1     -12.172  11.361  70.482  1.00  0.00    -0.478 A  
HETATM   10  O   UNL     1     -13.370  10.162  72.186  1.00  0.00    -0.441 OA 
HETATM   11  C   UNL     1     -12.984  11.337  71.612  1.00  0.00    -0.432 A  
ENDBRANCH   3   4
ENDBRANCH   2   3
BRANCH   2  12
HETATM   12  N   UNL     1     -11.341  15.762  67.508  1.00  0.00    -0.218 NA 
HETATM   13  H   UNL     1     -10.903  16.680  67.439  1.00  0.00     0.000 HD 
BRANCH  12  14
HETATM   14  C   UNL     1     -11.153  15.010  66.263  1.00  0.00    -0.334 C  
BRANCH  14  15
HETATM   15  C   UNL     1     -12.089  13.775  66.182  1.00  0.00    -0.441 C  
HETATM   16  H   UNL     1     -13.742  13.273  65.225  1.00  0.00     0.000 HD 
HETATM   17  O   UNL     1     -13.169  14.029  65.275  1.00  0.00    -0.782 OA 
BRANCH  15  18
HETATM   18  C   UNL     1     -11.338  12.535  65.734  1.00  0.00    -0.373 A  
HETATM   19  O   UNL     1     -10.362  10.797  62.638  1.00  0.00    -0.761 OA 
HETATM   20  C   UNL     1     -10.520  11.096  63.960  1.00  0.00    -0.383 A  
HETATM   21  C   UNL     1     -11.175  12.259  64.368  1.00  0.00    -0.389 A  
HETATM   22  C   UNL     1     -10.008  10.198  64.887  1.00  0.00    -0.358 A  
HETATM   23  H   UNL     1      -9.916  10.005  62.361  1.00  0.00     0.000 HD 
HETATM   24  C   UNL     1     -10.160  10.470  66.240  1.00  0.00    -0.232 A  
HETATM   25  O   UNL     1      -9.684   9.625  67.197  1.00  0.00    -0.160 OA 
HETATM   26  C   UNL     1     -10.813  11.622  66.667  1.00  0.00    -0.327 A  
HETATM   27  H   UNL     1      -9.788   9.811  68.123  1.00  0.00     0.000 HD 
ENDBRANCH  15  18
ENDBRANCH  14  15
ENDBRANCH  12  14
ENDBRANCH   2  12
TORSDOF 6
ENDMDL
MODEL       20
REMARK 921   NORMALIZED FREE ENERGY PREDICTED BY IDOCK:   -6.78 KCAL/MOL
REMARK 922        TOTAL FREE ENERGY PREDICTED BY IDOCK:   -9.77 KCAL/MOL
REMARK 923 INTER-LIGAND FREE ENERGY PREDICTED BY IDOCK:   -8.84 KCAL/MOL
REMARK 924 INTRA-LIGAND FREE ENERGY PREDICTED BY IDOCK:   -0.93 KCAL/MOL
REMARK 927      BINDING AFFINITY PREDICTED BY RF-SCORE:    0.00 PKD
ROOT
HETATM    1  C   UNL     1     -12.245  16.025  72.980  1.00  0.00    -0.637 C  
HETATM    2  C   UNL     1     -11.906  15.245  71.702  1.00  0.00    -0.388 C  
ENDROOT
BRANCH   2   3
HETATM    3  C   UNL     1     -13.124  14.354  71.338  1.00  0.00    -0.416 C  
BRANCH   3   4
HETATM    4  C   UNL     1     -12.817  12.882  71.187  1.00  0.00    -0.326 A  
HETATM    5  C   UNL     1     -11.663  11.092  70.018  1.00  0.00    -0.438 A  
HETATM    6  H   UNL     1     -11.256   8.586  70.063  1.00  0.00     0.000 HD 
HETATM    7  C   UNL     1     -13.353  11.937  72.073  1.00  0.00    -0.425 A  
HETATM    8  C   UNL     1     -11.975  12.445  70.154  1.00  0.00    -0.376 A  
HETATM    9  C   UNL     1     -13.042  10.581  71.936  1.00  0.00    -0.567 A  
HETATM   10  O   UNL     1     -11.837   8.864  70.761  1.00  0.00    -0.273 OA 
HETATM   11  C   UNL     1     -12.191  10.173  70.914  1.00  0.00    -0.356 A  
ENDBRANCH   3   4
ENDBRANCH   2   3
BRANCH   2  12
HETATM   12  N   UNL     1     -11.550  16.140  70.590  1.00  0.00    -0.481 NA 
HETATM   13  H   UNL     1     -11.026  16.944  70.934  1.00  0.00     0.000 HD 
BRANCH  12  14
HETATM   14  C   UNL     1     -10.824  15.485  69.497  1.00  0.00    -0.267 C  
BRANCH  14  15
HETATM   15  C   UNL     1     -11.486  15.746  68.119  1.00  0.00    -0.302 C  
HETATM   16  H   UNL     1     -11.382  17.117  66.701  1.00  0.00     0.000 HD 
HETATM   17  O   UNL     1     -10.976  16.957  67.544  1.00  0.00    -0.254 OA 
BRANCH  15  18
HETATM   18  C   UNL     1     -11.249  14.596  67.158  1.00  0.00    -0.349 A  
HETATM   19  O   UNL     1     -13.088  12.529  64.729  1.00  0.00    -0.853 OA 
HETATM   20  C   UNL     1     -12.084  13.027  65.506  1.00  0.00    -0.452 A  
HETATM   21  C   UNL     1     -12.295  14.113  66.358  1.00  0.00    -0.431 A  
HETATM   22  C   UNL     1     -10.842  12.412  65.422  1.00  0.00    -0.320 A  
HETATM   23  H   UNL     1     -12.944  11.791  64.149  1.00  0.00     0.000 HD 
HETATM   24  C   UNL     1      -9.802  12.890  66.208  1.00  0.00    -0.273 A  
HETATM   25  O   UNL     1      -8.562  12.325  66.174  1.00  0.00    -0.399 OA 
HETATM   26  C   UNL     1      -9.993  13.969  67.065  1.00  0.00    -0.257 A  
HETATM   27  H   UNL     1      -7.850  12.652  66.711  1.00  0.00     0.000 HD 
ENDBRANCH  15  18
ENDBRANCH  14  15
ENDBRANCH  12  14
ENDBRANCH   2  12
TORSDOF 6
ENDMDL
MODEL       21
REMARK 921   NORMALIZED FREE ENERGY PREDICTED BY IDOCK:   -6.78 KCAL/MOL
REMARK 922        TOTAL FREE ENERGY PREDICTED BY IDOCK:   -9.77 KCAL/MOL
REMARK 923 INTER-LIGAND FREE ENERGY PREDICTED BY IDOCK:   -8.84 KCAL/MOL
REMARK 924 INTRA-LIGAND FREE ENERGY PREDICTED BY IDOCK:   -0.92 KCAL/MOL
REMARK 927      BINDING AFFINITY PREDICTED BY RF-SCORE:    0.00 PKD
ROOT
HETATM    1  C   UNL     1     -10.654  15.701  69.559  1.00  0.00    -0.266 C  
HETATM    2  C   UNL     1     -11.533  14.504  69.172  1.00  0.00    -0.294 C  
ENDROOT
BRANCH   2   3
HETATM    3  C   UNL     1     -12.362  14.087  70.416  1.00  0.00    -0.429 C  
BRANCH   3   4
HETATM    4  C   UNL     1     -12.389  12.602  70.697  1.00  0.00    -0.375 A  
HETATM    5  C   UNL     1     -13.162  10.740  72.053  1.00  0.00    -0.466 A  
HETATM    6  H   UNL     1     -13.101   8.207  72.224  1.00  0.00     0.000 HD 
HETATM    7  C   UNL     1     -11.711  11.697  69.868  1.00  0.00    -0.414 A  
HETATM    8  C   UNL     1     -13.108  12.109  71.796  1.00  0.00    -0.457 A  
HETATM    9  C   UNL     1     -11.763  10.324  70.126  1.00  0.00    -0.364 A  
HETATM   10  O   UNL     1     -12.599   8.525  71.483  1.00  0.00    -0.309 OA 
HETATM   11  C   UNL     1     -12.498   9.858  71.212  1.00  0.00    -0.381 A  
ENDBRANCH   3   4
ENDBRANCH   2   3
BRANCH   2  12
HETATM   12  N   UNL     1     -12.407  14.811  68.029  1.00  0.00    -0.559 NA 
HETATM   13  H   UNL     1     -12.886  15.699  68.175  1.00  0.00     0.000 HD 
BRANCH  12  14
HETATM   14  C   UNL     1     -11.726  14.805  66.730  1.00  0.00    -0.298 C  
BRANCH  14  15
HETATM   15  C   UNL     1     -12.411  13.849  65.718  1.00  0.00    -0.495 C  
HETATM   16  H   UNL     1     -13.130  13.961  63.882  1.00  0.00     0.000 HD 
HETATM   17  O   UNL     1     -12.710  14.546  64.501  1.00  0.00    -0.653 OA 
BRANCH  15  18
HETATM   18  C   UNL     1     -11.539  12.647  65.407  1.00  0.00    -0.400 A  
HETATM   19  O   UNL     1      -9.379  10.213  67.130  1.00  0.00    -0.150 OA 
HETATM   20  C   UNL     1     -10.044  10.885  66.147  1.00  0.00    -0.239 A  
HETATM   21  C   UNL     1     -10.879  11.964  66.440  1.00  0.00    -0.318 A  
HETATM   22  C   UNL     1      -9.856  10.457  64.839  1.00  0.00    -0.400 A  
HETATM   23  H   UNL     1      -8.811   9.478  66.930  1.00  0.00     0.000 HD 
HETATM   24  C   UNL     1     -10.512  11.126  63.814  1.00  0.00    -0.381 A  
HETATM   25  O   UNL     1     -10.364  10.757  62.510  1.00  0.00    -0.748 OA 
HETATM   26  C   UNL     1     -11.346  12.207  64.086  1.00  0.00    -0.449 A  
HETATM   27  H   UNL     1     -10.813  11.216  61.808  1.00  0.00     0.000 HD 
ENDBRANCH  15  18
ENDBRANCH  14  15
ENDBRANCH  12  14
ENDBRANCH   2  12
TORSDOF 6
ENDMDL
MODEL       22
REMARK 921   NORMALIZED FREE ENERGY PREDICTED BY IDOCK:   -6.78 KCAL/MOL
REMARK 922        TOTAL FREE ENERGY PREDICTED BY IDOCK:   -9.76 KCAL/MOL
REMARK 923 INTER-LIGAND FREE ENERGY PREDICTED BY IDOCK:   -8.62 KCAL/MOL
REMARK 924 INTRA-LIGAND FREE ENERGY PREDICTED BY IDOCK:   -1.14 KCAL/MOL
REMARK 927      BINDING AFFINITY PREDICTED BY RF-SCORE:    0.00 PKD
ROOT
HETATM    1  C   UNL     1     -11.410  12.424  66.867  1.00  0.00    -0.392 C  
HETATM    2  C   UNL     1     -11.982  13.596  67.676  1.00  0.00    -0.351 C  
ENDROOT
BRANCH   2   3
HETATM    3  C   UNL     1     -11.080  13.814  68.921  1.00  0.00    -0.300 C  
BRANCH   3   4
HETATM    4  C   UNL     1     -11.783  14.398  70.124  1.00  0.00    -0.361 A  
HETATM    5  C   UNL     1     -11.863  16.044  71.909  1.00  0.00    -0.619 A  
HETATM    6  H   UNL     1     -13.306  16.871  73.829  1.00  0.00     0.000 HD 
HETATM    7  C   UNL     1     -13.011  13.883  70.565  1.00  0.00    -0.160 A  
HETATM    8  C   UNL     1     -11.213  15.479  70.812  1.00  0.00    -0.384 A  
HETATM    9  C   UNL     1     -13.661  14.448  71.666  1.00  0.00    -0.484 A  
HETATM   10  O   UNL     1     -13.699  16.131  73.382  1.00  0.00    -0.601 OA 
HETATM   11  C   UNL     1     -13.085  15.531  72.322  1.00  0.00    -0.430 A  
ENDBRANCH   3   4
ENDBRANCH   2   3
BRANCH   2  12
HETATM   12  N   UNL     1     -12.081  14.823  66.870  1.00  0.00    -0.366 NA 
HETATM   13  H   UNL     1     -11.647  15.606  67.358  1.00  0.00     0.000 HD 
BRANCH  12  14
HETATM   14  C   UNL     1     -11.537  14.700  65.514  1.00  0.00    -0.335 C  
BRANCH  14  15
HETATM   15  C   UNL     1     -10.575  15.865  65.165  1.00  0.00    -0.397 C  
HETATM   16  H   UNL     1     -10.684  17.598  64.223  1.00  0.00     0.000 HD 
HETATM   17  O   UNL     1     -11.273  16.884  64.436  1.00  0.00    -1.159 OA 
BRANCH  15  18
HETATM   18  C   UNL     1      -9.959  16.472  66.412  1.00  0.00    -0.318 A  
HETATM   19  O   UNL     1     -10.460  19.305  68.710  1.00  0.00    -0.488 OA 
HETATM   20  C   UNL     1      -9.935  18.190  68.125  1.00  0.00    -0.359 A  
HETATM   21  C   UNL     1     -10.529  17.610  67.003  1.00  0.00    -0.305 A  
HETATM   22  C   UNL     1      -8.784  17.653  68.686  1.00  0.00    -0.266 A  
HETATM   23  H   UNL     1     -10.057  19.699  69.473  1.00  0.00     0.000 HD 
HETATM   24  C   UNL     1      -8.220  16.524  68.109  1.00  0.00    -0.181 A  
HETATM   25  O   UNL     1      -7.088  15.954  68.610  1.00  0.00    -0.123 OA 
HETATM   26  C   UNL     1      -8.795  15.933  66.988  1.00  0.00    -0.240 A  
HETATM   27  H   UNL     1      -6.702  15.181  68.215  1.00  0.00     0.000 HD 
ENDBRANCH  15  18
ENDBRANCH  14  15
ENDBRANCH  12  14
ENDBRANCH   2  12
TORSDOF 6
ENDMDL
MODEL       23
REMARK 921   NORMALIZED FREE ENERGY PREDICTED BY IDOCK:   -6.77 KCAL/MOL
REMARK 922        TOTAL FREE ENERGY PREDICTED BY IDOCK:   -9.76 KCAL/MOL
REMARK 923 INTER-LIGAND FREE ENERGY PREDICTED BY IDOCK:   -8.65 KCAL/MOL
REMARK 924 INTRA-LIGAND FREE ENERGY PREDICTED BY IDOCK:   -1.11 KCAL/MOL
REMARK 927      BINDING AFFINITY PREDICTED BY RF-SCORE:    0.00 PKD
ROOT
HETATM    1  C   UNL     1      -9.472   9.809  65.337  1.00  0.00    -0.333 C  
HETATM    2  C   UNL     1      -9.873  10.777  66.459  1.00  0.00    -0.203 C  
ENDROOT
BRANCH   2   3
HETATM    3  C   UNL     1     -11.259  11.382  66.107  1.00  0.00    -0.203 C  
BRANCH   3   4
HETATM    4  C   UNL     1     -11.222  12.801  65.588  1.00  0.00    -0.335 A  
HETATM    5  C   UNL     1     -12.295  14.621  64.388  1.00  0.00    -0.420 A  
HETATM    6  H   UNL     1     -11.994  17.053  63.722  1.00  0.00     0.000 HD 
HETATM    7  C   UNL     1     -10.122  13.634  65.836  1.00  0.00    -0.320 A  
HETATM    8  C   UNL     1     -12.305  13.306  64.852  1.00  0.00    -0.476 A  
HETATM    9  C   UNL     1     -10.110  14.951  65.369  1.00  0.00    -0.400 A  
HETATM   10  O   UNL     1     -11.248  16.722  64.208  1.00  0.00    -1.163 OA 
HETATM   11  C   UNL     1     -11.204  15.436  64.657  1.00  0.00    -0.364 A  
ENDBRANCH   3   4
ENDBRANCH   2   3
BRANCH   2  12
HETATM   12  N   UNL     1      -9.900  10.115  67.772  1.00  0.00    -0.159 NA 
HETATM   13  H   UNL     1      -9.096   9.496  67.876  1.00  0.00     0.000 HD 
BRANCH  12  14
HETATM   14  C   UNL     1      -9.989  11.035  68.911  1.00  0.00    -0.188 C  
BRANCH  14  15
HETATM   15  C   UNL     1     -11.297  10.836  69.720  1.00  0.00    -0.300 C  
HETATM   16  H   UNL     1     -11.845   9.920  71.382  1.00  0.00     0.000 HD 
HETATM   17  O   UNL     1     -11.044  10.042  70.887  1.00  0.00    -0.328 OA 
BRANCH  15  18
HETATM   18  C   UNL     1     -11.902  12.164  70.137  1.00  0.00    -0.368 A  
HETATM   19  O   UNL     1     -13.980  13.593  72.820  1.00  0.00    -0.725 OA 
HETATM   20  C   UNL     1     -13.238  13.475  71.682  1.00  0.00    -0.366 A  
HETATM   21  C   UNL     1     -12.648  12.262  71.322  1.00  0.00    -0.336 A  
HETATM   22  C   UNL     1     -13.093  14.606  70.889  1.00  0.00    -0.416 A  
HETATM   23  H   UNL     1     -14.382  14.419  73.064  1.00  0.00     0.000 HD 
HETATM   24  C   UNL     1     -12.351  14.515  69.719  1.00  0.00    -0.272 A  
HETATM   25  O   UNL     1     -12.177  15.589  68.898  1.00  0.00    -0.590 OA 
HETATM   26  C   UNL     1     -11.758  13.314  69.342  1.00  0.00    -0.383 A  
HETATM   27  H   UNL     1     -11.669  15.527  68.097  1.00  0.00     0.000 HD 
ENDBRANCH  15  18
ENDBRANCH  14  15
ENDBRANCH  12  14
ENDBRANCH   2  12
TORSDOF 6
ENDMDL
MODEL       24
REMARK 921   NORMALIZED FREE ENERGY PREDICTED BY IDOCK:   -6.76 KCAL/MOL
REMARK 922        TOTAL FREE ENERGY PREDICTED BY IDOCK:   -9.74 KCAL/MOL
REMARK 923 INTER-LIGAND FREE ENERGY PREDICTED BY IDOCK:   -8.56 KCAL/MOL
REMARK 924 INTRA-LIGAND FREE ENERGY PREDICTED BY IDOCK:   -1.18 KCAL/MOL
REMARK 927      BINDING AFFINITY PREDICTED BY RF-SCORE:    0.00 PKD
ROOT
HETATM    1  C   UNL     1      -9.276  10.319  65.720  1.00  0.00    -0.215 C  
HETATM    2  C   UNL     1     -10.073  11.049  66.811  1.00  0.00    -0.220 C  
ENDROOT
BRANCH   2   3
HETATM    3  C   UNL     1     -11.364  11.622  66.169  1.00  0.00    -0.275 C  
BRANCH   3   4
HETATM    4  C   UNL     1     -11.256  13.050  65.684  1.00  0.00    -0.310 A  
HETATM    5  C   UNL     1     -12.157  14.895  64.385  1.00  0.00    -0.417 A  
HETATM    6  H   UNL     1     -11.766  17.337  63.809  1.00  0.00     0.000 HD 
HETATM    7  C   UNL     1     -10.197  13.874  66.091  1.00  0.00    -0.307 A  
HETATM    8  C   UNL     1     -12.230  13.572  64.821  1.00  0.00    -0.450 A  
HETATM    9  C   UNL     1     -10.122  15.199  65.653  1.00  0.00    -0.392 A  
HETATM   10  O   UNL     1     -11.091  16.995  64.384  1.00  0.00    -1.144 OA 
HETATM   11  C   UNL     1     -11.110  15.700  64.811  1.00  0.00    -0.412 A  
ENDBRANCH   3   4
ENDBRANCH   2   3
BRANCH   2  12
HETATM   12  N   UNL     1     -10.389  10.165  67.944  1.00  0.00    -0.181 NA 
HETATM   13  H   UNL     1      -9.815   9.323  67.910  1.00  0.00     0.000 HD 
BRANCH  12  14
HETATM   14  C   UNL     1     -10.280  10.807  69.259  1.00  0.00    -0.194 C  
BRANCH  14  15
HETATM   15  C   UNL     1     -11.637  10.825  70.011  1.00  0.00    -0.334 C  
HETATM   16  H   UNL     1     -12.352  10.144  71.721  1.00  0.00     0.000 HD 
HETATM   17  O   UNL     1     -11.521  10.133  71.261  1.00  0.00    -0.353 OA 
BRANCH  15  18
HETATM   18  C   UNL     1     -12.114  12.243  70.264  1.00  0.00    -0.376 A  
HETATM   19  O   UNL     1     -12.019  15.572  68.693  1.00  0.00    -0.517 OA 
HETATM   20  C   UNL     1     -12.265  14.567  69.581  1.00  0.00    -0.292 A  
HETATM   21  C   UNL     1     -11.861  13.255  69.326  1.00  0.00    -0.383 A  
HETATM   22  C   UNL     1     -12.931  14.897  70.755  1.00  0.00    -0.418 A  
HETATM   23  H   UNL     1     -12.294  16.464  68.867  1.00  0.00     0.000 HD 
HETATM   24  C   UNL     1     -13.189  13.898  71.683  1.00  0.00    -0.370 A  
HETATM   25  O   UNL     1     -13.835  14.160  72.855  1.00  0.00    -0.639 OA 
HETATM   26  C   UNL     1     -12.792  12.585  71.448  1.00  0.00    -0.359 A  
HETATM   27  H   UNL     1     -14.011  13.477  73.491  1.00  0.00     0.000 HD 
ENDBRANCH  15  18
ENDBRANCH  14  15
ENDBRANCH  12  14
ENDBRANCH   2  12
TORSDOF 6
ENDMDL
MODEL       25
REMARK 921   NORMALIZED FREE ENERGY PREDICTED BY IDOCK:   -6.74 KCAL/MOL
REMARK 922        TOTAL FREE ENERGY PREDICTED BY IDOCK:   -9.72 KCAL/MOL
REMARK 923 INTER-LIGAND FREE ENERGY PREDICTED BY IDOCK:   -9.06 KCAL/MOL
REMARK 924 INTRA-LIGAND FREE ENERGY PREDICTED BY IDOCK:   -0.66 KCAL/MOL
REMARK 927      BINDING AFFINITY PREDICTED BY RF-SCORE:    0.00 PKD
ROOT
HETATM    1  C   UNL     1      -9.808  18.312  66.634  1.00  0.00    -0.354 C  
HETATM    2  C   UNL     1     -10.182  16.865  66.986  1.00  0.00    -0.297 C  
ENDROOT
BRANCH   2   3
HETATM    3  C   UNL     1      -9.489  15.922  65.967  1.00  0.00    -0.389 C  
BRANCH   3   4
HETATM    4  C   UNL     1     -10.397  14.902  65.320  1.00  0.00    -0.424 A  
HETATM    5  C   UNL     1     -12.392  14.393  64.030  1.00  0.00    -0.243 A  
HETATM    6  H   UNL     1     -13.674  12.474  62.969  1.00  0.00     0.000 HD 
HETATM    7  C   UNL     1     -10.097  13.533  65.367  1.00  0.00    -0.279 A  
HETATM    8  C   UNL     1     -11.557  15.320  64.652  1.00  0.00    -0.333 A  
HETATM    9  C   UNL     1     -10.934  12.602  64.745  1.00  0.00    -0.334 A  
HETATM   10  O   UNL     1     -12.898  12.173  63.428  1.00  0.00    -0.765 OA 
HETATM   11  C   UNL     1     -12.070  13.043  64.073  1.00  0.00    -0.450 A  
ENDBRANCH   3   4
ENDBRANCH   2   3
BRANCH   2  12
HETATM   12  N   UNL     1      -9.809  16.522  68.367  1.00  0.00    -0.229 NA 
HETATM   13  H   UNL     1      -9.116  17.180  68.723  1.00  0.00     0.000 HD 
BRANCH  12  14
HETATM   14  C   UNL     1     -10.944  16.424  69.292  1.00  0.00    -0.322 C  
BRANCH  14  15
HETATM   15  C   UNL     1     -11.714  15.088  69.129  1.00  0.00    -0.319 C  
HETATM   16  H   UNL     1     -11.294  13.231  68.601  1.00  0.00     0.000 HD 
HETATM   17  O   UNL     1     -10.823  14.050  68.701  1.00  0.00    -0.243 OA 
BRANCH  15  18
HETATM   18  C   UNL     1     -12.386  14.670  70.424  1.00  0.00    -0.399 A  
HETATM   19  O   UNL     1     -13.354  11.615  72.238  1.00  0.00    -0.625 OA 
HETATM   20  C   UNL     1     -13.187  12.929  71.913  1.00  0.00    -0.423 A  
HETATM   21  C   UNL     1     -12.531  13.311  70.741  1.00  0.00    -0.403 A  
HETATM   22  C   UNL     1     -13.696  13.877  72.791  1.00  0.00    -0.413 A  
HETATM   23  H   UNL     1     -13.800  11.356  73.035  1.00  0.00     0.000 HD 
HETATM   24  C   UNL     1     -13.550  15.223  72.484  1.00  0.00    -0.510 A  
HETATM   25  O   UNL     1     -14.033  16.200  73.303  1.00  0.00    -0.756 OA 
HETATM   26  C   UNL     1     -12.902  15.623  71.319  1.00  0.00    -0.550 A  
HETATM   27  H   UNL     1     -13.933  17.121  73.093  1.00  0.00     0.000 HD 
ENDBRANCH  15  18
ENDBRANCH  14  15
ENDBRANCH  12  14
ENDBRANCH   2  12
TORSDOF 6
ENDMDL
MODEL       26
REMARK 921   NORMALIZED FREE ENERGY PREDICTED BY IDOCK:   -6.74 KCAL/MOL
REMARK 922        TOTAL FREE ENERGY PREDICTED BY IDOCK:   -9.71 KCAL/MOL
REMARK 923 INTER-LIGAND FREE ENERGY PREDICTED BY IDOCK:   -9.28 KCAL/MOL
REMARK 924 INTRA-LIGAND FREE ENERGY PREDICTED BY IDOCK:   -0.42 KCAL/MOL
REMARK 927      BINDING AFFINITY PREDICTED BY RF-SCORE:    0.00 PKD
ROOT
HETATM    1  C   UNL     1     -10.466  14.831  67.437  1.00  0.00    -0.256 C  
HETATM    2  C   UNL     1     -10.514  14.136  68.804  1.00  0.00    -0.247 C  
ENDROOT
BRANCH   2   3
HETATM    3  C   UNL     1     -11.996  14.063  69.260  1.00  0.00    -0.396 C  
BRANCH   3   4
HETATM    4  C   UNL     1     -12.279  14.670  70.615  1.00  0.00    -0.394 A  
HETATM    5  C   UNL     1     -13.532  14.659  72.696  1.00  0.00    -0.580 A  
HETATM    6  H   UNL     1     -13.722  15.826  74.944  1.00  0.00     0.000 HD 
HETATM    7  C   UNL     1     -11.548  15.774  71.079  1.00  0.00    -0.453 A  
HETATM    8  C   UNL     1     -13.278  14.124  71.434  1.00  0.00    -0.418 A  
HETATM    9  C   UNL     1     -11.804  16.312  72.344  1.00  0.00    -0.606 A  
HETATM   10  O   UNL     1     -13.051  16.216  74.396  1.00  0.00    -0.516 OA 
HETATM   11  C   UNL     1     -12.788  15.742  73.145  1.00  0.00    -0.522 A  
ENDBRANCH   3   4
ENDBRANCH   2   3
BRANCH   2  12
HETATM   12  N   UNL     1      -9.904  12.799  68.763  1.00  0.00    -0.422 NA 
HETATM   13  H   UNL     1      -9.444  12.589  69.649  1.00  0.00     0.000 HD 
BRANCH  12  14
HETATM   14  C   UNL     1     -10.832  11.722  68.400  1.00  0.00    -0.223 C  
BRANCH  14  15
HETATM   15  C   UNL     1     -10.252  10.801  67.295  1.00  0.00    -0.205 C  
HETATM   16  H   UNL     1     -10.382   8.898  66.783  1.00  0.00     0.000 HD 
HETATM   17  O   UNL     1     -10.737   9.462  67.460  1.00  0.00    -0.280 OA 
BRANCH  15  18
HETATM   18  C   UNL     1     -10.613  11.299  65.908  1.00  0.00    -0.309 A  
HETATM   19  O   UNL     1     -12.667  13.893  64.292  1.00  0.00    -0.664 OA 
HETATM   20  C   UNL     1     -11.828  12.833  64.473  1.00  0.00    -0.379 A  
HETATM   21  C   UNL     1     -11.465  12.403  65.751  1.00  0.00    -0.416 A  
HETATM   22  C   UNL     1     -11.350  12.192  63.337  1.00  0.00    -0.495 A  
HETATM   23  H   UNL     1     -12.913  14.185  63.423  1.00  0.00     0.000 HD 
HETATM   24  C   UNL     1     -10.501  11.103  63.488  1.00  0.00    -0.358 A  
HETATM   25  O   UNL     1     -10.004  10.430  62.413  1.00  0.00    -0.733 OA 
HETATM   26  C   UNL     1     -10.131  10.658  64.753  1.00  0.00    -0.412 A  
HETATM   27  H   UNL     1      -9.423   9.685  62.516  1.00  0.00     0.000 HD 
ENDBRANCH  15  18
ENDBRANCH  14  15
ENDBRANCH  12  14
ENDBRANCH   2  12
TORSDOF 6
ENDMDL
MODEL       27
REMARK 921   NORMALIZED FREE ENERGY PREDICTED BY IDOCK:   -6.72 KCAL/MOL
REMARK 922        TOTAL FREE ENERGY PREDICTED BY IDOCK:   -9.69 KCAL/MOL
REMARK 923 INTER-LIGAND FREE ENERGY PREDICTED BY IDOCK:   -8.76 KCAL/MOL
REMARK 924 INTRA-LIGAND FREE ENERGY PREDICTED BY IDOCK:   -0.93 KCAL/MOL
REMARK 927      BINDING AFFINITY PREDICTED BY RF-SCORE:    0.00 PKD
ROOT
HETATM    1  C   UNL     1     -11.020  15.413  70.011  1.00  0.00    -0.313 C  
HETATM    2  C   UNL     1     -11.711  14.184  69.404  1.00  0.00    -0.313 C  
ENDROOT
BRANCH   2   3
HETATM    3  C   UNL     1     -12.582  13.522  70.506  1.00  0.00    -0.311 C  
BRANCH   3   4
HETATM    4  C   UNL     1     -12.330  12.047  70.719  1.00  0.00    -0.403 A  
HETATM    5  C   UNL     1     -11.080  10.036  70.177  1.00  0.00    -0.371 A  
HETATM    6  H   UNL     1     -10.819   7.591  70.809  1.00  0.00     0.000 HD 
HETATM    7  C   UNL     1     -13.065  11.318  71.664  1.00  0.00    -0.513 A  
HETATM    8  C   UNL     1     -11.340  11.391  69.973  1.00  0.00    -0.260 A  
HETATM    9  C   UNL     1     -12.805   9.959  71.868  1.00  0.00    -0.524 A  
HETATM   10  O   UNL     1     -11.501   8.018  71.314  1.00  0.00    -0.259 OA 
HETATM   11  C   UNL     1     -11.807   9.333  71.128  1.00  0.00    -0.325 A  
ENDBRANCH   3   4
ENDBRANCH   2   3
BRANCH   2  12
HETATM   12  N   UNL     1     -12.519  14.534  68.226  1.00  0.00    -0.517 NA 
HETATM   13  H   UNL     1     -12.950  15.450  68.349  1.00  0.00     0.000 HD 
BRANCH  12  14
HETATM   14  C   UNL     1     -11.789  14.477  66.955  1.00  0.00    -0.377 C  
BRANCH  14  15
HETATM   15  C   UNL     1     -12.469  13.527  65.935  1.00  0.00    -0.429 C  
HETATM   16  H   UNL     1     -13.299  13.676  64.149  1.00  0.00     0.000 HD 
HETATM   17  O   UNL     1     -12.883  14.259  64.773  1.00  0.00    -0.671 OA 
BRANCH  15  18
HETATM   18  C   UNL     1     -11.541  12.402  65.516  1.00  0.00    -0.432 A  
HETATM   19  O   UNL     1     -10.232  10.820  62.460  1.00  0.00    -0.741 OA 
HETATM   20  C   UNL     1     -10.474  11.092  63.774  1.00  0.00    -0.381 A  
HETATM   21  C   UNL     1     -11.296  12.154  64.157  1.00  0.00    -0.449 A  
HETATM   22  C   UNL     1      -9.875  10.271  64.721  1.00  0.00    -0.403 A  
HETATM   23  H   UNL     1      -9.672  10.098  62.200  1.00  0.00     0.000 HD 
HETATM   24  C   UNL     1     -10.110  10.516  66.067  1.00  0.00    -0.256 A  
HETATM   25  O   UNL     1      -9.555   9.742  67.042  1.00  0.00    -0.161 OA 
HETATM   26  C   UNL     1     -10.928  11.568  66.468  1.00  0.00    -0.346 A  
HETATM   27  H   UNL     1      -9.716   9.910  67.963  1.00  0.00     0.000 HD 
ENDBRANCH  15  18
ENDBRANCH  14  15
ENDBRANCH  12  14
ENDBRANCH   2  12
TORSDOF 6
ENDMDL
MODEL       28
REMARK 921   NORMALIZED FREE ENERGY PREDICTED BY IDOCK:   -6.70 KCAL/MOL
REMARK 922        TOTAL FREE ENERGY PREDICTED BY IDOCK:   -9.66 KCAL/MOL
REMARK 923 INTER-LIGAND FREE ENERGY PREDICTED BY IDOCK:   -8.68 KCAL/MOL
REMARK 924 INTRA-LIGAND FREE ENERGY PREDICTED BY IDOCK:   -0.98 KCAL/MOL
REMARK 927      BINDING AFFINITY PREDICTED BY RF-SCORE:    0.00 PKD
ROOT
HETATM    1  C   UNL     1     -11.033  11.359  66.696  1.00  0.00    -0.341 C  
HETATM    2  C   UNL     1     -11.419  12.822  66.959  1.00  0.00    -0.341 C  
ENDROOT
BRANCH   2   3
HETATM    3  C   UNL     1     -10.752  13.269  68.287  1.00  0.00    -0.267 C  
BRANCH   3   4
HETATM    4  C   UNL     1     -11.674  13.306  69.484  1.00  0.00    -0.384 A  
HETATM    5  C   UNL     1     -13.149  14.557  70.954  1.00  0.00    -0.405 A  
HETATM    6  H   UNL     1     -14.712  14.299  72.939  1.00  0.00     0.000 HD 
HETATM    7  C   UNL     1     -11.949  12.145  70.221  1.00  0.00    -0.389 A  
HETATM    8  C   UNL     1     -12.277  14.513  69.867  1.00  0.00    -0.379 A  
HETATM    9  C   UNL     1     -12.821  12.189  71.312  1.00  0.00    -0.349 A  
HETATM   10  O   UNL     1     -14.302  13.476  72.700  1.00  0.00    -0.716 OA 
HETATM   11  C   UNL     1     -13.422  13.394  71.662  1.00  0.00    -0.299 A  
ENDBRANCH   3   4
ENDBRANCH   2   3
BRANCH   2  12
HETATM   12  N   UNL     1     -11.030  13.701  65.846  1.00  0.00    -0.281 NA 
HETATM   13  H   UNL     1     -11.208  13.244  64.951  1.00  0.00     0.000 HD 
BRANCH  12  14
HETATM   14  C   UNL     1     -11.657  15.027  65.876  1.00  0.00    -0.165 C  
BRANCH  14  15
HETATM   15  C   UNL     1     -10.692  16.139  65.390  1.00  0.00    -0.358 C  
HETATM   16  H   UNL     1     -10.595  17.414  63.885  1.00  0.00     0.000 HD 
HETATM   17  O   UNL     1     -11.186  16.733  64.182  1.00  0.00    -1.155 OA 
BRANCH  15  18
HETATM   18  C   UNL     1     -10.508  17.217  66.441  1.00  0.00    -0.263 A  
HETATM   19  O   UNL     1      -9.601  20.777  66.698  1.00  0.00    -0.652 OA 
HETATM   20  C   UNL     1      -9.953  19.503  67.037  1.00  0.00    -0.378 A  
HETATM   21  C   UNL     1     -10.162  18.524  66.064  1.00  0.00    -0.371 A  
HETATM   22  C   UNL     1     -10.093  19.214  68.388  1.00  0.00    -0.498 A  
HETATM   23  H   UNL     1      -9.459  21.443  67.360  1.00  0.00     0.000 HD 
HETATM   24  C   UNL     1     -10.441  17.924  68.766  1.00  0.00    -0.210 A  
HETATM   25  O   UNL     1     -10.588  17.578  70.076  1.00  0.00    -0.137 OA 
HETATM   26  C   UNL     1     -10.650  16.933  67.811  1.00  0.00    -0.340 A  
HETATM   27  H   UNL     1     -10.826  16.695  70.334  1.00  0.00     0.000 HD 
ENDBRANCH  15  18
ENDBRANCH  14  15
ENDBRANCH  12  14
ENDBRANCH   2  12
TORSDOF 6
ENDMDL
MODEL       29
REMARK 921   NORMALIZED FREE ENERGY PREDICTED BY IDOCK:   -6.70 KCAL/MOL
REMARK 922        TOTAL FREE ENERGY PREDICTED BY IDOCK:   -9.66 KCAL/MOL
REMARK 923 INTER-LIGAND FREE ENERGY PREDICTED BY IDOCK:   -8.86 KCAL/MOL
REMARK 924 INTRA-LIGAND FREE ENERGY PREDICTED BY IDOCK:   -0.80 KCAL/MOL
REMARK 927      BINDING AFFINITY PREDICTED BY RF-SCORE:    0.00 PKD
ROOT
HETATM    1  C   UNL     1      -8.840  14.817  68.699  1.00  0.00    -0.180 C  
HETATM    2  C   UNL     1     -10.177  15.250  69.317  1.00  0.00    -0.250 C  
ENDROOT
BRANCH   2   3
HETATM    3  C   UNL     1     -10.847  16.271  68.358  1.00  0.00    -0.334 C  
BRANCH   3   4
HETATM    4  C   UNL     1     -10.010  17.487  68.034  1.00  0.00    -0.310 A  
HETATM    5  C   UNL     1      -9.144  19.665  68.674  1.00  0.00    -0.341 A  
HETATM    6  H   UNL     1      -7.599  21.527  67.903  1.00  0.00     0.000 HD 
HETATM    7  C   UNL     1      -9.297  17.574  66.830  1.00  0.00    -0.275 A  
HETATM    8  C   UNL     1      -9.931  18.547  68.949  1.00  0.00    -0.383 A  
HETATM    9  C   UNL     1      -8.508  18.694  66.553  1.00  0.00    -0.302 A  
HETATM   10  O   UNL     1      -7.652  20.823  67.267  1.00  0.00    -0.346 OA 
HETATM   11  C   UNL     1      -8.432  19.726  67.484  1.00  0.00    -0.322 A  
ENDBRANCH   3   4
ENDBRANCH   2   3
BRANCH   2  12
HETATM   12  N   UNL     1     -11.060  14.103  69.574  1.00  0.00    -0.373 NA 
HETATM   13  H   UNL     1     -11.571  14.235  70.447  1.00  0.00     0.000 HD 
BRANCH  12  14
HETATM   14  C   UNL     1     -11.988  13.797  68.479  1.00  0.00    -0.367 C  
BRANCH  14  15
HETATM   15  C   UNL     1     -11.531  12.563  67.657  1.00  0.00    -0.334 C  
HETATM   16  H   UNL     1     -11.990  10.645  67.552  1.00  0.00     0.000 HD 
HETATM   17  O   UNL     1     -12.270  11.401  68.056  1.00  0.00    -0.607 OA 
BRANCH  15  18
HETATM   18  C   UNL     1     -11.712  12.788  66.168  1.00  0.00    -0.458 A  
HETATM   19  O   UNL     1     -11.308  10.992  62.979  1.00  0.00    -0.738 OA 
HETATM   20  C   UNL     1     -11.574  11.975  63.885  1.00  0.00    -0.449 A  
HETATM   21  C   UNL     1     -11.447  11.753  65.257  1.00  0.00    -0.250 A  
HETATM   22  C   UNL     1     -11.974  13.211  63.392  1.00  0.00    -0.552 A  
HETATM   23  H   UNL     1     -11.395  11.143  62.045  1.00  0.00     0.000 HD 
HETATM   24  C   UNL     1     -12.244  14.236  64.290  1.00  0.00    -0.423 A  
HETATM   25  O   UNL     1     -12.635  15.471  63.867  1.00  0.00    -0.830 OA 
HETATM   26  C   UNL     1     -12.120  14.035  65.661  1.00  0.00    -0.432 A  
HETATM   27  H   UNL     1     -12.819  16.173  64.481  1.00  0.00     0.000 HD 
ENDBRANCH  15  18
ENDBRANCH  14  15
ENDBRANCH  12  14
ENDBRANCH   2  12
TORSDOF 6
ENDMDL
MODEL       30
REMARK 921   NORMALIZED FREE ENERGY PREDICTED BY IDOCK:   -6.67 KCAL/MOL
REMARK 922        TOTAL FREE ENERGY PREDICTED BY IDOCK:   -9.62 KCAL/MOL
REMARK 923 INTER-LIGAND FREE ENERGY PREDICTED BY IDOCK:   -9.07 KCAL/MOL
REMARK 924 INTRA-LIGAND FREE ENERGY PREDICTED BY IDOCK:   -0.56 KCAL/MOL
REMARK 927      BINDING AFFINITY PREDICTED BY RF-SCORE:    0.00 PKD
ROOT
HETATM    1  C   UNL     1     -12.636  12.133  71.206  1.00  0.00    -0.341 C  
HETATM    2  C   UNL     1     -11.957  11.074  70.326  1.00  0.00    -0.365 C  
ENDROOT
BRANCH   2   3
HETATM    3  C   UNL     1     -12.263   9.675  70.925  1.00  0.00    -0.368 C  
BRANCH   3   4
HETATM    4  C   UNL     1     -11.098   9.009  71.620  1.00  0.00    -0.433 A  
HETATM    5  C   UNL     1      -8.703   8.653  71.819  1.00  0.00    -0.266 A  
HETATM    6  H   UNL     1      -6.948   7.476  73.228  1.00  0.00     0.000 HD 
HETATM    7  C   UNL     1     -11.300   8.163  72.720  1.00  0.00    -0.406 A  
HETATM    8  C   UNL     1      -9.789   9.241  71.172  1.00  0.00    -0.342 A  
HETATM    9  C   UNL     1     -10.212   7.571  73.367  1.00  0.00    -0.399 A  
HETATM   10  O   UNL     1      -7.829   7.298  73.536  1.00  0.00    -0.097 OA 
HETATM   11  C   UNL     1      -8.921   7.830  72.916  1.00  0.00    -0.188 A  
ENDBRANCH   3   4
ENDBRANCH   2   3
BRANCH   2  12
HETATM   12  N   UNL     1     -12.396  11.161  68.925  1.00  0.00    -0.628 NA 
HETATM   13  H   UNL     1     -13.283  11.661  68.860  1.00  0.00     0.000 HD 
BRANCH  12  14
HETATM   14  C   UNL     1     -11.407  11.752  68.018  1.00  0.00    -0.288 C  
BRANCH  14  15
HETATM   15  C   UNL     1     -11.716  13.240  67.710  1.00  0.00    -0.358 C  
HETATM   16  H   UNL     1     -10.861  14.992  68.028  1.00  0.00     0.000 HD 
HETATM   17  O   UNL     1     -10.671  14.080  68.217  1.00  0.00    -0.241 OA 
BRANCH  15  18
HETATM   18  C   UNL     1     -11.874  13.480  66.220  1.00  0.00    -0.431 A  
HETATM   19  O   UNL     1     -11.954  16.260  63.806  1.00  0.00    -1.409 OA 
HETATM   20  C   UNL     1     -11.997  15.003  64.335  1.00  0.00    -0.353 A  
HETATM   21  C   UNL     1     -11.810  14.782  65.700  1.00  0.00    -0.212 A  
HETATM   22  C   UNL     1     -12.238  13.949  63.463  1.00  0.00    -0.132 A  
HETATM   23  H   UNL     1     -12.081  16.410  62.877  1.00  0.00     0.000 HD 
HETATM   24  C   UNL     1     -12.297  12.658  63.972  1.00  0.00    -0.443 A  
HETATM   25  O   UNL     1     -12.535  11.583  63.168  1.00  0.00    -0.936 OA 
HETATM   26  C   UNL     1     -12.116  12.418  65.330  1.00  0.00    -0.428 A  
HETATM   27  H   UNL     1     -12.576  10.700  63.516  1.00  0.00     0.000 HD 
ENDBRANCH  15  18
ENDBRANCH  14  15
ENDBRANCH  12  14
ENDBRANCH   2  12
TORSDOF 6
ENDMDL
MODEL       31
REMARK 921   NORMALIZED FREE ENERGY PREDICTED BY IDOCK:   -6.66 KCAL/MOL
REMARK 922        TOTAL FREE ENERGY PREDICTED BY IDOCK:   -9.61 KCAL/MOL
REMARK 923 INTER-LIGAND FREE ENERGY PREDICTED BY IDOCK:   -8.95 KCAL/MOL
REMARK 924 INTRA-LIGAND FREE ENERGY PREDICTED BY IDOCK:   -0.66 KCAL/MOL
REMARK 927      BINDING AFFINITY PREDICTED BY RF-SCORE:    0.00 PKD
ROOT
HETATM    1  C   UNL     1     -10.591  15.744  67.455  1.00  0.00    -0.313 C  
HETATM    2  C   UNL     1     -10.854  14.717  68.565  1.00  0.00    -0.252 C  
ENDROOT
BRANCH   2   3
HETATM    3  C   UNL     1     -12.325  14.875  69.035  1.00  0.00    -0.070 C  
BRANCH   3   4
HETATM    4  C   UNL     1     -12.495  15.205  70.500  1.00  0.00    -0.429 A  
HETATM    5  C   UNL     1     -11.665  16.277  72.516  1.00  0.00    -0.493 A  
HETATM    6  H   UNL     1     -12.260  16.758  74.938  1.00  0.00     0.000 HD 
HETATM    7  C   UNL     1     -13.634  14.794  71.207  1.00  0.00    -0.480 A  
HETATM    8  C   UNL     1     -11.509  15.944  71.171  1.00  0.00    -0.471 A  
HETATM    9  C   UNL     1     -13.790  15.126  72.556  1.00  0.00    -0.602 A  
HETATM   10  O   UNL     1     -12.931  16.246  74.501  1.00  0.00    -0.587 OA 
HETATM   11  C   UNL     1     -12.806  15.875  73.195  1.00  0.00    -0.537 A  
ENDBRANCH   3   4
ENDBRANCH   2   3
BRANCH   2  12
HETATM   12  N   UNL     1     -10.583  13.342  68.118  1.00  0.00    -0.238 NA 
HETATM   13  H   UNL     1      -9.719  13.308  67.576  1.00  0.00     0.000 HD 
BRANCH  12  14
HETATM   14  C   UNL     1     -10.549  12.351  69.199  1.00  0.00     0.039 C  
BRANCH  14  15
HETATM   15  C   UNL     1     -11.927  11.671  69.407  1.00  0.00    -0.316 C  
HETATM   16  H   UNL     1     -13.248  10.709  68.298  1.00  0.00     0.000 HD 
HETATM   17  O   UNL     1     -12.404  11.126  68.170  1.00  0.00    -0.469 OA 
BRANCH  15  18
HETATM   18  C   UNL     1     -11.852  10.567  70.446  1.00  0.00    -0.431 A  
HETATM   19  O   UNL     1     -13.887   9.086  73.134  1.00  0.00    -1.096 OA 
HETATM   20  C   UNL     1     -12.851   9.334  72.282  1.00  0.00    -0.384 A  
HETATM   21  C   UNL     1     -12.939  10.322  71.300  1.00  0.00    -0.517 A  
HETATM   22  C   UNL     1     -11.701   8.568  72.429  1.00  0.00    -0.429 A  
HETATM   23  H   UNL     1     -13.827   8.413  73.802  1.00  0.00     0.000 HD 
HETATM   24  C   UNL     1     -10.626   8.803  71.583  1.00  0.00    -0.331 A  
HETATM   25  O   UNL     1      -9.470   8.088  71.681  1.00  0.00    -0.149 OA 
HETATM   26  C   UNL     1     -10.693   9.786  70.600  1.00  0.00    -0.394 A  
HETATM   27  H   UNL     1      -8.733   8.249  71.102  1.00  0.00     0.000 HD 
ENDBRANCH  15  18
ENDBRANCH  14  15
ENDBRANCH  12  14
ENDBRANCH   2  12
TORSDOF 6
ENDMDL
MODEL       32
REMARK 921   NORMALIZED FREE ENERGY PREDICTED BY IDOCK:   -6.64 KCAL/MOL
REMARK 922        TOTAL FREE ENERGY PREDICTED BY IDOCK:   -9.57 KCAL/MOL
REMARK 923 INTER-LIGAND FREE ENERGY PREDICTED BY IDOCK:   -8.44 KCAL/MOL
REMARK 924 INTRA-LIGAND FREE ENERGY PREDICTED BY IDOCK:   -1.14 KCAL/MOL
REMARK 927      BINDING AFFINITY PREDICTED BY RF-SCORE:    0.00 PKD
ROOT
HETATM    1  C   UNL     1     -11.551  12.129  66.592  1.00  0.00    -0.416 C  
HETATM    2  C   UNL     1     -12.079  13.273  67.470  1.00  0.00    -0.264 C  
ENDROOT
BRANCH   2   3
HETATM    3  C   UNL     1     -11.109  13.454  68.668  1.00  0.00    -0.295 C  
BRANCH   3   4
HETATM    4  C   UNL     1     -11.715  14.109  69.888  1.00  0.00    -0.372 A  
HETATM    5  C   UNL     1     -13.122  13.961  71.863  1.00  0.00    -0.469 A  
HETATM    6  H   UNL     1     -13.916  15.288  73.878  1.00  0.00     0.000 HD 
HETATM    7  C   UNL     1     -11.426  15.442  70.212  1.00  0.00    -0.339 A  
HETATM    8  C   UNL     1     -12.574  13.378  70.721  1.00  0.00    -0.369 A  
HETATM    9  C   UNL     1     -11.976  16.028  71.355  1.00  0.00    -0.507 A  
HETATM   10  O   UNL     1     -13.346  15.801  73.317  1.00  0.00    -0.546 OA 
HETATM   11  C   UNL     1     -12.812  15.278  72.177  1.00  0.00    -0.357 A  
ENDBRANCH   3   4
ENDBRANCH   2   3
BRANCH   2  12
HETATM   12  N   UNL     1     -12.227  14.524  66.712  1.00  0.00    -0.474 NA 
HETATM   13  H   UNL     1     -11.664  15.264  67.131  1.00  0.00     0.000 HD 
BRANCH  12  14
HETATM   14  C   UNL     1     -11.928  14.402  65.281  1.00  0.00    -0.382 C  
BRANCH  14  15
HETATM   15  C   UNL     1     -10.915  15.477  64.805  1.00  0.00    -0.399 C  
HETATM   16  H   UNL     1     -10.969  17.154  63.763  1.00  0.00     0.000 HD 
HETATM   17  O   UNL     1     -11.589  16.496  64.055  1.00  0.00    -1.154 OA 
BRANCH  15  18
HETATM   18  C   UNL     1     -10.186  16.112  65.974  1.00  0.00    -0.374 A  
HETATM   19  O   UNL     1      -7.348  15.445  68.223  1.00  0.00    -0.107 OA 
HETATM   20  C   UNL     1      -8.426  16.046  67.643  1.00  0.00    -0.158 A  
HETATM   21  C   UNL     1      -9.069  15.480  66.541  1.00  0.00    -0.336 A  
HETATM   22  C   UNL     1      -8.864  17.245  68.192  1.00  0.00    -0.239 A  
HETATM   23  H   UNL     1      -6.911  15.831  68.972  1.00  0.00     0.000 HD 
HETATM   24  C   UNL     1      -9.965  17.878  67.629  1.00  0.00    -0.324 A  
HETATM   25  O   UNL     1     -10.445  19.053  68.126  1.00  0.00    -0.377 OA 
HETATM   26  C   UNL     1     -10.622  17.327  66.533  1.00  0.00    -0.178 A  
HETATM   27  H   UNL     1     -11.199  19.485  67.742  1.00  0.00     0.000 HD 
ENDBRANCH  15  18
ENDBRANCH  14  15
ENDBRANCH  12  14
ENDBRANCH   2  12
TORSDOF 6
ENDMDL
MODEL       33
REMARK 921   NORMALIZED FREE ENERGY PREDICTED BY IDOCK:   -6.62 KCAL/MOL
REMARK 922        TOTAL FREE ENERGY PREDICTED BY IDOCK:   -9.55 KCAL/MOL
REMARK 923 INTER-LIGAND FREE ENERGY PREDICTED BY IDOCK:   -9.31 KCAL/MOL
REMARK 924 INTRA-LIGAND FREE ENERGY PREDICTED BY IDOCK:   -0.23 KCAL/MOL
REMARK 927      BINDING AFFINITY PREDICTED BY RF-SCORE:    0.00 PKD
ROOT
HETATM    1  C   UNL     1     -11.113  15.664  70.854  1.00  0.00    -0.377 C  
HETATM    2  C   UNL     1     -11.778  15.211  69.547  1.00  0.00    -0.327 C  
ENDROOT
BRANCH   2   3
HETATM    3  C   UNL     1     -10.661  14.903  68.514  1.00  0.00    -0.245 C  
BRANCH   3   4
HETATM    4  C   UNL     1     -11.139  14.716  67.093  1.00  0.00    -0.328 A  
HETATM    5  C   UNL     1     -12.626  13.628  65.509  1.00  0.00    -0.541 A  
HETATM    6  H   UNL     1     -13.285  13.591  63.057  1.00  0.00     0.000 HD 
HETATM    7  C   UNL     1     -10.588  15.460  66.040  1.00  0.00    -0.330 A  
HETATM    8  C   UNL     1     -12.158  13.793  66.812  1.00  0.00    -0.460 A  
HETATM    9  C   UNL     1     -11.055  15.293  64.733  1.00  0.00    -0.407 A  
HETATM   10  O   UNL     1     -12.585  14.211  63.228  1.00  0.00    -0.766 OA 
HETATM   11  C   UNL     1     -12.079  14.384  64.482  1.00  0.00    -0.481 A  
ENDBRANCH   3   4
ENDBRANCH   2   3
BRANCH   2  12
HETATM   12  N   UNL     1     -12.650  14.044  69.750  1.00  0.00    -0.394 NA 
HETATM   13  H   UNL     1     -12.960  13.670  68.853  1.00  0.00     0.000 HD 
BRANCH  12  14
HETATM   14  C   UNL     1     -12.056  12.982  70.570  1.00  0.00    -0.292 C  
BRANCH  14  15
HETATM   15  C   UNL     1     -12.031  11.620  69.827  1.00  0.00    -0.332 C  
HETATM   16  H   UNL     1     -10.851  10.695  68.542  1.00  0.00     0.000 HD 
HETATM   17  O   UNL     1     -10.867  11.529  68.996  1.00  0.00    -0.207 OA 
BRANCH  15  18
HETATM   18  C   UNL     1     -12.046  10.455  70.800  1.00  0.00    -0.463 A  
HETATM   19  O   UNL     1      -9.889   7.687  71.914  1.00  0.00    -0.161 OA 
HETATM   20  C   UNL     1     -10.958   8.523  71.787  1.00  0.00    -0.306 A  
HETATM   21  C   UNL     1     -10.926   9.619  70.922  1.00  0.00    -0.412 A  
HETATM   22  C   UNL     1     -12.086   8.243  72.548  1.00  0.00    -0.400 A  
HETATM   23  H   UNL     1      -9.911   6.942  72.502  1.00  0.00     0.000 HD 
HETATM   24  C   UNL     1     -13.194   9.071  72.435  1.00  0.00    -0.447 A  
HETATM   25  O   UNL     1     -14.332   8.845  73.152  1.00  0.00    -1.143 OA 
HETATM   26  C   UNL     1     -13.182  10.166  71.576  1.00  0.00    -0.496 A  
HETATM   27  H   UNL     1     -15.091   9.412  73.074  1.00  0.00     0.000 HD 
ENDBRANCH  15  18
ENDBRANCH  14  15
ENDBRANCH  12  14
ENDBRANCH   2  12
TORSDOF 6
ENDMDL
MODEL       34
REMARK 921   NORMALIZED FREE ENERGY PREDICTED BY IDOCK:   -6.61 KCAL/MOL
REMARK 922        TOTAL FREE ENERGY PREDICTED BY IDOCK:   -9.54 KCAL/MOL
REMARK 923 INTER-LIGAND FREE ENERGY PREDICTED BY IDOCK:   -8.56 KCAL/MOL
REMARK 924 INTRA-LIGAND FREE ENERGY PREDICTED BY IDOCK:   -0.99 KCAL/MOL
REMARK 927      BINDING AFFINITY PREDICTED BY RF-SCORE:    0.00 PKD
ROOT
HETATM    1  C   UNL     1     -10.852  14.358  67.287  1.00  0.00    -0.290 C  
HETATM    2  C   UNL     1     -10.708  13.862  68.733  1.00  0.00    -0.262 C  
ENDROOT
BRANCH   2   3
HETATM    3  C   UNL     1     -12.128  13.729  69.345  1.00  0.00    -0.377 C  
BRANCH   3   4
HETATM    4  C   UNL     1     -12.310  14.400  70.687  1.00  0.00    -0.422 A  
HETATM    5  C   UNL     1     -13.194  14.355  72.949  1.00  0.00    -0.613 A  
HETATM    6  H   UNL     1     -13.259  15.676  75.117  1.00  0.00     0.000 HD 
HETATM    7  C   UNL     1     -11.751  15.660  70.947  1.00  0.00    -0.423 A  
HETATM    8  C   UNL     1     -13.039  13.758  71.699  1.00  0.00    -0.456 A  
HETATM    9  C   UNL     1     -11.908  16.259  72.200  1.00  0.00    -0.585 A  
HETATM   10  O   UNL     1     -12.773  16.130  74.439  1.00  0.00    -0.702 OA 
HETATM   11  C   UNL     1     -12.620  15.595  73.194  1.00  0.00    -0.476 A  
ENDBRANCH   3   4
ENDBRANCH   2   3
BRANCH   2  12
HETATM   12  N   UNL     1      -9.976  12.588  68.806  1.00  0.00    -0.420 NA 
HETATM   13  H   UNL     1      -9.581  12.456  69.737  1.00  0.00     0.000 HD 
BRANCH  12  14
HETATM   14  C   UNL     1     -10.765  11.415  68.414  1.00  0.00    -0.203 C  
BRANCH  14  15
HETATM   15  C   UNL     1     -10.145  10.094  68.942  1.00  0.00    -0.200 C  
HETATM   16  H   UNL     1      -8.465   9.532  69.814  1.00  0.00     0.000 HD 
HETATM   17  O   UNL     1      -8.844  10.340  69.491  1.00  0.00    -0.187 OA 
BRANCH  15  18
HETATM   18  C   UNL     1     -11.023   9.451  70.000  1.00  0.00    -0.267 A  
HETATM   19  O   UNL     1     -13.527  10.385  72.532  1.00  0.00    -0.585 OA 
HETATM   20  C   UNL     1     -12.677   9.645  71.765  1.00  0.00    -0.420 A  
HETATM   21  C   UNL     1     -11.901  10.234  70.764  1.00  0.00    -0.459 A  
HETATM   22  C   UNL     1     -12.607   8.281  72.018  1.00  0.00    -0.387 A  
HETATM   23  H   UNL     1     -14.055   9.984  73.213  1.00  0.00     0.000 HD 
HETATM   24  C   UNL     1     -11.744   7.502  71.259  1.00  0.00    -0.287 A  
HETATM   25  O   UNL     1     -11.627   6.159  71.464  1.00  0.00    -0.295 OA 
HETATM   26  C   UNL     1     -10.960   8.070  70.260  1.00  0.00    -0.242 A  
HETATM   27  H   UNL     1     -11.036   5.625  70.945  1.00  0.00     0.000 HD 
ENDBRANCH  15  18
ENDBRANCH  14  15
ENDBRANCH  12  14
ENDBRANCH   2  12
TORSDOF 6
ENDMDL
MODEL       35
REMARK 921   NORMALIZED FREE ENERGY PREDICTED BY IDOCK:   -6.61 KCAL/MOL
REMARK 922        TOTAL FREE ENERGY PREDICTED BY IDOCK:   -9.54 KCAL/MOL
REMARK 923 INTER-LIGAND FREE ENERGY PREDICTED BY IDOCK:   -8.46 KCAL/MOL
REMARK 924 INTRA-LIGAND FREE ENERGY PREDICTED BY IDOCK:   -1.08 KCAL/MOL
REMARK 927      BINDING AFFINITY PREDICTED BY RF-SCORE:    0.00 PKD
ROOT
HETATM    1  C   UNL     1     -11.132  11.972  66.955  1.00  0.00    -0.352 C  
HETATM    2  C   UNL     1     -10.869  12.827  68.202  1.00  0.00    -0.228 C  
ENDROOT
BRANCH   2   3
HETATM    3  C   UNL     1     -11.681  12.227  69.382  1.00  0.00    -0.392 C  
BRANCH   3   4
HETATM    4  C   UNL     1     -12.223  13.241  70.364  1.00  0.00    -0.404 A  
HETATM    5  C   UNL     1     -12.667  15.555  70.955  1.00  0.00    -0.525 A  
HETATM    6  H   UNL     1     -13.733  17.013  72.740  1.00  0.00     0.000 HD 
HETATM    7  C   UNL     1     -12.811  12.836  71.570  1.00  0.00    -0.369 A  
HETATM    8  C   UNL     1     -12.150  14.610  70.069  1.00  0.00    -0.383 A  
HETATM    9  C   UNL     1     -13.329  13.782  72.459  1.00  0.00    -0.656 A  
HETATM   10  O   UNL     1     -13.780  16.090  72.961  1.00  0.00    -0.590 OA 
HETATM   11  C   UNL     1     -13.261  15.134  72.137  1.00  0.00    -0.376 A  
ENDBRANCH   3   4
ENDBRANCH   2   3
BRANCH   2  12
HETATM   12  N   UNL     1      -9.436  12.901  68.526  1.00  0.00    -0.384 NA 
HETATM   13  H   UNL     1      -8.964  12.040  68.250  1.00  0.00     0.000 HD 
BRANCH  12  14
HETATM   14  C   UNL     1      -8.749  14.066  67.959  1.00  0.00    -0.180 C  
BRANCH  14  15
HETATM   15  C   UNL     1      -8.899  15.323  68.855  1.00  0.00    -0.209 C  
HETATM   16  H   UNL     1      -7.719  16.469  69.949  1.00  0.00     0.000 HD 
HETATM   17  O   UNL     1      -7.627  15.699  69.400  1.00  0.00    -0.209 OA 
BRANCH  15  18
HETATM   18  C   UNL     1      -9.480  16.493  68.083  1.00  0.00    -0.222 A  
HETATM   19  O   UNL     1     -10.937  17.247  64.787  1.00  0.00    -0.950 OA 
HETATM   20  C   UNL     1     -10.467  17.396  66.059  1.00  0.00    -0.276 A  
HETATM   21  C   UNL     1      -9.972  16.309  66.782  1.00  0.00    -0.268 A  
HETATM   22  C   UNL     1     -10.496  18.671  66.609  1.00  0.00    -0.459 A  
HETATM   23  H   UNL     1     -11.274  17.987  64.295  1.00  0.00     0.000 HD 
HETATM   24  C   UNL     1     -10.017  18.856  67.899  1.00  0.00    -0.352 A  
HETATM   25  O   UNL     1     -10.015  20.084  68.491  1.00  0.00    -0.392 OA 
HETATM   26  C   UNL     1      -9.516  17.786  68.634  1.00  0.00    -0.283 A  
HETATM   27  H   UNL     1      -9.686  20.211  69.373  1.00  0.00     0.000 HD 
ENDBRANCH  15  18
ENDBRANCH  14  15
ENDBRANCH  12  14
ENDBRANCH   2  12
TORSDOF 6
ENDMDL
MODEL       36
REMARK 921   NORMALIZED FREE ENERGY PREDICTED BY IDOCK:   -6.61 KCAL/MOL
REMARK 922        TOTAL FREE ENERGY PREDICTED BY IDOCK:   -9.53 KCAL/MOL
REMARK 923 INTER-LIGAND FREE ENERGY PREDICTED BY IDOCK:   -8.73 KCAL/MOL
REMARK 924 INTRA-LIGAND FREE ENERGY PREDICTED BY IDOCK:   -0.80 KCAL/MOL
REMARK 927      BINDING AFFINITY PREDICTED BY RF-SCORE:    0.00 PKD
ROOT
HETATM    1  C   UNL     1      -9.915  10.112  65.004  1.00  0.00    -0.375 C  
HETATM    2  C   UNL     1      -9.751  10.840  66.346  1.00  0.00    -0.199 C  
ENDROOT
BRANCH   2   3
HETATM    3  C   UNL     1     -11.046  11.652  66.619  1.00  0.00    -0.364 C  
BRANCH   3   4
HETATM    4  C   UNL     1     -11.109  13.001  65.940  1.00  0.00    -0.303 A  
HETATM    5  C   UNL     1     -12.032  14.433  64.209  1.00  0.00    -0.433 A  
HETATM    6  H   UNL     1     -12.000  16.817  63.333  1.00  0.00     0.000 HD 
HETATM    7  C   UNL     1     -10.348  14.082  66.408  1.00  0.00    -0.289 A  
HETATM    8  C   UNL     1     -11.945  13.188  64.830  1.00  0.00    -0.431 A  
HETATM    9  C   UNL     1     -10.433  15.330  65.785  1.00  0.00    -0.365 A  
HETATM   10  O   UNL     1     -11.420  16.703  64.076  1.00  0.00    -1.192 OA 
HETATM   11  C   UNL     1     -11.284  15.496  64.696  1.00  0.00    -0.371 A  
ENDBRANCH   3   4
ENDBRANCH   2   3
BRANCH   2  12
HETATM   12  N   UNL     1      -9.466   9.907  67.447  1.00  0.00    -0.147 NA 
HETATM   13  H   UNL     1      -8.912  10.366  68.169  1.00  0.00     0.000 HD 
BRANCH  12  14
HETATM   14  C   UNL     1     -10.657   9.284  68.034  1.00  0.00    -0.208 C  
BRANCH  14  15
HETATM   15  C   UNL     1     -10.461   8.955  69.537  1.00  0.00    -0.226 C  
HETATM   16  H   UNL     1      -8.996   9.045  70.858  1.00  0.00     0.000 HD 
HETATM   17  O   UNL     1      -9.116   9.247  69.938  1.00  0.00    -0.161 OA 
BRANCH  15  18
HETATM   18  C   UNL     1     -11.426   9.736  70.409  1.00  0.00    -0.347 A  
HETATM   19  O   UNL     1     -13.866   9.177  73.110  1.00  0.00    -1.065 OA 
HETATM   20  C   UNL     1     -13.104   9.794  72.161  1.00  0.00    -0.422 A  
HETATM   21  C   UNL     1     -12.186   9.079  71.389  1.00  0.00    -0.387 A  
HETATM   22  C   UNL     1     -13.276  11.161  71.989  1.00  0.00    -0.428 A  
HETATM   23  H   UNL     1     -14.490   9.664  73.635  1.00  0.00     0.000 HD 
HETATM   24  C   UNL     1     -12.521  11.816  71.025  1.00  0.00    -0.309 A  
HETATM   25  O   UNL     1     -12.648  13.156  70.806  1.00  0.00    -0.324 OA 
HETATM   26  C   UNL     1     -11.604  11.121  70.243  1.00  0.00    -0.388 A  
HETATM   27  H   UNL     1     -12.132  13.604  70.146  1.00  0.00     0.000 HD 
ENDBRANCH  15  18
ENDBRANCH  14  15
ENDBRANCH  12  14
ENDBRANCH   2  12
TORSDOF 6
ENDMDL
MODEL       37
REMARK 921   NORMALIZED FREE ENERGY PREDICTED BY IDOCK:   -6.59 KCAL/MOL
REMARK 922        TOTAL FREE ENERGY PREDICTED BY IDOCK:   -9.51 KCAL/MOL
REMARK 923 INTER-LIGAND FREE ENERGY PREDICTED BY IDOCK:   -8.74 KCAL/MOL
REMARK 924 INTRA-LIGAND FREE ENERGY PREDICTED BY IDOCK:   -0.77 KCAL/MOL
REMARK 927      BINDING AFFINITY PREDICTED BY RF-SCORE:    0.00 PKD
ROOT
HETATM    1  C   UNL     1     -10.676   9.303  66.936  1.00  0.00    -0.164 C  
HETATM    2  C   UNL     1     -10.699  10.834  66.828  1.00  0.00    -0.231 C  
ENDROOT
BRANCH   2   3
HETATM    3  C   UNL     1     -10.895  11.213  65.335  1.00  0.00    -0.212 C  
BRANCH   3   4
HETATM    4  C   UNL     1     -10.997  12.696  65.061  1.00  0.00    -0.323 A  
HETATM    5  C   UNL     1     -12.215  14.571  64.112  1.00  0.00    -0.372 A  
HETATM    6  H   UNL     1     -12.165  17.100  63.879  1.00  0.00     0.000 HD 
HETATM    7  C   UNL     1     -10.013  13.585  65.515  1.00  0.00    -0.238 A  
HETATM    8  C   UNL     1     -12.096  13.203  64.351  1.00  0.00    -0.471 A  
HETATM    9  C   UNL     1     -10.131  14.956  65.274  1.00  0.00    -0.380 A  
HETATM   10  O   UNL     1     -11.409  16.771  64.351  1.00  0.00    -1.089 OA 
HETATM   11  C   UNL     1     -11.239  15.438  64.583  1.00  0.00    -0.364 A  
ENDBRANCH   3   4
ENDBRANCH   2   3
BRANCH   2  12
HETATM   12  N   UNL     1     -11.747  11.429  67.670  1.00  0.00    -0.594 NA 
HETATM   13  H   UNL     1     -12.492  10.754  67.843  1.00  0.00     0.000 HD 
BRANCH  12  14
HETATM   14  C   UNL     1     -11.260  11.989  68.935  1.00  0.00    -0.261 C  
BRANCH  14  15
HETATM   15  C   UNL     1     -11.406  13.533  68.982  1.00  0.00    -0.288 C  
HETATM   16  H   UNL     1     -12.347  14.929  67.950  1.00  0.00     0.000 HD 
HETATM   17  O   UNL     1     -12.257  13.984  67.921  1.00  0.00    -0.319 OA 
BRANCH  15  18
HETATM   18  C   UNL     1     -11.971  13.999  70.311  1.00  0.00    -0.409 A  
HETATM   19  O   UNL     1     -14.145  12.792  73.027  1.00  0.00    -0.417 OA 
HETATM   20  C   UNL     1     -13.338  13.594  72.275  1.00  0.00    -0.525 A  
HETATM   21  C   UNL     1     -12.786  13.147  71.073  1.00  0.00    -0.361 A  
HETATM   22  C   UNL     1     -13.087  14.876  72.748  1.00  0.00    -0.558 A  
HETATM   23  H   UNL     1     -14.520  13.096  73.845  1.00  0.00     0.000 HD 
HETATM   24  C   UNL     1     -12.276  15.720  72.000  1.00  0.00    -0.465 A  
HETATM   25  O   UNL     1     -11.998  16.990  72.409  1.00  0.00    -0.323 OA 
HETATM   26  C   UNL     1     -11.720  15.294  70.798  1.00  0.00    -0.377 A  
HETATM   27  H   UNL     1     -11.443  17.568  71.897  1.00  0.00     0.000 HD 
ENDBRANCH  15  18
ENDBRANCH  14  15
ENDBRANCH  12  14
ENDBRANCH   2  12
TORSDOF 6
ENDMDL
MODEL       38
REMARK 921   NORMALIZED FREE ENERGY PREDICTED BY IDOCK:   -6.57 KCAL/MOL
REMARK 922        TOTAL FREE ENERGY PREDICTED BY IDOCK:   -9.48 KCAL/MOL
REMARK 923 INTER-LIGAND FREE ENERGY PREDICTED BY IDOCK:   -8.46 KCAL/MOL
REMARK 924 INTRA-LIGAND FREE ENERGY PREDICTED BY IDOCK:   -1.02 KCAL/MOL
REMARK 927      BINDING AFFINITY PREDICTED BY RF-SCORE:    0.00 PKD
ROOT
HETATM    1  C   UNL     1     -10.493  14.448  67.130  1.00  0.00    -0.263 C  
HETATM    2  C   UNL     1     -10.598  13.975  68.586  1.00  0.00    -0.257 C  
ENDROOT
BRANCH   2   3
HETATM    3  C   UNL     1     -12.092  14.014  69.004  1.00  0.00    -0.358 C  
BRANCH   3   4
HETATM    4  C   UNL     1     -12.362  14.636  70.355  1.00  0.00    -0.399 A  
HETATM    5  C   UNL     1     -13.709  14.760  72.373  1.00  0.00    -0.576 A  
HETATM    6  H   UNL     1     -13.860  15.914  74.630  1.00  0.00     0.000 HD 
HETATM    7  C   UNL     1     -11.520  15.631  70.874  1.00  0.00    -0.425 A  
HETATM    8  C   UNL     1     -13.462  14.212  71.114  1.00  0.00    -0.293 A  
HETATM    9  C   UNL     1     -11.768  16.181  72.134  1.00  0.00    -0.569 A  
HETATM   10  O   UNL     1     -13.118  16.221  74.123  1.00  0.00    -0.661 OA 
HETATM   11  C   UNL     1     -12.856  15.732  72.877  1.00  0.00    -0.482 A  
ENDBRANCH   3   4
ENDBRANCH   2   3
BRANCH   2  12
HETATM   12  N   UNL     1     -10.029  12.631  68.770  1.00  0.00    -0.424 NA 
HETATM   13  H   UNL     1      -9.639  12.534  69.707  1.00  0.00     0.000 HD 
BRANCH  12  14
HETATM   14  C   UNL     1     -10.965  11.536  68.489  1.00  0.00    -0.223 C  
BRANCH  14  15
HETATM   15  C   UNL     1     -10.495  10.196  69.113  1.00  0.00    -0.222 C  
HETATM   16  H   UNL     1      -8.862   9.493  69.972  1.00  0.00     0.000 HD 
HETATM   17  O   UNL     1      -9.149  10.314  69.590  1.00  0.00    -0.196 OA 
BRANCH  15  18
HETATM   18  C   UNL     1     -11.397   9.766  70.255  1.00  0.00    -0.333 A  
HETATM   19  O   UNL     1     -12.345   6.727  72.105  1.00  0.00    -0.464 OA 
HETATM   20  C   UNL     1     -12.287   8.025  71.693  1.00  0.00    -0.314 A  
HETATM   21  C   UNL     1     -11.426   8.425  70.670  1.00  0.00    -0.235 A  
HETATM   22  C   UNL     1     -13.121   8.938  72.327  1.00  0.00    -0.491 A  
HETATM   23  H   UNL     1     -12.931   6.455  72.801  1.00  0.00     0.000 HD 
HETATM   24  C   UNL     1     -13.091  10.266  71.924  1.00  0.00    -0.463 A  
HETATM   25  O   UNL     1     -13.889  11.207  72.504  1.00  0.00    -0.317 OA 
HETATM   26  C   UNL     1     -12.242  10.684  70.904  1.00  0.00    -0.497 A  
HETATM   27  H   UNL     1     -13.870  12.116  72.228  1.00  0.00     0.000 HD 
ENDBRANCH  15  18
ENDBRANCH  14  15
ENDBRANCH  12  14
ENDBRANCH   2  12
TORSDOF 6
ENDMDL
MODEL       39
REMARK 921   NORMALIZED FREE ENERGY PREDICTED BY IDOCK:   -6.56 KCAL/MOL
REMARK 922        TOTAL FREE ENERGY PREDICTED BY IDOCK:   -9.47 KCAL/MOL
REMARK 923 INTER-LIGAND FREE ENERGY PREDICTED BY IDOCK:   -7.69 KCAL/MOL
REMARK 924 INTRA-LIGAND FREE ENERGY PREDICTED BY IDOCK:   -1.78 KCAL/MOL
REMARK 927      BINDING AFFINITY PREDICTED BY RF-SCORE:    0.00 PKD
ROOT
HETATM    1  C   UNL     1      -8.857   9.954  62.756  1.00  0.00    -0.242 C  
HETATM    2  C   UNL     1      -9.877  10.343  63.835  1.00  0.00    -0.267 C  
ENDROOT
BRANCH   2   3
HETATM    3  C   UNL     1      -9.167  11.258  64.868  1.00  0.00    -0.130 C  
BRANCH   3   4
HETATM    4  C   UNL     1      -9.697  11.158  66.280  1.00  0.00    -0.244 A  
HETATM    5  C   UNL     1     -11.024   9.981  67.941  1.00  0.00    -0.311 A  
HETATM    6  H   UNL     1     -11.684  10.020  70.393  1.00  0.00     0.000 HD 
HETATM    7  C   UNL     1      -9.347  12.105  67.253  1.00  0.00    -0.183 A  
HETATM    8  C   UNL     1     -10.546  10.099  66.636  1.00  0.00    -0.214 A  
HETATM    9  C   UNL     1      -9.827  11.988  68.561  1.00  0.00    -0.177 A  
HETATM   10  O   UNL     1     -11.120  10.750  70.165  1.00  0.00    -0.281 OA 
HETATM   11  C   UNL     1     -10.654  10.919  68.895  1.00  0.00    -0.210 A  
ENDBRANCH   3   4
ENDBRANCH   2   3
BRANCH   2  12
HETATM   12  N   UNL     1     -11.058  11.007  63.260  1.00  0.00    -0.714 NA 
HETATM   13  H   UNL     1     -11.903  10.721  63.754  1.00  0.00     0.000 HD 
BRANCH  12  14
HETATM   14  C   UNL     1     -10.963  12.470  63.212  1.00  0.00    -0.191 C  
BRANCH  14  15
HETATM   15  C   UNL     1     -12.178  13.154  63.893  1.00  0.00    -0.433 C  
HETATM   16  H   UNL     1     -13.842  12.586  64.791  1.00  0.00     0.000 HD 
HETATM   17  O   UNL     1     -13.099  12.167  64.374  1.00  0.00    -0.740 OA 
BRANCH  15  18
HETATM   18  C   UNL     1     -11.744  14.041  65.046  1.00  0.00    -0.366 A  
HETATM   19  O   UNL     1      -9.307  16.698  65.794  1.00  0.00    -0.501 OA 
HETATM   20  C   UNL     1     -10.302  15.777  65.938  1.00  0.00    -0.354 A  
HETATM   21  C   UNL     1     -10.728  14.992  64.865  1.00  0.00    -0.420 A  
HETATM   22  C   UNL     1     -10.877  15.645  67.196  1.00  0.00    -0.297 A  
HETATM   23  H   UNL     1      -9.018  17.232  66.524  1.00  0.00     0.000 HD 
HETATM   24  C   UNL     1     -11.887  14.710  67.378  1.00  0.00    -0.348 A  
HETATM   25  O   UNL     1     -12.486  14.531  68.589  1.00  0.00    -0.584 OA 
HETATM   26  C   UNL     1     -12.323  13.916  66.321  1.00  0.00    -0.489 A  
HETATM   27  H   UNL     1     -13.177  13.890  68.713  1.00  0.00     0.000 HD 
ENDBRANCH  15  18
ENDBRANCH  14  15
ENDBRANCH  12  14
ENDBRANCH   2  12
TORSDOF 6
ENDMDL
MODEL       40
REMARK 921   NORMALIZED FREE ENERGY PREDICTED BY IDOCK:   -6.56 KCAL/MOL
REMARK 922        TOTAL FREE ENERGY PREDICTED BY IDOCK:   -9.47 KCAL/MOL
REMARK 923 INTER-LIGAND FREE ENERGY PREDICTED BY IDOCK:   -8.94 KCAL/MOL
REMARK 924 INTRA-LIGAND FREE ENERGY PREDICTED BY IDOCK:   -0.52 KCAL/MOL
REMARK 927      BINDING AFFINITY PREDICTED BY RF-SCORE:    0.00 PKD
ROOT
HETATM    1  C   UNL     1     -12.814  11.691  71.601  1.00  0.00    -0.454 C  
HETATM    2  C   UNL     1     -12.268  10.460  70.863  1.00  0.00    -0.383 C  
ENDROOT
BRANCH   2   3
HETATM    3  C   UNL     1     -12.937   9.196  71.466  1.00  0.00    -0.409 C  
BRANCH   3   4
HETATM    4  C   UNL     1     -12.005   8.026  71.689  1.00  0.00    -0.336 A  
HETATM    5  C   UNL     1     -10.422   6.850  73.107  1.00  0.00    -0.313 A  
HETATM    6  H   UNL     1      -9.015   4.740  73.242  1.00  0.00     0.000 HD 
HETATM    7  C   UNL     1     -11.871   7.015  70.726  1.00  0.00    -0.401 A  
HETATM    8  C   UNL     1     -11.267   7.935  72.878  1.00  0.00    -0.429 A  
HETATM    9  C   UNL     1     -11.023   5.928  70.955  1.00  0.00    -0.335 A  
HETATM   10  O   UNL     1      -9.499   4.793  72.426  1.00  0.00    -0.131 OA 
HETATM   11  C   UNL     1     -10.314   5.850  72.150  1.00  0.00    -0.201 A  
ENDBRANCH   3   4
ENDBRANCH   2   3
BRANCH   2  12
HETATM   12  N   UNL     1     -12.497  10.543  69.413  1.00  0.00    -0.693 NA 
HETATM   13  H   UNL     1     -13.392  10.993  69.218  1.00  0.00     0.000 HD 
BRANCH  12  14
HETATM   14  C   UNL     1     -11.419  11.204  68.668  1.00  0.00    -0.298 C  
BRANCH  14  15
HETATM   15  C   UNL     1     -11.879  12.552  68.054  1.00  0.00    -0.325 C  
HETATM   16  H   UNL     1     -11.432  14.465  68.265  1.00  0.00     0.000 HD 
HETATM   17  O   UNL     1     -11.151  13.639  68.641  1.00  0.00    -0.249 OA 
BRANCH  15  18
HETATM   18  C   UNL     1     -11.687  12.574  66.549  1.00  0.00    -0.454 A  
HETATM   19  O   UNL     1     -12.545  14.645  63.628  1.00  0.00    -1.017 OA 
HETATM   20  C   UNL     1     -12.050  13.632  64.396  1.00  0.00    -0.427 A  
HETATM   21  C   UNL     1     -12.192  13.636  65.785  1.00  0.00    -0.503 A  
HETATM   22  C   UNL     1     -11.401  12.591  63.744  1.00  0.00    -0.534 A  
HETATM   23  H   UNL     1     -12.448  14.642  62.684  1.00  0.00     0.000 HD 
HETATM   24  C   UNL     1     -10.894  11.541  64.497  1.00  0.00    -0.327 A  
HETATM   25  O   UNL     1     -10.251  10.489  63.914  1.00  0.00    -0.423 OA 
HETATM   26  C   UNL     1     -11.028  11.525  65.882  1.00  0.00    -0.301 A  
HETATM   27  H   UNL     1      -9.905   9.770  64.429  1.00  0.00     0.000 HD 
ENDBRANCH  15  18
ENDBRANCH  14  15
ENDBRANCH  12  14
ENDBRANCH   2  12
TORSDOF 6
ENDMDL
MODEL       41
REMARK 921   NORMALIZED FREE ENERGY PREDICTED BY IDOCK:   -6.55 KCAL/MOL
REMARK 922        TOTAL FREE ENERGY PREDICTED BY IDOCK:   -9.45 KCAL/MOL
REMARK 923 INTER-LIGAND FREE ENERGY PREDICTED BY IDOCK:   -7.80 KCAL/MOL
REMARK 924 INTRA-LIGAND FREE ENERGY PREDICTED BY IDOCK:   -1.65 KCAL/MOL
REMARK 927      BINDING AFFINITY PREDICTED BY RF-SCORE:    0.00 PKD
ROOT
HETATM    1  C   UNL     1     -10.767   9.620  67.683  1.00  0.00    -0.324 C  
HETATM    2  C   UNL     1     -10.915  11.126  67.421  1.00  0.00    -0.290 C  
ENDROOT
BRANCH   2   3
HETATM    3  C   UNL     1     -11.119  11.335  65.896  1.00  0.00    -0.168 C  
BRANCH   3   4
HETATM    4  C   UNL     1     -11.133  12.778  65.446  1.00  0.00    -0.317 A  
HETATM    5  C   UNL     1     -12.280  14.621  64.354  1.00  0.00    -0.473 A  
HETATM    6  H   UNL     1     -12.062  17.091  63.805  1.00  0.00     0.000 HD 
HETATM    7  C   UNL     1     -10.054  13.631  65.719  1.00  0.00    -0.311 A  
HETATM    8  C   UNL     1     -12.242  13.285  64.753  1.00  0.00    -0.466 A  
HETATM    9  C   UNL     1     -10.090  14.970  65.317  1.00  0.00    -0.378 A  
HETATM   10  O   UNL     1     -11.298  16.760  64.263  1.00  0.00    -1.170 OA 
HETATM   11  C   UNL     1     -11.209  15.455  64.647  1.00  0.00    -0.364 A  
ENDBRANCH   3   4
ENDBRANCH   2   3
BRANCH   2  12
HETATM   12  N   UNL     1     -12.023  11.712  68.191  1.00  0.00    -0.590 NA 
HETATM   13  H   UNL     1     -12.646  10.980  68.532  1.00  0.00     0.000 HD 
BRANCH  12  14
HETATM   14  C   UNL     1     -11.598  12.579  69.295  1.00  0.00    -0.319 C  
BRANCH  14  15
HETATM   15  C   UNL     1     -12.235  13.990  69.204  1.00  0.00    -0.262 C  
HETATM   16  H   UNL     1     -13.289  15.180  70.377  1.00  0.00     0.000 HD 
HETATM   17  O   UNL     1     -12.900  14.315  70.432  1.00  0.00    -0.336 OA 
BRANCH  15  18
HETATM   18  C   UNL     1     -11.195  15.052  68.899  1.00  0.00    -0.288 A  
HETATM   19  O   UNL     1      -7.612  15.720  69.423  1.00  0.00    -0.214 OA 
HETATM   20  C   UNL     1      -8.914  15.867  69.043  1.00  0.00    -0.245 A  
HETATM   21  C   UNL     1      -9.859  14.869  69.288  1.00  0.00    -0.164 A  
HETATM   22  C   UNL     1      -9.266  17.048  68.404  1.00  0.00    -0.259 A  
HETATM   23  H   UNL     1      -6.969  16.399  69.256  1.00  0.00     0.000 HD 
HETATM   24  C   UNL     1     -10.586  17.231  68.011  1.00  0.00    -0.394 A  
HETATM   25  O   UNL     1     -10.994  18.371  67.385  1.00  0.00    -0.351 OA 
HETATM   26  C   UNL     1     -11.543  16.250  68.250  1.00  0.00    -0.118 A  
HETATM   27  H   UNL     1     -11.897  18.497  67.117  1.00  0.00     0.000 HD 
ENDBRANCH  15  18
ENDBRANCH  14  15
ENDBRANCH  12  14
ENDBRANCH   2  12
TORSDOF 6
ENDMDL
MODEL       42
REMARK 921   NORMALIZED FREE ENERGY PREDICTED BY IDOCK:   -6.55 KCAL/MOL
REMARK 922        TOTAL FREE ENERGY PREDICTED BY IDOCK:   -9.45 KCAL/MOL
REMARK 923 INTER-LIGAND FREE ENERGY PREDICTED BY IDOCK:   -8.61 KCAL/MOL
REMARK 924 INTRA-LIGAND FREE ENERGY PREDICTED BY IDOCK:   -0.84 KCAL/MOL
REMARK 927      BINDING AFFINITY PREDICTED BY RF-SCORE:    0.00 PKD
ROOT
HETATM    1  C   UNL     1     -10.162  10.587  66.598  1.00  0.00    -0.289 C  
HETATM    2  C   UNL     1     -11.275  11.307  67.372  1.00  0.00    -0.303 C  
ENDROOT
BRANCH   2   3
HETATM    3  C   UNL     1     -10.617  12.144  68.503  1.00  0.00    -0.252 C  
BRANCH   3   4
HETATM    4  C   UNL     1     -11.538  12.508  69.645  1.00  0.00    -0.323 A  
HETATM    5  C   UNL     1     -12.671  14.206  70.962  1.00  0.00    -0.433 A  
HETATM    6  H   UNL     1     -14.316  14.513  72.872  1.00  0.00     0.000 HD 
HETATM    7  C   UNL     1     -12.144  11.517  70.430  1.00  0.00    -0.471 A  
HETATM    8  C   UNL     1     -11.805  13.856  69.928  1.00  0.00    -0.394 A  
HETATM    9  C   UNL     1     -13.012  11.867  71.469  1.00  0.00    -0.427 A  
HETATM   10  O   UNL     1     -14.137  13.596  72.702  1.00  0.00    -0.746 OA 
HETATM   11  C   UNL     1     -13.275  13.210  71.718  1.00  0.00    -0.403 A  
ENDBRANCH   3   4
ENDBRANCH   2   3
BRANCH   2  12
HETATM   12  N   UNL     1     -12.096  12.154  66.494  1.00  0.00    -0.582 NA 
HETATM   13  H   UNL     1     -12.271  13.058  66.932  1.00  0.00     0.000 HD 
BRANCH  12  14
HETATM   14  C   UNL     1     -11.547  12.337  65.146  1.00  0.00    -0.351 C  
BRANCH  14  15
HETATM   15  C   UNL     1     -11.739  13.787  64.630  1.00  0.00    -0.395 C  
HETATM   16  H   UNL     1     -13.178  15.140  64.623  1.00  0.00     0.000 HD 
HETATM   17  O   UNL     1     -13.060  14.252  64.939  1.00  0.00    -0.645 OA 
BRANCH  15  18
HETATM   18  C   UNL     1     -10.719  14.734  65.235  1.00  0.00    -0.406 A  
HETATM   19  O   UNL     1      -7.569  14.639  67.139  1.00  0.00    -0.272 OA 
HETATM   20  C   UNL     1      -8.671  15.103  66.482  1.00  0.00    -0.245 A  
HETATM   21  C   UNL     1      -9.586  14.230  65.891  1.00  0.00    -0.227 A  
HETATM   22  C   UNL     1      -8.852  16.478  66.426  1.00  0.00    -0.345 A  
HETATM   23  H   UNL     1      -6.947  15.233  67.541  1.00  0.00     0.000 HD 
HETATM   24  C   UNL     1      -9.969  16.982  65.772  1.00  0.00    -0.153 A  
HETATM   25  O   UNL     1     -10.204  18.322  65.688  1.00  0.00    -0.573 OA 
HETATM   26  C   UNL     1     -10.894  16.128  65.180  1.00  0.00    -0.376 A  
HETATM   27  H   UNL     1     -10.969  18.666  65.241  1.00  0.00     0.000 HD 
ENDBRANCH  15  18
ENDBRANCH  14  15
ENDBRANCH  12  14
ENDBRANCH   2  12
TORSDOF 6
ENDMDL
MODEL       43
REMARK 921   NORMALIZED FREE ENERGY PREDICTED BY IDOCK:   -6.54 KCAL/MOL
REMARK 922        TOTAL FREE ENERGY PREDICTED BY IDOCK:   -9.44 KCAL/MOL
REMARK 923 INTER-LIGAND FREE ENERGY PREDICTED BY IDOCK:   -8.71 KCAL/MOL
REMARK 924 INTRA-LIGAND FREE ENERGY PREDICTED BY IDOCK:   -0.73 KCAL/MOL
REMARK 927      BINDING AFFINITY PREDICTED BY RF-SCORE:    0.00 PKD
ROOT
HETATM    1  C   UNL     1     -10.340  15.043  67.177  1.00  0.00    -0.257 C  
HETATM    2  C   UNL     1     -10.644  14.675  68.636  1.00  0.00    -0.252 C  
ENDROOT
BRANCH   2   3
HETATM    3  C   UNL     1     -12.112  15.076  68.943  1.00  0.00    -0.223 C  
BRANCH   3   4
HETATM    4  C   UNL     1     -12.404  15.365  70.398  1.00  0.00    -0.443 A  
HETATM    5  C   UNL     1     -11.687  16.257  72.541  1.00  0.00    -0.493 A  
HETATM    6  H   UNL     1     -12.486  16.703  74.910  1.00  0.00     0.000 HD 
HETATM    7  C   UNL     1     -13.650  15.054  70.961  1.00  0.00    -0.442 A  
HETATM    8  C   UNL     1     -11.423  15.962  71.204  1.00  0.00    -0.471 A  
HETATM    9  C   UNL     1     -13.914  15.348  72.302  1.00  0.00    -0.661 A  
HETATM   10  O   UNL     1     -13.157  16.287  74.381  1.00  0.00    -0.541 OA 
HETATM   11  C   UNL     1     -12.932  15.956  73.077  1.00  0.00    -0.530 A  
ENDBRANCH   3   4
ENDBRANCH   2   3
BRANCH   2  12
HETATM   12  N   UNL     1     -10.416  13.246  68.901  1.00  0.00    -0.404 NA 
HETATM   13  H   UNL     1     -10.273  13.087  69.899  1.00  0.00     0.000 HD 
BRANCH  12  14
HETATM   14  C   UNL     1     -11.468  12.362  68.388  1.00  0.00    -0.310 C  
BRANCH  14  15
HETATM   15  C   UNL     1     -10.891  11.222  67.508  1.00  0.00    -0.245 C  
HETATM   16  H   UNL     1     -11.242   9.300  67.218  1.00  0.00     0.000 HD 
HETATM   17  O   UNL     1     -11.595   9.998  67.757  1.00  0.00    -0.141 OA 
BRANCH  15  18
HETATM   18  C   UNL     1     -10.978  11.559  66.031  1.00  0.00    -0.316 A  
HETATM   19  O   UNL     1      -9.416  10.622  62.831  1.00  0.00    -0.284 OA 
HETATM   20  C   UNL     1     -10.211  11.240  63.751  1.00  0.00    -0.377 A  
HETATM   21  C   UNL     1     -10.159  10.897  65.104  1.00  0.00    -0.352 A  
HETATM   22  C   UNL     1     -11.075  12.227  63.294  1.00  0.00    -0.389 A  
HETATM   23  H   UNL     1      -9.452  10.855  61.911  1.00  0.00     0.000 HD 
HETATM   24  C   UNL     1     -11.891  12.880  64.207  1.00  0.00    -0.395 A  
HETATM   25  O   UNL     1     -12.755  13.861  63.820  1.00  0.00    -0.693 OA 
HETATM   26  C   UNL     1     -11.851  12.555  65.560  1.00  0.00    -0.491 A  
HETATM   27  H   UNL     1     -13.314  14.308  64.445  1.00  0.00     0.000 HD 
ENDBRANCH  15  18
ENDBRANCH  14  15
ENDBRANCH  12  14
ENDBRANCH   2  12
TORSDOF 6
ENDMDL
MODEL       44
REMARK 921   NORMALIZED FREE ENERGY PREDICTED BY IDOCK:   -6.53 KCAL/MOL
REMARK 922        TOTAL FREE ENERGY PREDICTED BY IDOCK:   -9.44 KCAL/MOL
REMARK 923 INTER-LIGAND FREE ENERGY PREDICTED BY IDOCK:   -9.06 KCAL/MOL
REMARK 924 INTRA-LIGAND FREE ENERGY PREDICTED BY IDOCK:   -0.38 KCAL/MOL
REMARK 927      BINDING AFFINITY PREDICTED BY RF-SCORE:    0.00 PKD
ROOT
HETATM    1  C   UNL     1     -10.375  14.392  65.695  1.00  0.00    -0.360 C  
HETATM    2  C   UNL     1     -11.906  14.327  65.796  1.00  0.00    -0.374 C  
ENDROOT
BRANCH   2   3
HETATM    3  C   UNL     1     -12.392  13.075  65.018  1.00  0.00    -0.526 C  
BRANCH   3   4
HETATM    4  C   UNL     1     -11.317  12.056  64.713  1.00  0.00    -0.369 A  
HETATM    5  C   UNL     1      -9.918  10.207  65.438  1.00  0.00    -0.377 A  
HETATM    6  H   UNL     1      -8.173   8.555  64.617  1.00  0.00     0.000 HD 
HETATM    7  C   UNL     1     -10.740  11.974  63.438  1.00  0.00    -0.475 A  
HETATM    8  C   UNL     1     -10.891  11.168  65.712  1.00  0.00    -0.218 A  
HETATM    9  C   UNL     1      -9.763  11.012  63.164  1.00  0.00    -0.398 A  
HETATM   10  O   UNL     1      -8.442   9.157  63.933  1.00  0.00    -0.178 OA 
HETATM   11  C   UNL     1      -9.369  10.130  64.165  1.00  0.00    -0.287 A  
ENDBRANCH   3   4
ENDBRANCH   2   3
BRANCH   2  12
HETATM   12  N   UNL     1     -12.363  14.295  67.194  1.00  0.00    -0.586 NA 
HETATM   13  H   UNL     1     -13.180  13.693  67.288  1.00  0.00     0.000 HD 
BRANCH  12  14
HETATM   14  C   UNL     1     -11.328  13.909  68.159  1.00  0.00    -0.295 C  
BRANCH  14  15
HETATM   15  C   UNL     1     -11.213  14.923  69.327  1.00  0.00    -0.284 C  
HETATM   16  H   UNL     1     -11.462  16.865  69.586  1.00  0.00     0.000 HD 
HETATM   17  O   UNL     1     -11.533  16.244  68.871  1.00  0.00    -0.340 OA 
BRANCH  15  18
HETATM   18  C   UNL     1     -12.129  14.553  70.478  1.00  0.00    -0.395 A  
HETATM   19  O   UNL     1     -14.091  16.163  73.146  1.00  0.00    -0.634 OA 
HETATM   20  C   UNL     1     -13.522  15.210  72.353  1.00  0.00    -0.449 A  
HETATM   21  C   UNL     1     -12.714  15.555  71.269  1.00  0.00    -0.526 A  
HETATM   22  C   UNL     1     -13.775  13.881  72.666  1.00  0.00    -0.582 A  
HETATM   23  H   UNL     1     -14.641  15.929  73.884  1.00  0.00     0.000 HD 
HETATM   24  C   UNL     1     -13.204  12.887  71.883  1.00  0.00    -0.423 A  
HETATM   25  O   UNL     1     -13.410  11.565  72.144  1.00  0.00    -0.581 OA 
HETATM   26  C   UNL     1     -12.392  13.210  70.800  1.00  0.00    -0.404 A  
HETATM   27  H   UNL     1     -13.019  10.884  71.608  1.00  0.00     0.000 HD 
ENDBRANCH  15  18
ENDBRANCH  14  15
ENDBRANCH  12  14
ENDBRANCH   2  12
TORSDOF 6
ENDMDL
MODEL       45
REMARK 921   NORMALIZED FREE ENERGY PREDICTED BY IDOCK:   -6.52 KCAL/MOL
REMARK 922        TOTAL FREE ENERGY PREDICTED BY IDOCK:   -9.42 KCAL/MOL
REMARK 923 INTER-LIGAND FREE ENERGY PREDICTED BY IDOCK:   -8.92 KCAL/MOL
REMARK 924 INTRA-LIGAND FREE ENERGY PREDICTED BY IDOCK:   -0.50 KCAL/MOL
REMARK 927      BINDING AFFINITY PREDICTED BY RF-SCORE:    0.00 PKD
ROOT
HETATM    1  C   UNL     1      -9.717  10.034  69.341  1.00  0.00    -0.240 C  
HETATM    2  C   UNL     1     -11.216   9.788  69.565  1.00  0.00    -0.142 C  
ENDROOT
BRANCH   2   3
HETATM    3  C   UNL     1     -11.483   9.769  71.094  1.00  0.00    -0.472 C  
BRANCH   3   4
HETATM    4  C   UNL     1     -11.252   8.434  71.765  1.00  0.00    -0.360 A  
HETATM    5  C   UNL     1     -11.927   6.129  72.129  1.00  0.00    -0.314 A  
HETATM    6  H   UNL     1     -11.242   3.989  73.315  1.00  0.00     0.000 HD 
HETATM    7  C   UNL     1     -10.154   8.230  72.612  1.00  0.00    -0.365 A  
HETATM    8  C   UNL     1     -12.140   7.372  71.536  1.00  0.00    -0.357 A  
HETATM    9  C   UNL     1      -9.940   6.984  73.209  1.00  0.00    -0.264 A  
HETATM   10  O   UNL     1     -10.638   4.702  73.490  1.00  0.00    -0.189 OA 
HETATM   11  C   UNL     1     -10.825   5.941  72.953  1.00  0.00    -0.258 A  
ENDBRANCH   3   4
ENDBRANCH   2   3
BRANCH   2  12
HETATM   12  N   UNL     1     -12.045  10.800  68.893  1.00  0.00    -0.749 NA 
HETATM   13  H   UNL     1     -12.601  11.316  69.576  1.00  0.00     0.000 HD 
BRANCH  12  14
HETATM   14  C   UNL     1     -11.293  11.727  68.040  1.00  0.00    -0.288 C  
BRANCH  14  15
HETATM   15  C   UNL     1     -12.106  13.008  67.714  1.00  0.00    -0.193 C  
HETATM   16  H   UNL     1     -12.040  14.923  68.191  1.00  0.00     0.000 HD 
HETATM   17  O   UNL     1     -11.542  14.139  68.390  1.00  0.00    -0.281 OA 
BRANCH  15  18
HETATM   18  C   UNL     1     -12.142  13.281  66.222  1.00  0.00    -0.472 A  
HETATM   19  O   UNL     1     -12.390  11.461  63.031  1.00  0.00    -0.952 OA 
HETATM   20  C   UNL     1     -12.272  12.472  63.938  1.00  0.00    -0.503 A  
HETATM   21  C   UNL     1     -12.281  12.222  65.311  1.00  0.00    -0.313 A  
HETATM   22  C   UNL     1     -12.137  13.764  63.444  1.00  0.00    -0.122 A  
HETATM   23  H   UNL     1     -12.384  11.631  62.096  1.00  0.00     0.000 HD 
HETATM   24  C   UNL     1     -12.006  14.815  64.342  1.00  0.00    -0.417 A  
HETATM   25  O   UNL     1     -11.865  16.103  63.919  1.00  0.00    -1.359 OA 
HETATM   26  C   UNL     1     -12.009  14.585  65.715  1.00  0.00    -0.309 A  
HETATM   27  H   UNL     1     -11.775  16.822  64.534  1.00  0.00     0.000 HD 
ENDBRANCH  15  18
ENDBRANCH  14  15
ENDBRANCH  12  14
ENDBRANCH   2  12
TORSDOF 6
ENDMDL
MODEL       46
REMARK 921   NORMALIZED FREE ENERGY PREDICTED BY IDOCK:   -6.51 KCAL/MOL
REMARK 922        TOTAL FREE ENERGY PREDICTED BY IDOCK:   -9.41 KCAL/MOL
REMARK 923 INTER-LIGAND FREE ENERGY PREDICTED BY IDOCK:   -8.29 KCAL/MOL
REMARK 924 INTRA-LIGAND FREE ENERGY PREDICTED BY IDOCK:   -1.12 KCAL/MOL
REMARK 927      BINDING AFFINITY PREDICTED BY RF-SCORE:    0.00 PKD
ROOT
HETATM    1  C   UNL     1      -9.032  12.748  66.923  1.00  0.00    -0.213 C  
HETATM    2  C   UNL     1      -9.903  12.216  65.777  1.00  0.00    -0.245 C  
ENDROOT
BRANCH   2   3
HETATM    3  C   UNL     1     -11.304  11.870  66.350  1.00  0.00    -0.400 C  
BRANCH   3   4
HETATM    4  C   UNL     1     -11.292  11.223  67.716  1.00  0.00    -0.354 A  
HETATM    5  C   UNL     1     -10.646   9.374  69.153  1.00  0.00    -0.234 A  
HETATM    6  H   UNL     1     -10.701   8.577  71.563  1.00  0.00     0.000 HD 
HETATM    7  C   UNL     1     -11.874  11.860  68.822  1.00  0.00    -0.371 A  
HETATM    8  C   UNL     1     -10.685   9.972  67.893  1.00  0.00    -0.322 A  
HETATM    9  C   UNL     1     -11.836  11.260  70.085  1.00  0.00    -0.449 A  
HETATM   10  O   UNL     1     -11.127   9.419  71.458  1.00  0.00    -0.355 OA 
HETATM   11  C   UNL     1     -11.212  10.026  70.239  1.00  0.00    -0.313 A  
ENDBRANCH   3   4
ENDBRANCH   2   3
BRANCH   2  12
HETATM   12  N   UNL     1     -10.004  13.181  64.671  1.00  0.00    -0.603 NA 
HETATM   13  H   UNL     1     -10.065  12.693  63.777  1.00  0.00     0.000 HD 
BRANCH  12  14
HETATM   14  C   UNL     1     -11.106  14.140  64.806  1.00  0.00    -0.387 C  
BRANCH  14  15
HETATM   15  C   UNL     1     -10.593  15.595  64.966  1.00  0.00    -0.396 C  
HETATM   16  H   UNL     1     -11.062  17.380  64.262  1.00  0.00     0.000 HD 
HETATM   17  O   UNL     1     -11.376  16.489  64.164  1.00  0.00    -1.060 OA 
BRANCH  15  18
HETATM   18  C   UNL     1     -10.640  16.047  66.413  1.00  0.00    -0.284 A  
HETATM   19  O   UNL     1      -8.989  18.441  68.673  1.00  0.00    -0.317 OA 
HETATM   20  C   UNL     1      -9.810  17.457  68.206  1.00  0.00    -0.310 A  
HETATM   21  C   UNL     1      -9.794  17.073  66.864  1.00  0.00    -0.273 A  
HETATM   22  C   UNL     1     -10.664  16.848  69.117  1.00  0.00    -0.298 A  
HETATM   23  H   UNL     1      -9.000  18.702  69.586  1.00  0.00     0.000 HD 
HETATM   24  C   UNL     1     -11.506  15.837  68.674  1.00  0.00    -0.386 A  
HETATM   25  O   UNL     1     -12.362  15.198  69.521  1.00  0.00    -0.520 OA 
HETATM   26  C   UNL     1     -11.502  15.437  67.341  1.00  0.00    -0.197 A  
HETATM   27  H   UNL     1     -12.938  14.506  69.218  1.00  0.00     0.000 HD 
ENDBRANCH  15  18
ENDBRANCH  14  15
ENDBRANCH  12  14
ENDBRANCH   2  12
TORSDOF 6
ENDMDL
MODEL       47
REMARK 921   NORMALIZED FREE ENERGY PREDICTED BY IDOCK:   -6.51 KCAL/MOL
REMARK 922        TOTAL FREE ENERGY PREDICTED BY IDOCK:   -9.40 KCAL/MOL
REMARK 923 INTER-LIGAND FREE ENERGY PREDICTED BY IDOCK:   -7.50 KCAL/MOL
REMARK 924 INTRA-LIGAND FREE ENERGY PREDICTED BY IDOCK:   -1.90 KCAL/MOL
REMARK 927      BINDING AFFINITY PREDICTED BY RF-SCORE:    0.00 PKD
ROOT
HETATM    1  C   UNL     1      -9.112  10.042  62.668  1.00  0.00    -0.304 C  
HETATM    2  C   UNL     1     -10.027  10.422  63.840  1.00  0.00    -0.200 C  
ENDROOT
BRANCH   2   3
HETATM    3  C   UNL     1      -9.213  11.302  64.827  1.00  0.00    -0.107 C  
BRANCH   3   4
HETATM    4  C   UNL     1      -9.718  11.297  66.252  1.00  0.00    -0.246 A  
HETATM    5  C   UNL     1      -9.619  12.183  68.512  1.00  0.00    -0.137 A  
HETATM    6  H   UNL     1     -10.723  12.019  70.793  1.00  0.00     0.000 HD 
HETATM    7  C   UNL     1     -10.760  10.446  66.647  1.00  0.00    -0.198 A  
HETATM    8  C   UNL     1      -9.148  12.160  67.200  1.00  0.00    -0.189 A  
HETATM    9  C   UNL     1     -11.232  10.468  67.962  1.00  0.00    -0.361 A  
HETATM   10  O   UNL     1     -11.112  11.420  70.166  1.00  0.00    -0.110 OA 
HETATM   11  C   UNL     1     -10.663  11.345  68.881  1.00  0.00    -0.210 A  
ENDBRANCH   3   4
ENDBRANCH   2   3
BRANCH   2  12
HETATM   12  N   UNL     1     -11.242  11.116  63.386  1.00  0.00    -0.718 NA 
HETATM   13  H   UNL     1     -12.033  10.879  63.985  1.00  0.00     0.000 HD 
BRANCH  12  14
HETATM   14  C   UNL     1     -11.100  12.572  63.278  1.00  0.00    -0.226 C  
BRANCH  14  15
HETATM   15  C   UNL     1     -12.213  13.324  64.054  1.00  0.00    -0.410 C  
HETATM   16  H   UNL     1     -13.875  12.859  65.014  1.00  0.00     0.000 HD 
HETATM   17  O   UNL     1     -13.194  12.398  64.538  1.00  0.00    -0.834 OA 
BRANCH  15  18
HETATM   18  C   UNL     1     -11.644  14.110  65.221  1.00  0.00    -0.341 A  
HETATM   19  O   UNL     1     -12.308  14.731  68.789  1.00  0.00    -0.574 OA 
HETATM   20  C   UNL     1     -11.739  14.783  67.551  1.00  0.00    -0.348 A  
HETATM   21  C   UNL     1     -12.239  14.026  66.489  1.00  0.00    -0.485 A  
HETATM   22  C   UNL     1     -10.644  15.620  67.382  1.00  0.00    -0.301 A  
HETATM   23  H   UNL     1     -11.968  15.246  69.511  1.00  0.00     0.000 HD 
HETATM   24  C   UNL     1     -10.048  15.702  66.130  1.00  0.00    -0.313 A  
HETATM   25  O   UNL     1      -8.974  16.509  65.901  1.00  0.00    -0.461 OA 
HETATM   26  C   UNL     1     -10.534  14.958  65.059  1.00  0.00    -0.429 A  
HETATM   27  H   UNL     1      -8.567  16.566  65.044  1.00  0.00     0.000 HD 
ENDBRANCH  15  18
ENDBRANCH  14  15
ENDBRANCH  12  14
ENDBRANCH   2  12
TORSDOF 6
ENDMDL
MODEL       48
REMARK 921   NORMALIZED FREE ENERGY PREDICTED BY IDOCK:   -6.51 KCAL/MOL
REMARK 922        TOTAL FREE ENERGY PREDICTED BY IDOCK:   -9.40 KCAL/MOL
REMARK 923 INTER-LIGAND FREE ENERGY PREDICTED BY IDOCK:   -8.40 KCAL/MOL
REMARK 924 INTRA-LIGAND FREE ENERGY PREDICTED BY IDOCK:   -1.00 KCAL/MOL
REMARK 927      BINDING AFFINITY PREDICTED BY RF-SCORE:    0.00 PKD
ROOT
HETATM    1  C   UNL     1     -12.678  15.201  70.597  1.00  0.00    -0.451 C  
HETATM    2  C   UNL     1     -11.695  15.416  69.437  1.00  0.00    -0.351 C  
ENDROOT
BRANCH   2   3
HETATM    3  C   UNL     1     -10.907  16.727  69.705  1.00  0.00    -0.205 C  
BRANCH   3   4
HETATM    4  C   UNL     1      -9.952  17.133  68.605  1.00  0.00    -0.313 A  
HETATM    5  C   UNL     1      -9.582  17.889  66.327  1.00  0.00    -0.252 A  
HETATM    6  H   UNL     1      -7.760  18.610  64.711  1.00  0.00     0.000 HD 
HETATM    7  C   UNL     1      -8.569  17.172  68.827  1.00  0.00    -0.236 A  
HETATM    8  C   UNL     1     -10.449  17.489  67.343  1.00  0.00    -0.342 A  
HETATM    9  C   UNL     1      -7.699  17.571  67.808  1.00  0.00    -0.209 A  
HETATM   10  O   UNL     1      -7.406  18.360  65.557  1.00  0.00    -0.534 OA 
HETATM   11  C   UNL     1      -8.216  17.936  66.569  1.00  0.00    -0.269 A  
ENDBRANCH   3   4
ENDBRANCH   2   3
BRANCH   2  12
HETATM   12  N   UNL     1     -10.785  14.273  69.268  1.00  0.00    -0.357 NA 
HETATM   13  H   UNL     1     -10.471  13.930  70.176  1.00  0.00     0.000 HD 
BRANCH  12  14
HETATM   14  C   UNL     1     -11.339  13.174  68.469  1.00  0.00    -0.286 C  
BRANCH  14  15
HETATM   15  C   UNL     1     -10.436  12.823  67.258  1.00  0.00    -0.232 C  
HETATM   16  H   UNL     1      -9.513  11.224  66.557  1.00  0.00     0.000 HD 
HETATM   17  O   UNL     1     -10.065  11.439  67.299  1.00  0.00    -0.188 OA 
BRANCH  15  18
HETATM   18  C   UNL     1     -11.129  13.119  65.941  1.00  0.00    -0.298 A  
HETATM   19  O   UNL     1     -12.636  11.342  63.089  1.00  0.00    -0.835 OA 
HETATM   20  C   UNL     1     -12.191  12.344  63.902  1.00  0.00    -0.513 A  
HETATM   21  C   UNL     1     -11.591  12.070  65.132  1.00  0.00    -0.330 A  
HETATM   22  C   UNL     1     -12.355  13.650  63.458  1.00  0.00    -0.265 A  
HETATM   23  H   UNL     1     -13.044  11.529  62.252  1.00  0.00     0.000 HD 
HETATM   24  C   UNL     1     -11.906  14.691  64.259  1.00  0.00    -0.337 A  
HETATM   25  O   UNL     1     -12.033  15.994  63.876  1.00  0.00    -1.267 OA 
HETATM   26  C   UNL     1     -11.302  14.438  65.486  1.00  0.00    -0.334 A  
HETATM   27  H   UNL     1     -11.725  16.706  64.423  1.00  0.00     0.000 HD 
ENDBRANCH  15  18
ENDBRANCH  14  15
ENDBRANCH  12  14
ENDBRANCH   2  12
TORSDOF 6
ENDMDL
MODEL       49
REMARK 921   NORMALIZED FREE ENERGY PREDICTED BY IDOCK:   -6.49 KCAL/MOL
REMARK 922        TOTAL FREE ENERGY PREDICTED BY IDOCK:   -9.38 KCAL/MOL
REMARK 923 INTER-LIGAND FREE ENERGY PREDICTED BY IDOCK:   -8.79 KCAL/MOL
REMARK 924 INTRA-LIGAND FREE ENERGY PREDICTED BY IDOCK:   -0.58 KCAL/MOL
REMARK 927      BINDING AFFINITY PREDICTED BY RF-SCORE:    0.00 PKD
ROOT
HETATM    1  C   UNL     1     -11.700  16.292  70.028  1.00  0.00    -0.064 C  
HETATM    2  C   UNL     1     -11.589  14.927  69.335  1.00  0.00    -0.309 C  
ENDROOT
BRANCH   2   3
HETATM    3  C   UNL     1     -10.592  15.062  68.153  1.00  0.00    -0.248 C  
BRANCH   3   4
HETATM    4  C   UNL     1     -11.113  14.578  66.819  1.00  0.00    -0.325 A  
HETATM    5  C   UNL     1     -12.192  12.851  65.494  1.00  0.00    -0.527 A  
HETATM    6  H   UNL     1     -13.058  12.344  63.161  1.00  0.00     0.000 HD 
HETATM    7  C   UNL     1     -11.046  15.390  65.678  1.00  0.00    -0.272 A  
HETATM    8  C   UNL     1     -11.684  13.301  66.712  1.00  0.00    -0.434 A  
HETATM    9  C   UNL     1     -11.552  14.938  64.456  1.00  0.00    -0.356 A  
HETATM   10  O   UNL     1     -12.663  13.206  63.214  1.00  0.00    -0.664 OA 
HETATM   11  C   UNL     1     -12.130  13.675  64.378  1.00  0.00    -0.427 A  
ENDBRANCH   3   4
ENDBRANCH   2   3
BRANCH   2  12
HETATM   12  N   UNL     1     -11.168  13.870  70.267  1.00  0.00    -0.472 NA 
HETATM   13  H   UNL     1     -10.848  14.277  71.146  1.00  0.00     0.000 HD 
BRANCH  12  14
HETATM   14  C   UNL     1     -12.188  12.846  70.519  1.00  0.00    -0.314 C  
BRANCH  14  15
HETATM   15  C   UNL     1     -11.865  11.513  69.794  1.00  0.00    -0.357 C  
HETATM   16  H   UNL     1     -10.349  10.743  68.790  1.00  0.00     0.000 HD 
HETATM   17  O   UNL     1     -10.547  11.559  69.234  1.00  0.00    -0.181 OA 
BRANCH  15  18
HETATM   18  C   UNL     1     -11.971  10.327  70.735  1.00  0.00    -0.456 A  
HETATM   19  O   UNL     1     -14.262   8.923  73.252  1.00  0.00    -1.197 OA 
HETATM   20  C   UNL     1     -13.179   9.096  72.441  1.00  0.00    -0.444 A  
HETATM   21  C   UNL     1     -13.104  10.165  71.546  1.00  0.00    -0.529 A  
HETATM   22  C   UNL     1     -12.149   8.169  72.540  1.00  0.00    -0.377 A  
HETATM   23  H   UNL     1     -14.313   8.196  73.860  1.00  0.00     0.000 HD 
HETATM   24  C   UNL     1     -11.029   8.323  71.735  1.00  0.00    -0.278 A  
HETATM   25  O   UNL     1      -9.984   7.449  71.790  1.00  0.00    -0.171 OA 
HETATM   26  C   UNL     1     -10.934   9.383  70.839  1.00  0.00    -0.391 A  
HETATM   27  H   UNL     1      -9.217   7.554  71.239  1.00  0.00     0.000 HD 
ENDBRANCH  15  18
ENDBRANCH  14  15
ENDBRANCH  12  14
ENDBRANCH   2  12
TORSDOF 6
ENDMDL
MODEL       50
REMARK 921   NORMALIZED FREE ENERGY PREDICTED BY IDOCK:   -6.48 KCAL/MOL
REMARK 922        TOTAL FREE ENERGY PREDICTED BY IDOCK:   -9.36 KCAL/MOL
REMARK 923 INTER-LIGAND FREE ENERGY PREDICTED BY IDOCK:   -8.50 KCAL/MOL
REMARK 924 INTRA-LIGAND FREE ENERGY PREDICTED BY IDOCK:   -0.86 KCAL/MOL
REMARK 927      BINDING AFFINITY PREDICTED BY RF-SCORE:    0.00 PKD
ROOT
HETATM    1  C   UNL     1      -8.055   9.858  67.803  1.00  0.00    -0.109 C  
HETATM    2  C   UNL     1      -9.502  10.328  67.597  1.00  0.00    -0.151 C  
ENDROOT
BRANCH   2   3
HETATM    3  C   UNL     1      -9.904  10.035  66.126  1.00  0.00    -0.309 C  
BRANCH   3   4
HETATM    4  C   UNL     1     -10.609  11.169  65.419  1.00  0.00    -0.291 A  
HETATM    5  C   UNL     1     -11.292  12.246  63.351  1.00  0.00    -0.508 A  
HETATM    6  H   UNL     1     -12.622  14.209  62.443  1.00  0.00     0.000 HD 
HETATM    7  C   UNL     1     -11.262  12.177  66.142  1.00  0.00    -0.386 A  
HETATM    8  C   UNL     1     -10.625  11.219  64.017  1.00  0.00    -0.450 A  
HETATM    9  C   UNL     1     -11.929  13.209  65.475  1.00  0.00    -0.457 A  
HETATM   10  O   UNL     1     -12.610  14.197  63.393  1.00  0.00    -0.818 OA 
HETATM   11  C   UNL     1     -11.947  13.227  64.084  1.00  0.00    -0.447 A  
ENDBRANCH   3   4
ENDBRANCH   2   3
BRANCH   2  12
HETATM   12  N   UNL     1     -10.429   9.682  68.540  1.00  0.00    -0.205 NA 
HETATM   13  H   UNL     1     -10.245   8.680  68.590  1.00  0.00     0.000 HD 
BRANCH  12  14
HETATM   14  C   UNL     1     -10.429  10.270  69.884  1.00  0.00    -0.256 C  
BRANCH  14  15
HETATM   15  C   UNL     1     -11.865  10.429  70.449  1.00  0.00    -0.328 C  
HETATM   16  H   UNL     1     -12.852   9.873  72.066  1.00  0.00     0.000 HD 
HETATM   17  O   UNL     1     -11.973   9.775  71.720  1.00  0.00    -0.392 OA 
BRANCH  15  18
HETATM   18  C   UNL     1     -12.246  11.890  70.601  1.00  0.00    -0.424 A  
HETATM   19  O   UNL     1     -11.987  15.074  68.771  1.00  0.00    -0.464 OA 
HETATM   20  C   UNL     1     -12.270  14.159  69.741  1.00  0.00    -0.344 A  
HETATM   21  C   UNL     1     -11.957  12.808  69.580  1.00  0.00    -0.354 A  
HETATM   22  C   UNL     1     -12.881  14.621  70.900  1.00  0.00    -0.427 A  
HETATM   23  H   UNL     1     -12.201  15.993  68.880  1.00  0.00     0.000 HD 
HETATM   24  C   UNL     1     -13.175  13.715  71.910  1.00  0.00    -0.411 A  
HETATM   25  O   UNL     1     -13.769  14.108  73.073  1.00  0.00    -0.617 OA 
HETATM   26  C   UNL     1     -12.867  12.365  71.770  1.00  0.00    -0.350 A  
HETATM   27  H   UNL     1     -13.970  13.488  73.764  1.00  0.00     0.000 HD 
ENDBRANCH  15  18
ENDBRANCH  14  15
ENDBRANCH  12  14
ENDBRANCH   2  12
TORSDOF 6
ENDMDL
MODEL       51
REMARK 921   NORMALIZED FREE ENERGY PREDICTED BY IDOCK:   -6.47 KCAL/MOL
REMARK 922        TOTAL FREE ENERGY PREDICTED BY IDOCK:   -9.35 KCAL/MOL
REMARK 923 INTER-LIGAND FREE ENERGY PREDICTED BY IDOCK:   -8.57 KCAL/MOL
REMARK 924 INTRA-LIGAND FREE ENERGY PREDICTED BY IDOCK:   -0.79 KCAL/MOL
REMARK 927      BINDING AFFINITY PREDICTED BY RF-SCORE:    0.00 PKD
ROOT
HETATM    1  C   UNL     1      -9.451  10.294  65.150  1.00  0.00    -0.309 C  
HETATM    2  C   UNL     1      -9.638  10.996  66.503  1.00  0.00    -0.195 C  
ENDROOT
BRANCH   2   3
HETATM    3  C   UNL     1     -11.053  11.633  66.528  1.00  0.00    -0.357 C  
BRANCH   3   4
HETATM    4  C   UNL     1     -11.163  12.971  65.833  1.00  0.00    -0.315 A  
HETATM    5  C   UNL     1     -10.306  15.214  65.459  1.00  0.00    -0.399 A  
HETATM    6  H   UNL     1     -10.685  17.315  64.083  1.00  0.00     0.000 HD 
HETATM    7  C   UNL     1     -12.180  13.221  64.901  1.00  0.00    -0.466 A  
HETATM    8  C   UNL     1     -10.232  13.983  66.110  1.00  0.00    -0.308 A  
HETATM    9  C   UNL     1     -12.257  14.455  64.249  1.00  0.00    -0.450 A  
HETATM   10  O   UNL     1     -11.331  16.644  63.893  1.00  0.00    -1.104 OA 
HETATM   11  C   UNL     1     -11.311  15.437  64.528  1.00  0.00    -0.313 A  
ENDBRANCH   3   4
ENDBRANCH   2   3
BRANCH   2  12
HETATM   12  N   UNL     1      -9.451  10.071  67.632  1.00  0.00    -0.143 NA 
HETATM   13  H   UNL     1      -8.864  10.498  68.348  1.00  0.00     0.000 HD 
BRANCH  12  14
HETATM   14  C   UNL     1     -10.701   9.578  68.221  1.00  0.00    -0.194 C  
BRANCH  14  15
HETATM   15  C   UNL     1     -10.540   9.240  69.726  1.00  0.00    -0.231 C  
HETATM   16  H   UNL     1      -9.145   9.430  71.111  1.00  0.00     0.000 HD 
HETATM   17  O   UNL     1      -9.243   9.637  70.189  1.00  0.00    -0.226 OA 
BRANCH  15  18
HETATM   18  C   UNL     1     -11.604   9.921  70.567  1.00  0.00    -0.386 A  
HETATM   19  O   UNL     1     -12.938  13.288  71.235  1.00  0.00    -0.328 OA 
HETATM   20  C   UNL     1     -12.744  11.939  71.287  1.00  0.00    -0.298 A  
HETATM   21  C   UNL     1     -11.793  11.309  70.482  1.00  0.00    -0.421 A  
HETATM   22  C   UNL     1     -13.526  11.212  72.176  1.00  0.00    -0.193 A  
HETATM   23  H   UNL     1     -13.585  13.715  71.783  1.00  0.00     0.000 HD 
HETATM   24  C   UNL     1     -13.346   9.838  72.260  1.00  0.00    -0.379 A  
HETATM   25  O   UNL     1     -14.079   9.071  73.116  1.00  0.00    -1.130 OA 
HETATM   26  C   UNL     1     -12.401   9.193  71.468  1.00  0.00    -0.421 A  
HETATM   27  H   UNL     1     -13.955   8.131  73.174  1.00  0.00     0.000 HD 
ENDBRANCH  15  18
ENDBRANCH  14  15
ENDBRANCH  12  14
ENDBRANCH   2  12
TORSDOF 6
ENDMDL
MODEL       52
REMARK 921   NORMALIZED FREE ENERGY PREDICTED BY IDOCK:   -6.47 KCAL/MOL
REMARK 922        TOTAL FREE ENERGY PREDICTED BY IDOCK:   -9.34 KCAL/MOL
REMARK 923 INTER-LIGAND FREE ENERGY PREDICTED BY IDOCK:   -8.41 KCAL/MOL
REMARK 924 INTRA-LIGAND FREE ENERGY PREDICTED BY IDOCK:   -0.93 KCAL/MOL
REMARK 927      BINDING AFFINITY PREDICTED BY RF-SCORE:    0.00 PKD
ROOT
HETATM    1  C   UNL     1     -12.354  13.594  65.715  1.00  0.00    -0.524 C  
HETATM    2  C   UNL     1     -11.907  13.103  67.099  1.00  0.00    -0.369 C  
ENDROOT
BRANCH   2   3
HETATM    3  C   UNL     1     -11.228  11.718  66.928  1.00  0.00    -0.387 C  
BRANCH   3   4
HETATM    4  C   UNL     1     -11.039  10.936  68.208  1.00  0.00    -0.324 A  
HETATM    5  C   UNL     1      -9.689   9.448  69.573  1.00  0.00    -0.191 A  
HETATM    6  H   UNL     1      -9.601   8.323  71.848  1.00  0.00     0.000 HD 
HETATM    7  C   UNL     1     -11.994  10.986  69.233  1.00  0.00    -0.410 A  
HETATM    8  C   UNL     1      -9.889  10.154  68.388  1.00  0.00    -0.164 A  
HETATM    9  C   UNL     1     -11.796  10.277  70.421  1.00  0.00    -0.396 A  
HETATM   10  O   UNL     1     -10.391   8.838  71.737  1.00  0.00    -0.286 OA 
HETATM   11  C   UNL     1     -10.639   9.521  70.584  1.00  0.00    -0.308 A  
ENDBRANCH   3   4
ENDBRANCH   2   3
BRANCH   2  12
HETATM   12  N   UNL     1     -11.004  14.060  67.757  1.00  0.00    -0.254 NA 
HETATM   13  H   UNL     1     -10.276  14.364  67.111  1.00  0.00     0.000 HD 
BRANCH  12  14
HETATM   14  C   UNL     1     -11.681  15.220  68.347  1.00  0.00    -0.321 C  
BRANCH  14  15
HETATM   15  C   UNL     1     -10.962  15.725  69.626  1.00  0.00    -0.306 C  
HETATM   16  H   UNL     1     -10.346  17.455  70.351  1.00  0.00     0.000 HD 
HETATM   17  O   UNL     1     -10.786  17.146  69.569  1.00  0.00    -0.269 OA 
BRANCH  15  18
HETATM   18  C   UNL     1     -11.735  15.364  70.880  1.00  0.00    -0.395 A  
HETATM   19  O   UNL     1     -12.493  16.731  74.214  1.00  0.00    -0.645 OA 
HETATM   20  C   UNL     1     -12.452  15.896  73.136  1.00  0.00    -0.497 A  
HETATM   21  C   UNL     1     -11.774  16.249  71.968  1.00  0.00    -0.528 A  
HETATM   22  C   UNL     1     -13.108  14.676  73.245  1.00  0.00    -0.505 A  
HETATM   23  H   UNL     1     -12.955  16.491  75.008  1.00  0.00     0.000 HD 
HETATM   24  C   UNL     1     -13.078  13.800  72.168  1.00  0.00    -0.406 A  
HETATM   25  O   UNL     1     -13.698  12.587  72.216  1.00  0.00    -0.491 OA 
HETATM   26  C   UNL     1     -12.404  14.132  70.997  1.00  0.00    -0.438 A  
HETATM   27  H   UNL     1     -13.677  11.987  71.479  1.00  0.00     0.000 HD 
ENDBRANCH  15  18
ENDBRANCH  14  15
ENDBRANCH  12  14
ENDBRANCH   2  12
TORSDOF 6
ENDMDL
MODEL       53
REMARK 921   NORMALIZED FREE ENERGY PREDICTED BY IDOCK:   -6.46 KCAL/MOL
REMARK 922        TOTAL FREE ENERGY PREDICTED BY IDOCK:   -9.34 KCAL/MOL
REMARK 923 INTER-LIGAND FREE ENERGY PREDICTED BY IDOCK:   -8.18 KCAL/MOL
REMARK 924 INTRA-LIGAND FREE ENERGY PREDICTED BY IDOCK:   -1.16 KCAL/MOL
REMARK 927      BINDING AFFINITY PREDICTED BY RF-SCORE:    0.00 PKD
ROOT
HETATM    1  C   UNL     1      -6.645  13.653  68.645  1.00  0.00    -0.097 C  
HETATM    2  C   UNL     1      -8.146  13.902  68.442  1.00  0.00    -0.145 C  
ENDROOT
BRANCH   2   3
HETATM    3  C   UNL     1      -8.349  14.536  67.039  1.00  0.00    -0.195 C  
BRANCH   3   4
HETATM    4  C   UNL     1      -9.023  15.888  67.041  1.00  0.00    -0.239 A  
HETATM    5  C   UNL     1     -10.370  17.559  65.902  1.00  0.00    -0.265 A  
HETATM    6  H   UNL     1     -11.472  19.824  66.223  1.00  0.00     0.000 HD 
HETATM    7  C   UNL     1      -8.972  16.720  68.168  1.00  0.00    -0.224 A  
HETATM    8  C   UNL     1      -9.722  16.324  65.906  1.00  0.00    -0.354 A  
HETATM    9  C   UNL     1      -9.620  17.959  68.165  1.00  0.00    -0.306 A  
HETATM   10  O   UNL     1     -10.992  19.549  66.996  1.00  0.00    -0.477 OA 
HETATM   11  C   UNL     1     -10.322  18.362  67.033  1.00  0.00    -0.393 A  
ENDBRANCH   3   4
ENDBRANCH   2   3
BRANCH   2  12
HETATM   12  N   UNL     1      -8.933  12.667  68.587  1.00  0.00    -0.392 NA 
HETATM   13  H   UNL     1      -8.764  12.242  69.498  1.00  0.00     0.000 HD 
BRANCH  12  14
HETATM   14  C   UNL     1     -10.372  12.839  68.361  1.00  0.00    -0.243 C  
BRANCH  14  15
HETATM   15  C   UNL     1     -10.981  11.653  67.567  1.00  0.00    -0.259 C  
HETATM   16  H   UNL     1     -12.648  10.594  67.601  1.00  0.00     0.000 HD 
HETATM   17  O   UNL     1     -12.275  11.320  68.087  1.00  0.00    -0.622 OA 
BRANCH  15  18
HETATM   18  C   UNL     1     -11.102  11.975  66.089  1.00  0.00    -0.367 A  
HETATM   19  O   UNL     1     -12.591  14.508  63.870  1.00  0.00    -0.901 OA 
HETATM   20  C   UNL     1     -11.925  13.401  64.306  1.00  0.00    -0.430 A  
HETATM   21  C   UNL     1     -11.779  13.130  65.668  1.00  0.00    -0.402 A  
HETATM   22  C   UNL     1     -11.397  12.549  63.345  1.00  0.00    -0.489 A  
HETATM   23  H   UNL     1     -12.689  14.692  62.943  1.00  0.00     0.000 HD 
HETATM   24  C   UNL     1     -10.721  11.408  63.757  1.00  0.00    -0.403 A  
HETATM   25  O   UNL     1     -10.186  10.531  62.861  1.00  0.00    -0.657 OA 
HETATM   26  C   UNL     1     -10.569  11.119  65.109  1.00  0.00    -0.319 A  
HETATM   27  H   UNL     1      -9.724   9.750  63.143  1.00  0.00     0.000 HD 
ENDBRANCH  15  18
ENDBRANCH  14  15
ENDBRANCH  12  14
ENDBRANCH   2  12
TORSDOF 6
ENDMDL
MODEL       54
REMARK 921   NORMALIZED FREE ENERGY PREDICTED BY IDOCK:   -6.46 KCAL/MOL
REMARK 922        TOTAL FREE ENERGY PREDICTED BY IDOCK:   -9.34 KCAL/MOL
REMARK 923 INTER-LIGAND FREE ENERGY PREDICTED BY IDOCK:   -8.50 KCAL/MOL
REMARK 924 INTRA-LIGAND FREE ENERGY PREDICTED BY IDOCK:   -0.84 KCAL/MOL
REMARK 927      BINDING AFFINITY PREDICTED BY RF-SCORE:    0.00 PKD
ROOT
HETATM    1  C   UNL     1     -12.608  12.045  63.556  1.00  0.00    -0.625 C  
HETATM    2  C   UNL     1     -12.121  12.914  64.724  1.00  0.00    -0.422 C  
ENDROOT
BRANCH   2   3
HETATM    3  C   UNL     1     -10.993  12.146  65.465  1.00  0.00    -0.343 C  
BRANCH   3   4
HETATM    4  C   UNL     1     -11.256  11.884  66.930  1.00  0.00    -0.382 A  
HETATM    5  C   UNL     1     -12.021  12.675  69.095  1.00  0.00    -0.293 A  
HETATM    6  H   UNL     1     -12.448  11.923  71.483  1.00  0.00     0.000 HD 
HETATM    7  C   UNL     1     -11.020  10.621  67.492  1.00  0.00    -0.371 A  
HETATM    8  C   UNL     1     -11.752  12.910  67.747  1.00  0.00    -0.412 A  
HETATM    9  C   UNL     1     -11.288  10.386  68.843  1.00  0.00    -0.278 A  
HETATM   10  O   UNL     1     -12.100  11.221  70.946  1.00  0.00    -0.348 OA 
HETATM   11  C   UNL     1     -11.797  11.414  69.631  1.00  0.00    -0.362 A  
ENDBRANCH   3   4
ENDBRANCH   2   3
BRANCH   2  12
HETATM   12  N   UNL     1     -11.656  14.234  64.270  1.00  0.00    -0.609 NA 
HETATM   13  H   UNL     1     -12.411  14.917  64.329  1.00  0.00     0.000 HD 
BRANCH  12  14
HETATM   14  C   UNL     1     -10.464  14.727  64.968  1.00  0.00    -0.416 C  
BRANCH  14  15
HETATM   15  C   UNL     1     -10.332  16.269  64.877  1.00  0.00     0.183 C  
HETATM   16  H   UNL     1     -11.310  17.756  64.020  1.00  0.00     0.000 HD 
HETATM   17  O   UNL     1     -11.390  16.812  64.076  1.00  0.00    -1.153 OA 
BRANCH  15  18
HETATM   18  C   UNL     1     -10.363  16.913  66.251  1.00  0.00    -0.312 A  
HETATM   19  O   UNL     1      -9.829  20.193  67.837  1.00  0.00    -0.379 OA 
HETATM   20  C   UNL     1     -10.092  18.866  67.666  1.00  0.00    -0.365 A  
HETATM   21  C   UNL     1     -10.104  18.285  66.397  1.00  0.00    -0.406 A  
HETATM   22  C   UNL     1     -10.344  18.110  68.804  1.00  0.00    -0.270 A  
HETATM   23  H   UNL     1      -9.821  20.588  68.701  1.00  0.00     0.000 HD 
HETATM   24  C   UNL     1     -10.606  16.754  68.664  1.00  0.00    -0.353 A  
HETATM   25  O   UNL     1     -10.855  15.959  69.743  1.00  0.00    -0.271 OA 
HETATM   26  C   UNL     1     -10.619  16.156  67.408  1.00  0.00    -0.311 A  
HETATM   27  H   UNL     1     -11.034  15.031  69.647  1.00  0.00     0.000 HD 
ENDBRANCH  15  18
ENDBRANCH  14  15
ENDBRANCH  12  14
ENDBRANCH   2  12
TORSDOF 6
ENDMDL
MODEL       55
REMARK 921   NORMALIZED FREE ENERGY PREDICTED BY IDOCK:   -6.44 KCAL/MOL
REMARK 922        TOTAL FREE ENERGY PREDICTED BY IDOCK:   -9.31 KCAL/MOL
REMARK 923 INTER-LIGAND FREE ENERGY PREDICTED BY IDOCK:   -7.83 KCAL/MOL
REMARK 924 INTRA-LIGAND FREE ENERGY PREDICTED BY IDOCK:   -1.48 KCAL/MOL
REMARK 927      BINDING AFFINITY PREDICTED BY RF-SCORE:    0.00 PKD
ROOT
HETATM    1  C   UNL     1     -12.675  11.622  63.344  1.00  0.00    -0.250 C  
HETATM    2  C   UNL     1     -12.308  12.695  64.380  1.00  0.00    -0.446 C  
ENDROOT
BRANCH   2   3
HETATM    3  C   UNL     1     -10.990  12.265  65.078  1.00  0.00    -0.344 C  
BRANCH   3   4
HETATM    4  C   UNL     1     -11.149  11.787  66.504  1.00  0.00    -0.364 A  
HETATM    5  C   UNL     1     -10.818  10.065  68.185  1.00  0.00    -0.303 A  
HETATM    6  H   UNL     1     -11.135   9.570  70.656  1.00  0.00     0.000 HD 
HETATM    7  C   UNL     1     -11.734  12.607  67.480  1.00  0.00    -0.429 A  
HETATM    8  C   UNL     1     -10.700  10.510  66.869  1.00  0.00    -0.281 A  
HETATM    9  C   UNL     1     -11.854  12.161  68.799  1.00  0.00    -0.356 A  
HETATM   10  O   UNL     1     -11.456  10.434  70.422  1.00  0.00    -0.291 OA 
HETATM   11  C   UNL     1     -11.385  10.897  69.141  1.00  0.00    -0.283 A  
ENDBRANCH   3   4
ENDBRANCH   2   3
BRANCH   2  12
HETATM   12  N   UNL     1     -12.176  14.026  63.768  1.00  0.00    -0.939 NA 
HETATM   13  H   UNL     1     -12.862  14.146  63.023  1.00  0.00     0.000 HD 
BRANCH  12  14
HETATM   14  C   UNL     1     -12.258  15.139  64.721  1.00  0.00    -0.137 C  
BRANCH  14  15
HETATM   15  C   UNL     1     -10.939  15.953  64.780  1.00  0.00    -0.375 C  
HETATM   16  H   UNL     1     -10.386  17.831  64.521  1.00  0.00     0.000 HD 
HETATM   17  O   UNL     1     -11.193  17.332  64.485  1.00  0.00    -1.083 OA 
BRANCH  15  18
HETATM   18  C   UNL     1     -10.276  15.844  66.140  1.00  0.00    -0.340 A  
HETATM   19  O   UNL     1      -7.066  14.837  67.638  1.00  0.00    -0.156 OA 
HETATM   20  C   UNL     1      -8.352  15.271  67.504  1.00  0.00    -0.175 A  
HETATM   21  C   UNL     1      -8.946  15.410  66.248  1.00  0.00    -0.341 A  
HETATM   22  C   UNL     1      -9.054  15.566  68.666  1.00  0.00    -0.202 A  
HETATM   23  H   UNL     1      -6.663  14.743  68.492  1.00  0.00     0.000 HD 
HETATM   24  C   UNL     1     -10.368  16.002  68.564  1.00  0.00    -0.241 A  
HETATM   25  O   UNL     1     -11.110  16.302  69.667  1.00  0.00    -0.321 OA 
HETATM   26  C   UNL     1     -10.978  16.144  67.321  1.00  0.00    -0.175 A  
HETATM   27  H   UNL     1     -12.009  16.600  69.598  1.00  0.00     0.000 HD 
ENDBRANCH  15  18
ENDBRANCH  14  15
ENDBRANCH  12  14
ENDBRANCH   2  12
TORSDOF 6
ENDMDL
MODEL       56
REMARK 921   NORMALIZED FREE ENERGY PREDICTED BY IDOCK:   -6.44 KCAL/MOL
REMARK 922        TOTAL FREE ENERGY PREDICTED BY IDOCK:   -9.30 KCAL/MOL
REMARK 923 INTER-LIGAND FREE ENERGY PREDICTED BY IDOCK:   -8.46 KCAL/MOL
REMARK 924 INTRA-LIGAND FREE ENERGY PREDICTED BY IDOCK:   -0.85 KCAL/MOL
REMARK 927      BINDING AFFINITY PREDICTED BY RF-SCORE:    0.00 PKD
ROOT
HETATM    1  C   UNL     1     -12.013  12.882  67.004  1.00  0.00    -0.390 C  
HETATM    2  C   UNL     1     -11.190  13.199  68.260  1.00  0.00    -0.274 C  
ENDROOT
BRANCH   2   3
HETATM    3  C   UNL     1     -11.895  12.549  69.481  1.00  0.00    -0.375 C  
BRANCH   3   4
HETATM    4  C   UNL     1     -12.357  13.519  70.544  1.00  0.00    -0.412 A  
HETATM    5  C   UNL     1     -13.544  13.943  72.620  1.00  0.00    -0.626 A  
HETATM    6  H   UNL     1     -14.097  15.773  74.291  1.00  0.00     0.000 HD 
HETATM    7  C   UNL     1     -12.014  14.877  70.480  1.00  0.00    -0.365 A  
HETATM    8  C   UNL     1     -13.132  13.063  71.620  1.00  0.00    -0.440 A  
HETATM    9  C   UNL     1     -12.428  15.760  71.482  1.00  0.00    -0.515 A  
HETATM   10  O   UNL     1     -13.583  16.101  73.563  1.00  0.00    -0.623 OA 
HETATM   11  C   UNL     1     -13.182  15.281  72.549  1.00  0.00    -0.430 A  
ENDBRANCH   3   4
ENDBRANCH   2   3
BRANCH   2  12
HETATM   12  N   UNL     1      -9.800  12.733  68.138  1.00  0.00    -0.222 NA 
HETATM   13  H   UNL     1      -9.773  11.723  68.003  1.00  0.00     0.000 HD 
BRANCH  12  14
HETATM   14  C   UNL     1      -9.026  13.411  67.093  1.00  0.00    -0.226 C  
BRANCH  14  15
HETATM   15  C   UNL     1      -8.570  14.827  67.531  1.00  0.00    -0.187 C  
HETATM   16  H   UNL     1      -6.892  15.868  67.544  1.00  0.00     0.000 HD 
HETATM   17  O   UNL     1      -7.170  15.000  67.275  1.00  0.00    -0.202 OA 
BRANCH  15  18
HETATM   18  C   UNL     1      -9.351  15.911  66.811  1.00  0.00    -0.262 A  
HETATM   19  O   UNL     1     -10.135  19.496  67.122  1.00  0.00    -0.349 OA 
HETATM   20  C   UNL     1     -10.105  18.213  66.659  1.00  0.00    -0.373 A  
HETATM   21  C   UNL     1      -9.352  17.227  67.300  1.00  0.00    -0.237 A  
HETATM   22  C   UNL     1     -10.854  17.921  65.527  1.00  0.00     0.112 A  
HETATM   23  H   UNL     1     -10.647  20.166  66.685  1.00  0.00     0.000 HD 
HETATM   24  C   UNL     1     -10.850  16.622  65.036  1.00  0.00    -0.176 A  
HETATM   25  O   UNL     1     -11.569  16.273  63.932  1.00  0.00    -1.489 OA 
HETATM   26  C   UNL     1     -10.109  15.625  65.663  1.00  0.00    -0.395 A  
HETATM   27  H   UNL     1     -11.567  15.384  63.596  1.00  0.00     0.000 HD 
ENDBRANCH  15  18
ENDBRANCH  14  15
ENDBRANCH  12  14
ENDBRANCH   2  12
TORSDOF 6
ENDMDL
MODEL       57
REMARK 921   NORMALIZED FREE ENERGY PREDICTED BY IDOCK:   -6.43 KCAL/MOL
REMARK 922        TOTAL FREE ENERGY PREDICTED BY IDOCK:   -9.30 KCAL/MOL
REMARK 923 INTER-LIGAND FREE ENERGY PREDICTED BY IDOCK:   -8.00 KCAL/MOL
REMARK 924 INTRA-LIGAND FREE ENERGY PREDICTED BY IDOCK:   -1.30 KCAL/MOL
REMARK 927      BINDING AFFINITY PREDICTED BY RF-SCORE:    0.00 PKD
ROOT
HETATM    1  C   UNL     1     -12.480  15.454  70.553  1.00  0.00    -0.468 C  
HETATM    2  C   UNL     1     -12.093  14.273  69.651  1.00  0.00    -0.346 C  
ENDROOT
BRANCH   2   3
HETATM    3  C   UNL     1     -11.008  14.758  68.653  1.00  0.00    -0.262 C  
BRANCH   3   4
HETATM    4  C   UNL     1     -11.372  14.609  67.193  1.00  0.00    -0.365 A  
HETATM    5  C   UNL     1     -12.772  13.617  65.474  1.00  0.00    -0.514 A  
HETATM    6  H   UNL     1     -13.217  13.637  62.974  1.00  0.00     0.000 HD 
HETATM    7  C   UNL     1     -10.692  15.331  66.201  1.00  0.00    -0.322 A  
HETATM    8  C   UNL     1     -12.410  13.746  66.814  1.00  0.00    -0.365 A  
HETATM    9  C   UNL     1     -11.053  15.201  64.857  1.00  0.00    -0.425 A  
HETATM   10  O   UNL     1     -12.503  14.217  63.212  1.00  0.00    -0.758 OA 
HETATM   11  C   UNL     1     -12.099  14.351  64.507  1.00  0.00    -0.481 A  
ENDBRANCH   3   4
ENDBRANCH   2   3
BRANCH   2  12
HETATM   12  N   UNL     1     -11.620  13.118  70.430  1.00  0.00    -0.520 NA 
HETATM   13  H   UNL     1     -11.914  13.201  71.404  1.00  0.00     0.000 HD 
BRANCH  12  14
HETATM   14  C   UNL     1     -12.019  11.817  69.884  1.00  0.00    -0.332 C  
BRANCH  14  15
HETATM   15  C   UNL     1     -10.844  10.804  69.878  1.00  0.00    -0.202 C  
HETATM   16  H   UNL     1     -10.461   9.029  70.654  1.00  0.00     0.000 HD 
HETATM   17  O   UNL     1     -11.180   9.649  70.658  1.00  0.00    -0.269 OA 
BRANCH  15  18
HETATM   18  C   UNL     1     -10.488  10.371  68.467  1.00  0.00    -0.210 A  
HETATM   19  O   UNL     1      -9.354  11.819  65.278  1.00  0.00    -0.380 OA 
HETATM   20  C   UNL     1      -9.765  10.920  66.217  1.00  0.00    -0.204 A  
HETATM   21  C   UNL     1     -10.052  11.315  67.525  1.00  0.00    -0.207 A  
HETATM   22  C   UNL     1      -9.893   9.594  65.823  1.00  0.00    -0.373 A  
HETATM   23  H   UNL     1      -9.159  11.551  64.388  1.00  0.00     0.000 HD 
HETATM   24  C   UNL     1     -10.319   8.656  66.754  1.00  0.00    -0.266 A  
HETATM   25  O   UNL     1     -10.469   7.341  66.426  1.00  0.00    -0.490 OA 
HETATM   26  C   UNL     1     -10.612   9.030  68.061  1.00  0.00    -0.242 A  
HETATM   27  H   UNL     1     -10.761   6.699  67.063  1.00  0.00     0.000 HD 
ENDBRANCH  15  18
ENDBRANCH  14  15
ENDBRANCH  12  14
ENDBRANCH   2  12
TORSDOF 6
ENDMDL
MODEL       58
REMARK 921   NORMALIZED FREE ENERGY PREDICTED BY IDOCK:   -6.40 KCAL/MOL
REMARK 922        TOTAL FREE ENERGY PREDICTED BY IDOCK:   -9.26 KCAL/MOL
REMARK 923 INTER-LIGAND FREE ENERGY PREDICTED BY IDOCK:   -8.45 KCAL/MOL
REMARK 924 INTRA-LIGAND FREE ENERGY PREDICTED BY IDOCK:   -0.81 KCAL/MOL
REMARK 927      BINDING AFFINITY PREDICTED BY RF-SCORE:    0.00 PKD
ROOT
HETATM    1  C   UNL     1      -7.686   9.106  69.588  1.00  0.00    -0.082 C  
HETATM    2  C   UNL     1      -9.121   9.102  69.044  1.00  0.00    -0.143 C  
ENDROOT
BRANCH   2   3
HETATM    3  C   UNL     1      -9.877  10.311  69.658  1.00  0.00    -0.230 C  
BRANCH   3   4
HETATM    4  C   UNL     1     -11.095   9.953  70.479  1.00  0.00    -0.398 A  
HETATM    5  C   UNL     1     -12.369   8.302  71.726  1.00  0.00    -0.366 A  
HETATM    6  H   UNL     1     -14.454   8.016  73.146  1.00  0.00     0.000 HD 
HETATM    7  C   UNL     1     -12.065  10.916  70.791  1.00  0.00    -0.469 A  
HETATM    8  C   UNL     1     -11.262   8.642  70.948  1.00  0.00    -0.311 A  
HETATM    9  C   UNL     1     -13.175  10.576  71.570  1.00  0.00    -0.470 A  
HETATM   10  O   UNL     1     -14.362   8.905  72.826  1.00  0.00    -0.600 OA 
HETATM   11  C   UNL     1     -13.311   9.273  72.039  1.00  0.00    -0.450 A  
ENDBRANCH   3   4
ENDBRANCH   2   3
BRANCH   2  12
HETATM   12  N   UNL     1      -9.152   9.147  67.574  1.00  0.00    -0.125 NA 
HETATM   13  H   UNL     1      -9.096   8.204  67.188  1.00  0.00     0.000 HD 
BRANCH  12  14
HETATM   14  C   UNL     1     -10.305   9.861  67.016  1.00  0.00    -0.239 C  
BRANCH  14  15
HETATM   15  C   UNL     1      -9.910  10.750  65.808  1.00  0.00    -0.240 C  
HETATM   16  H   UNL     1      -9.714  10.532  63.854  1.00  0.00     0.000 HD 
HETATM   17  O   UNL     1      -9.956   9.988  64.594  1.00  0.00    -0.309 OA 
BRANCH  15  18
HETATM   18  C   UNL     1     -10.823  11.955  65.679  1.00  0.00    -0.333 A  
HETATM   19  O   UNL     1     -12.601  14.381  67.802  1.00  0.00    -0.516 OA 
HETATM   20  C   UNL     1     -12.142  13.715  66.705  1.00  0.00    -0.411 A  
HETATM   21  C   UNL     1     -11.268  12.632  66.825  1.00  0.00    -0.347 A  
HETATM   22  C   UNL     1     -12.578  14.150  65.460  1.00  0.00    -0.501 A  
HETATM   23  H   UNL     1     -13.195  15.118  67.721  1.00  0.00     0.000 HD 
HETATM   24  C   UNL     1     -12.136  13.487  64.324  1.00  0.00    -0.431 A  
HETATM   25  O   UNL     1     -12.533  13.864  63.076  1.00  0.00    -1.099 OA 
HETATM   26  C   UNL     1     -11.268  12.404  64.423  1.00  0.00    -0.384 A  
HETATM   27  H   UNL     1     -12.230  13.409  62.298  1.00  0.00     0.000 HD 
ENDBRANCH  15  18
ENDBRANCH  14  15
ENDBRANCH  12  14
ENDBRANCH   2  12
TORSDOF 6
ENDMDL
MODEL       59
REMARK 921   NORMALIZED FREE ENERGY PREDICTED BY IDOCK:   -6.40 KCAL/MOL
REMARK 922        TOTAL FREE ENERGY PREDICTED BY IDOCK:   -9.25 KCAL/MOL
REMARK 923 INTER-LIGAND FREE ENERGY PREDICTED BY IDOCK:   -8.36 KCAL/MOL
REMARK 924 INTRA-LIGAND FREE ENERGY PREDICTED BY IDOCK:   -0.89 KCAL/MOL
REMARK 927      BINDING AFFINITY PREDICTED BY RF-SCORE:    0.00 PKD
ROOT
HETATM    1  C   UNL     1     -11.655  11.398  68.157  1.00  0.00    -0.364 C  
HETATM    2  C   UNL     1     -11.927  12.906  68.246  1.00  0.00    -0.254 C  
ENDROOT
BRANCH   2   3
HETATM    3  C   UNL     1     -10.988  13.506  69.328  1.00  0.00    -0.169 C  
BRANCH   3   4
HETATM    4  C   UNL     1     -11.693  14.195  70.474  1.00  0.00    -0.284 A  
HETATM    5  C   UNL     1     -11.934  16.126  71.928  1.00  0.00    -0.583 A  
HETATM    6  H   UNL     1     -13.355  17.071  73.809  1.00  0.00     0.000 HD 
HETATM    7  C   UNL     1     -12.771  13.585  71.131  1.00  0.00    -0.425 A  
HETATM    8  C   UNL     1     -11.278  15.469  70.888  1.00  0.00    -0.409 A  
HETATM    9  C   UNL     1     -13.429  14.242  72.175  1.00  0.00    -0.524 A  
HETATM   10  O   UNL     1     -13.641  16.203  73.549  1.00  0.00    -0.623 OA 
HETATM   11  C   UNL     1     -13.010  15.513  72.556  1.00  0.00    -0.428 A  
ENDBRANCH   3   4
ENDBRANCH   2   3
BRANCH   2  12
HETATM   12  N   UNL     1     -11.740  13.576  66.950  1.00  0.00    -0.362 NA 
HETATM   13  H   UNL     1     -12.426  13.240  66.273  1.00  0.00     0.000 HD 
BRANCH  12  14
HETATM   14  C   UNL     1     -11.762  15.041  67.018  1.00  0.00    -0.188 C  
BRANCH  14  15
HETATM   15  C   UNL     1     -10.485  15.671  66.404  1.00  0.00    -0.305 C  
HETATM   16  H   UNL     1      -9.737  15.958  64.599  1.00  0.00     0.000 HD 
HETATM   17  O   UNL     1     -10.519  15.572  64.975  1.00  0.00    -0.404 OA 
BRANCH  15  18
HETATM   18  C   UNL     1     -10.335  17.128  66.803  1.00  0.00    -0.302 A  
HETATM   19  O   UNL     1     -10.270  19.229  69.826  1.00  0.00    -0.382 OA 
HETATM   20  C   UNL     1     -10.249  18.842  68.519  1.00  0.00    -0.347 A  
HETATM   21  C   UNL     1     -10.345  17.497  68.157  1.00  0.00    -0.375 A  
HETATM   22  C   UNL     1     -10.132  19.837  67.557  1.00  0.00    -0.554 A  
HETATM   23  H   UNL     1     -10.205  20.144  70.072  1.00  0.00     0.000 HD 
HETATM   24  C   UNL     1     -10.117  19.476  66.216  1.00  0.00    -0.468 A  
HETATM   25  O   UNL     1     -10.009  20.407  65.226  1.00  0.00    -0.376 OA 
HETATM   26  C   UNL     1     -10.214  18.141  65.836  1.00  0.00    -0.239 A  
HETATM   27  H   UNL     1      -9.999  20.160  64.309  1.00  0.00     0.000 HD 
ENDBRANCH  15  18
ENDBRANCH  14  15
ENDBRANCH  12  14
ENDBRANCH   2  12
TORSDOF 6
ENDMDL
MODEL       60
REMARK 921   NORMALIZED FREE ENERGY PREDICTED BY IDOCK:   -6.37 KCAL/MOL
REMARK 922        TOTAL FREE ENERGY PREDICTED BY IDOCK:   -9.21 KCAL/MOL
REMARK 923 INTER-LIGAND FREE ENERGY PREDICTED BY IDOCK:   -8.50 KCAL/MOL
REMARK 924 INTRA-LIGAND FREE ENERGY PREDICTED BY IDOCK:   -0.71 KCAL/MOL
REMARK 927      BINDING AFFINITY PREDICTED BY RF-SCORE:    0.00 PKD
ROOT
HETATM    1  C   UNL     1     -10.514   7.945  67.092  1.00  0.00    -0.414 C  
HETATM    2  C   UNL     1     -10.548   9.353  67.702  1.00  0.00    -0.271 C  
ENDROOT
BRANCH   2   3
HETATM    3  C   UNL     1     -10.098   9.253  69.184  1.00  0.00    -0.204 C  
BRANCH   3   4
HETATM    4  C   UNL     1     -11.223   9.123  70.185  1.00  0.00    -0.211 A  
HETATM    5  C   UNL     1     -12.572   7.732  71.651  1.00  0.00    -0.357 A  
HETATM    6  H   UNL     1     -14.438   7.831  73.371  1.00  0.00     0.000 HD 
HETATM    7  C   UNL     1     -11.944  10.247  70.612  1.00  0.00    -0.436 A  
HETATM    8  C   UNL     1     -11.553   7.864  70.708  1.00  0.00    -0.258 A  
HETATM    9  C   UNL     1     -12.967  10.115  71.556  1.00  0.00    -0.547 A  
HETATM   10  O   UNL     1     -14.235   8.689  73.017  1.00  0.00    -0.348 OA 
HETATM   11  C   UNL     1     -13.265   8.859  72.074  1.00  0.00    -0.409 A  
ENDBRANCH   3   4
ENDBRANCH   2   3
BRANCH   2  12
HETATM   12  N   UNL     1      -9.703  10.296  66.952  1.00  0.00    -0.179 NA 
HETATM   13  H   UNL     1      -9.919  10.254  65.956  1.00  0.00     0.000 HD 
BRANCH  12  14
HETATM   14  C   UNL     1      -9.771  11.681  67.433  1.00  0.00    -0.176 C  
BRANCH  14  15
HETATM   15  C   UNL     1     -11.209  12.257  67.344  1.00  0.00    -0.301 C  
HETATM   16  H   UNL     1     -12.249  13.691  68.217  1.00  0.00     0.000 HD 
HETATM   17  O   UNL     1     -11.369  13.338  68.272  1.00  0.00    -0.264 OA 
BRANCH  15  18
HETATM   18  C   UNL     1     -11.529  12.745  65.943  1.00  0.00    -0.399 A  
HETATM   19  O   UNL     1     -11.822  15.892  64.055  1.00  0.00    -1.008 OA 
HETATM   20  C   UNL     1     -11.831  14.565  64.367  1.00  0.00    -0.403 A  
HETATM   21  C   UNL     1     -11.496  14.116  65.645  1.00  0.00    -0.325 A  
HETATM   22  C   UNL     1     -12.191  13.673  63.365  1.00  0.00    -0.236 A  
HETATM   23  H   UNL     1     -12.050  16.197  63.185  1.00  0.00     0.000 HD 
HETATM   24  C   UNL     1     -12.218  12.315  63.653  1.00  0.00    -0.567 A  
HETATM   25  O   UNL     1     -12.568  11.391  62.713  1.00  0.00    -0.952 OA 
HETATM   26  C   UNL     1     -11.891  11.848  64.922  1.00  0.00    -0.236 A  
HETATM   27  H   UNL     1     -12.588  10.462  62.911  1.00  0.00     0.000 HD 
ENDBRANCH  15  18
ENDBRANCH  14  15
ENDBRANCH  12  14
ENDBRANCH   2  12
TORSDOF 6
ENDMDL
MODEL       61
REMARK 921   NORMALIZED FREE ENERGY PREDICTED BY IDOCK:   -6.35 KCAL/MOL
REMARK 922        TOTAL FREE ENERGY PREDICTED BY IDOCK:   -9.19 KCAL/MOL
REMARK 923 INTER-LIGAND FREE ENERGY PREDICTED BY IDOCK:   -8.69 KCAL/MOL
REMARK 924 INTRA-LIGAND FREE ENERGY PREDICTED BY IDOCK:   -0.51 KCAL/MOL
REMARK 927      BINDING AFFINITY PREDICTED BY RF-SCORE:    0.00 PKD
ROOT
HETATM    1  C   UNL     1      -9.588   9.948  69.967  1.00  0.00    -0.260 C  
HETATM    2  C   UNL     1     -11.055   9.496  69.966  1.00  0.00    -0.237 C  
ENDROOT
BRANCH   2   3
HETATM    3  C   UNL     1     -11.537   9.403  71.439  1.00  0.00    -0.451 C  
BRANCH   3   4
HETATM    4  C   UNL     1     -11.313   8.062  72.100  1.00  0.00    -0.387 A  
HETATM    5  C   UNL     1     -10.161   6.710  73.757  1.00  0.00    -0.325 A  
HETATM    6  H   UNL     1     -10.066   4.370  74.740  1.00  0.00     0.000 HD 
HETATM    7  C   UNL     1     -12.052   6.934  71.716  1.00  0.00    -0.385 A  
HETATM    8  C   UNL     1     -10.360   7.935  73.121  1.00  0.00    -0.357 A  
HETATM    9  C   UNL     1     -11.851   5.705  72.351  1.00  0.00    -0.181 A  
HETATM   10  O   UNL     1     -10.706   4.436  74.041  1.00  0.00    -0.243 OA 
HETATM   11  C   UNL     1     -10.913   5.608  73.374  1.00  0.00    -0.249 A  
ENDBRANCH   3   4
ENDBRANCH   2   3
BRANCH   2  12
HETATM   12  N   UNL     1     -11.909  10.403  69.183  1.00  0.00    -0.518 NA 
HETATM   13  H   UNL     1     -12.230  11.178  69.762  1.00  0.00     0.000 HD 
BRANCH  12  14
HETATM   14  C   UNL     1     -11.288  10.905  67.953  1.00  0.00    -0.308 C  
BRANCH  14  15
HETATM   15  C   UNL     1     -11.707  12.366  67.644  1.00  0.00    -0.346 C  
HETATM   16  H   UNL     1     -11.101  14.180  68.137  1.00  0.00     0.000 HD 
HETATM   17  O   UNL     1     -10.844  13.286  68.326  1.00  0.00    -0.240 OA 
BRANCH  15  18
HETATM   18  C   UNL     1     -11.672  12.654  66.155  1.00  0.00    -0.461 A  
HETATM   19  O   UNL     1     -12.533  15.334  63.782  1.00  0.00    -1.004 OA 
HETATM   20  C   UNL     1     -12.106  14.142  64.288  1.00  0.00    -0.444 A  
HETATM   21  C   UNL     1     -12.101  13.896  65.662  1.00  0.00    -0.442 A  
HETATM   22  C   UNL     1     -11.679  13.177  63.384  1.00  0.00    -0.409 A  
HETATM   23  H   UNL     1     -12.536  15.502  62.847  1.00  0.00     0.000 HD 
HETATM   24  C   UNL     1     -11.248  11.950  63.868  1.00  0.00    -0.420 A  
HETATM   25  O   UNL     1     -10.822  10.961  63.031  1.00  0.00    -0.757 OA 
HETATM   26  C   UNL     1     -11.238  11.684  65.234  1.00  0.00    -0.263 A  
HETATM   27  H   UNL     1     -10.527  10.121  63.362  1.00  0.00     0.000 HD 
ENDBRANCH  15  18
ENDBRANCH  14  15
ENDBRANCH  12  14
ENDBRANCH   2  12
TORSDOF 6
ENDMDL
MODEL       62
REMARK 921   NORMALIZED FREE ENERGY PREDICTED BY IDOCK:   -6.32 KCAL/MOL
REMARK 922        TOTAL FREE ENERGY PREDICTED BY IDOCK:   -9.15 KCAL/MOL
REMARK 923 INTER-LIGAND FREE ENERGY PREDICTED BY IDOCK:   -8.43 KCAL/MOL
REMARK 924 INTRA-LIGAND FREE ENERGY PREDICTED BY IDOCK:   -0.71 KCAL/MOL
REMARK 927      BINDING AFFINITY PREDICTED BY RF-SCORE:    0.00 PKD
ROOT
HETATM    1  C   UNL     1      -7.918  10.922  67.020  1.00  0.00    -0.132 C  
HETATM    2  C   UNL     1      -9.252  10.348  67.520  1.00  0.00    -0.145 C  
ENDROOT
BRANCH   2   3
HETATM    3  C   UNL     1     -10.076   9.887  66.289  1.00  0.00    -0.311 C  
BRANCH   3   4
HETATM    4  C   UNL     1     -10.729  11.002  65.504  1.00  0.00    -0.218 A  
HETATM    5  C   UNL     1     -11.108  12.128  63.385  1.00  0.00    -0.495 A  
HETATM    6  H   UNL     1     -12.403  14.034  62.316  1.00  0.00     0.000 HD 
HETATM    7  C   UNL     1     -11.581  11.923  66.129  1.00  0.00    -0.299 A  
HETATM    8  C   UNL     1     -10.493  11.120  64.126  1.00  0.00    -0.442 A  
HETATM    9  C   UNL     1     -12.196  12.936  65.387  1.00  0.00    -0.528 A  
HETATM   10  O   UNL     1     -12.563  13.975  63.251  1.00  0.00    -0.801 OA 
HETATM   11  C   UNL     1     -11.961  13.022  64.018  1.00  0.00    -0.456 A  
ENDBRANCH   3   4
ENDBRANCH   2   3
BRANCH   2  12
HETATM   12  N   UNL     1      -9.052   9.243  68.471  1.00  0.00    -0.132 NA 
HETATM   13  H   UNL     1      -8.701   9.598  69.361  1.00  0.00     0.000 HD 
BRANCH  12  14
HETATM   14  C   UNL     1     -10.240   8.409  68.685  1.00  0.00    -0.201 C  
BRANCH  14  15
HETATM   15  C   UNL     1     -10.432   8.042  70.179  1.00  0.00    -0.225 C  
HETATM   16  H   UNL     1      -9.302   7.914  71.794  1.00  0.00     0.000 HD 
HETATM   17  O   UNL     1      -9.184   8.139  70.879  1.00  0.00    -0.145 OA 
BRANCH  15  18
HETATM   18  C   UNL     1     -11.453   8.943  70.848  1.00  0.00    -0.339 A  
HETATM   19  O   UNL     1     -14.282   8.738  73.196  1.00  0.00    -1.112 OA 
HETATM   20  C   UNL     1     -13.353   9.234  72.330  1.00  0.00    -0.477 A  
HETATM   21  C   UNL     1     -12.388   8.410  71.748  1.00  0.00    -0.375 A  
HETATM   22  C   UNL     1     -13.403  10.592  72.043  1.00  0.00    -0.409 A  
HETATM   23  H   UNL     1     -14.939   9.299  73.591  1.00  0.00     0.000 HD 
HETATM   24  C   UNL     1     -12.477  11.126  71.158  1.00  0.00    -0.393 A  
HETATM   25  O   UNL     1     -12.478  12.450  70.833  1.00  0.00    -0.371 OA 
HETATM   26  C   UNL     1     -11.509  10.320  70.566  1.00  0.00    -0.427 A  
HETATM   27  H   UNL     1     -11.844  12.815  70.227  1.00  0.00     0.000 HD 
ENDBRANCH  15  18
ENDBRANCH  14  15
ENDBRANCH  12  14
ENDBRANCH   2  12
TORSDOF 6
ENDMDL
MODEL       63
REMARK 921   NORMALIZED FREE ENERGY PREDICTED BY IDOCK:   -6.31 KCAL/MOL
REMARK 922        TOTAL FREE ENERGY PREDICTED BY IDOCK:   -9.13 KCAL/MOL
REMARK 923 INTER-LIGAND FREE ENERGY PREDICTED BY IDOCK:   -8.72 KCAL/MOL
REMARK 924 INTRA-LIGAND FREE ENERGY PREDICTED BY IDOCK:   -0.41 KCAL/MOL
REMARK 927      BINDING AFFINITY PREDICTED BY RF-SCORE:    0.00 PKD
ROOT
HETATM    1  C   UNL     1     -12.390  11.960  63.513  1.00  0.00    -0.603 C  
HETATM    2  C   UNL     1     -12.343  12.740  64.835  1.00  0.00    -0.490 C  
ENDROOT
BRANCH   2   3
HETATM    3  C   UNL     1     -11.023  12.377  65.567  1.00  0.00    -0.328 C  
BRANCH   3   4
HETATM    4  C   UNL     1     -11.195  11.863  66.978  1.00  0.00    -0.379 A  
HETATM    5  C   UNL     1     -10.958  10.067  68.597  1.00  0.00    -0.247 A  
HETATM    6  H   UNL     1     -11.276   9.512  71.054  1.00  0.00     0.000 HD 
HETATM    7  C   UNL     1     -11.712  12.686  67.989  1.00  0.00    -0.402 A  
HETATM    8  C   UNL     1     -10.827  10.547  67.294  1.00  0.00    -0.338 A  
HETATM    9  C   UNL     1     -11.845  12.205  69.294  1.00  0.00    -0.370 A  
HETATM   10  O   UNL     1     -11.541  10.401  70.854  1.00  0.00    -0.340 OA 
HETATM   11  C   UNL     1     -11.456  10.902  69.588  1.00  0.00    -0.305 A  
ENDBRANCH   3   4
ENDBRANCH   2   3
BRANCH   2  12
HETATM   12  N   UNL     1     -12.451  14.191  64.621  1.00  0.00    -0.638 NA 
HETATM   13  H   UNL     1     -13.422  14.456  64.459  1.00  0.00     0.000 HD 
BRANCH  12  14
HETATM   14  C   UNL     1     -11.870  15.004  65.695  1.00  0.00    -0.050 C  
BRANCH  14  15
HETATM   15  C   UNL     1     -10.940  16.117  65.144  1.00  0.00    -0.316 C  
HETATM   16  H   UNL     1     -10.983  17.447  63.684  1.00  0.00     0.000 HD 
HETATM   17  O   UNL     1     -11.552  16.765  64.021  1.00  0.00    -1.195 OA 
BRANCH  15  18
HETATM   18  C   UNL     1     -10.619  17.151  66.207  1.00  0.00    -0.185 A  
HETATM   19  O   UNL     1     -10.585  17.509  69.871  1.00  0.00    -0.205 OA 
HETATM   20  C   UNL     1     -10.472  17.793  68.542  1.00  0.00    -0.328 A  
HETATM   21  C   UNL     1     -10.728  16.827  67.568  1.00  0.00    -0.275 A  
HETATM   22  C   UNL     1     -10.095  19.083  68.192  1.00  0.00    -0.467 A  
HETATM   23  H   UNL     1     -10.411  18.166  70.534  1.00  0.00     0.000 HD 
HETATM   24  C   UNL     1      -9.979  19.407  66.847  1.00  0.00    -0.369 A  
HETATM   25  O   UNL     1      -9.618  20.657  66.441  1.00  0.00    -0.640 OA 
HETATM   26  C   UNL     1     -10.234  18.459  65.861  1.00  0.00    -0.250 A  
HETATM   27  H   UNL     1      -9.540  20.879  65.520  1.00  0.00     0.000 HD 
ENDBRANCH  15  18
ENDBRANCH  14  15
ENDBRANCH  12  14
ENDBRANCH   2  12
TORSDOF 6
ENDMDL
MODEL       64
REMARK 921   NORMALIZED FREE ENERGY PREDICTED BY IDOCK:   -6.31 KCAL/MOL
REMARK 922        TOTAL FREE ENERGY PREDICTED BY IDOCK:   -9.13 KCAL/MOL
REMARK 923 INTER-LIGAND FREE ENERGY PREDICTED BY IDOCK:   -8.33 KCAL/MOL
REMARK 924 INTRA-LIGAND FREE ENERGY PREDICTED BY IDOCK:   -0.79 KCAL/MOL
REMARK 927      BINDING AFFINITY PREDICTED BY RF-SCORE:    0.00 PKD
ROOT
HETATM    1  C   UNL     1      -8.696  14.199  67.518  1.00  0.00    -0.208 C  
HETATM    2  C   UNL     1     -10.179  14.535  67.305  1.00  0.00    -0.255 C  
ENDROOT
BRANCH   2   3
HETATM    3  C   UNL     1     -10.593  15.598  68.358  1.00  0.00    -0.252 C  
BRANCH   3   4
HETATM    4  C   UNL     1     -11.423  15.069  69.506  1.00  0.00    -0.317 A  
HETATM    5  C   UNL     1     -12.888  15.488  71.397  1.00  0.00    -0.531 A  
HETATM    6  H   UNL     1     -14.269  14.317  73.178  1.00  0.00     0.000 HD 
HETATM    7  C   UNL     1     -11.539  13.692  69.740  1.00  0.00    -0.322 A  
HETATM    8  C   UNL     1     -12.099  15.962  70.350  1.00  0.00    -0.313 A  
HETATM    9  C   UNL     1     -12.327  13.216  70.792  1.00  0.00    -0.404 A  
HETATM   10  O   UNL     1     -13.807  13.699  72.623  1.00  0.00    -0.715 OA 
HETATM   11  C   UNL     1     -13.004  14.120  71.605  1.00  0.00    -0.347 A  
ENDBRANCH   3   4
ENDBRANCH   2   3
BRANCH   2  12
HETATM   12  N   UNL     1     -10.444  15.009  65.938  1.00  0.00    -0.309 NA 
HETATM   13  H   UNL     1      -9.609  15.443  65.543  1.00  0.00     0.000 HD 
BRANCH  12  14
HETATM   14  C   UNL     1     -10.962  13.979  65.031  1.00  0.00    -0.375 C  
BRANCH  14  15
HETATM   15  C   UNL     1     -11.943  13.014  65.747  1.00  0.00    -0.429 C  
HETATM   16  H   UNL     1     -13.657  12.124  65.334  1.00  0.00     0.000 HD 
HETATM   17  O   UNL     1     -13.057  12.715  64.895  1.00  0.00    -0.850 OA 
BRANCH  15  18
HETATM   18  C   UNL     1     -11.258  11.721  66.150  1.00  0.00    -0.363 A  
HETATM   19  O   UNL     1      -9.182   9.057  64.683  1.00  0.00    -0.435 OA 
HETATM   20  C   UNL     1      -9.908   9.787  65.577  1.00  0.00    -0.308 A  
HETATM   21  C   UNL     1     -10.503  10.997  65.214  1.00  0.00    -0.316 A  
HETATM   22  C   UNL     1     -10.039   9.281  66.864  1.00  0.00    -0.324 A  
HETATM   23  H   UNL     1      -8.778   8.234  64.931  1.00  0.00     0.000 HD 
HETATM   24  C   UNL     1     -10.780   9.997  67.795  1.00  0.00    -0.280 A  
HETATM   25  O   UNL     1     -10.948   9.549  69.071  1.00  0.00    -0.353 OA 
HETATM   26  C   UNL     1     -11.382  11.203  67.451  1.00  0.00    -0.329 A  
HETATM   27  H   UNL     1     -11.456  10.039  69.708  1.00  0.00     0.000 HD 
ENDBRANCH  15  18
ENDBRANCH  14  15
ENDBRANCH  12  14
ENDBRANCH   2  12
TORSDOF 6
ENDMDL
MODEL       65
REMARK 921   NORMALIZED FREE ENERGY PREDICTED BY IDOCK:   -6.30 KCAL/MOL
REMARK 922        TOTAL FREE ENERGY PREDICTED BY IDOCK:   -9.13 KCAL/MOL
REMARK 923 INTER-LIGAND FREE ENERGY PREDICTED BY IDOCK:   -8.40 KCAL/MOL
REMARK 924 INTRA-LIGAND FREE ENERGY PREDICTED BY IDOCK:   -0.73 KCAL/MOL
REMARK 927      BINDING AFFINITY PREDICTED BY RF-SCORE:    0.00 PKD
ROOT
HETATM    1  C   UNL     1     -13.309  13.623  71.727  1.00  0.00    -0.469 C  
HETATM    2  C   UNL     1     -12.149  13.037  70.909  1.00  0.00    -0.090 C  
ENDROOT
BRANCH   2   3
HETATM    3  C   UNL     1     -12.652  11.748  70.206  1.00  0.00    -0.131 C  
BRANCH   3   4
HETATM    4  C   UNL     1     -12.309  10.458  70.916  1.00  0.00    -0.480 A  
HETATM    5  C   UNL     1     -10.714   8.689  71.391  1.00  0.00    -0.338 A  
HETATM    6  H   UNL     1     -10.387   6.586  72.776  1.00  0.00     0.000 HD 
HETATM    7  C   UNL     1     -13.226   9.843  71.781  1.00  0.00    -0.535 A  
HETATM    8  C   UNL     1     -11.053   9.865  70.723  1.00  0.00    -0.417 A  
HETATM    9  C   UNL     1     -12.887   8.663  72.449  1.00  0.00    -0.413 A  
HETATM   10  O   UNL     1     -11.246   6.968  72.908  1.00  0.00    -0.276 OA 
HETATM   11  C   UNL     1     -11.629   8.102  72.255  1.00  0.00    -0.374 A  
ENDBRANCH   3   4
ENDBRANCH   2   3
BRANCH   2  12
HETATM   12  N   UNL     1     -11.623  14.004  69.933  1.00  0.00    -0.360 NA 
HETATM   13  H   UNL     1     -10.622  14.143  70.072  1.00  0.00     0.000 HD 
BRANCH  12  14
HETATM   14  C   UNL     1     -11.902  13.662  68.534  1.00  0.00    -0.371 C  
BRANCH  14  15
HETATM   15  C   UNL     1     -10.623  13.708  67.657  1.00  0.00    -0.241 C  
HETATM   16  H   UNL     1      -8.764  13.050  67.775  1.00  0.00     0.000 HD 
HETATM   17  O   UNL     1      -9.547  13.022  68.312  1.00  0.00    -0.219 OA 
BRANCH  15  18
HETATM   18  C   UNL     1     -10.858  13.086  66.293  1.00  0.00    -0.295 A  
HETATM   19  O   UNL     1     -10.030  10.035  64.406  1.00  0.00    -0.380 OA 
HETATM   20  C   UNL     1     -10.530  11.263  64.726  1.00  0.00    -0.323 A  
HETATM   21  C   UNL     1     -10.347  11.814  65.996  1.00  0.00    -0.276 A  
HETATM   22  C   UNL     1     -11.226  11.949  63.740  1.00  0.00    -0.519 A  
HETATM   23  H   UNL     1     -10.155   9.660  63.543  1.00  0.00     0.000 HD 
HETATM   24  C   UNL     1     -11.740  13.206  64.032  1.00  0.00    -0.439 A  
HETATM   25  O   UNL     1     -12.428  13.930  63.104  1.00  0.00    -1.121 OA 
HETATM   26  C   UNL     1     -11.565  13.773  65.290  1.00  0.00    -0.330 A  
HETATM   27  H   UNL     1     -12.779  14.790  63.304  1.00  0.00     0.000 HD 
ENDBRANCH  15  18
ENDBRANCH  14  15
ENDBRANCH  12  14
ENDBRANCH   2  12
TORSDOF 6
ENDMDL
MODEL       66
REMARK 921   NORMALIZED FREE ENERGY PREDICTED BY IDOCK:   -6.30 KCAL/MOL
REMARK 922        TOTAL FREE ENERGY PREDICTED BY IDOCK:   -9.13 KCAL/MOL
REMARK 923 INTER-LIGAND FREE ENERGY PREDICTED BY IDOCK:   -8.81 KCAL/MOL
REMARK 924 INTRA-LIGAND FREE ENERGY PREDICTED BY IDOCK:   -0.31 KCAL/MOL
REMARK 927      BINDING AFFINITY PREDICTED BY RF-SCORE:    0.00 PKD
ROOT
HETATM    1  C   UNL     1     -10.608  14.300  65.401  1.00  0.00    -0.367 C  
HETATM    2  C   UNL     1     -12.125  14.081  65.488  1.00  0.00    -0.410 C  
ENDROOT
BRANCH   2   3
HETATM    3  C   UNL     1     -12.457  12.714  64.833  1.00  0.00    -0.564 C  
BRANCH   3   4
HETATM    4  C   UNL     1     -11.260  11.838  64.541  1.00  0.00    -0.368 A  
HETATM    5  C   UNL     1      -9.534  11.095  63.001  1.00  0.00    -0.386 A  
HETATM    6  H   UNL     1      -7.497   9.588  62.829  1.00  0.00     0.000 HD 
HETATM    7  C   UNL     1     -10.733  10.985  65.520  1.00  0.00    -0.218 A  
HETATM    8  C   UNL     1     -10.654  11.879  63.277  1.00  0.00    -0.420 A  
HETATM    9  C   UNL     1      -9.612  10.197  65.244  1.00  0.00    -0.338 A  
HETATM   10  O   UNL     1      -7.904   9.539  63.686  1.00  0.00    -0.120 OA 
HETATM   11  C   UNL     1      -9.016  10.268  63.989  1.00  0.00    -0.237 A  
ENDBRANCH   3   4
ENDBRANCH   2   3
BRANCH   2  12
HETATM   12  N   UNL     1     -12.609  14.138  66.875  1.00  0.00    -0.492 NA 
HETATM   13  H   UNL     1     -13.508  13.664  66.959  1.00  0.00     0.000 HD 
BRANCH  12  14
HETATM   14  C   UNL     1     -11.662  13.618  67.867  1.00  0.00    -0.360 C  
BRANCH  14  15
HETATM   15  C   UNL     1     -11.433  14.617  69.032  1.00  0.00    -0.291 C  
HETATM   16  H   UNL     1     -11.643  16.556  69.338  1.00  0.00     0.000 HD 
HETATM   17  O   UNL     1     -11.784  15.945  68.624  1.00  0.00    -0.387 OA 
BRANCH  15  18
HETATM   18  C   UNL     1     -12.242  14.238  70.259  1.00  0.00    -0.407 A  
HETATM   19  O   UNL     1     -13.322  11.241  72.105  1.00  0.00    -0.589 OA 
HETATM   20  C   UNL     1     -13.159  12.543  71.733  1.00  0.00    -0.347 A  
HETATM   21  C   UNL     1     -12.380  12.891  70.629  1.00  0.00    -0.385 A  
HETATM   22  C   UNL     1     -13.801  13.512  72.493  1.00  0.00    -0.624 A  
HETATM   23  H   UNL     1     -13.852  11.004  72.857  1.00  0.00     0.000 HD 
HETATM   24  C   UNL     1     -13.663  14.846  72.134  1.00  0.00    -0.444 A  
HETATM   25  O   UNL     1     -14.272  15.843  72.837  1.00  0.00    -0.580 OA 
HETATM   26  C   UNL     1     -12.893  15.213  71.035  1.00  0.00    -0.477 A  
HETATM   27  H   UNL     1     -14.178  16.756  72.591  1.00  0.00     0.000 HD 
ENDBRANCH  15  18
ENDBRANCH  14  15
ENDBRANCH  12  14
ENDBRANCH   2  12
TORSDOF 6
ENDMDL
MODEL       67
REMARK 921   NORMALIZED FREE ENERGY PREDICTED BY IDOCK:   -6.28 KCAL/MOL
REMARK 922        TOTAL FREE ENERGY PREDICTED BY IDOCK:   -9.09 KCAL/MOL
REMARK 923 INTER-LIGAND FREE ENERGY PREDICTED BY IDOCK:   -8.73 KCAL/MOL
REMARK 924 INTRA-LIGAND FREE ENERGY PREDICTED BY IDOCK:   -0.36 KCAL/MOL
REMARK 927      BINDING AFFINITY PREDICTED BY RF-SCORE:    0.00 PKD
ROOT
HETATM    1  C   UNL     1      -9.812  18.791  67.103  1.00  0.00    -0.352 C  
HETATM    2  C   UNL     1     -10.156  17.305  67.277  1.00  0.00    -0.300 C  
ENDROOT
BRANCH   2   3
HETATM    3  C   UNL     1      -9.546  16.521  66.084  1.00  0.00    -0.344 C  
BRANCH   3   4
HETATM    4  C   UNL     1     -10.413  15.408  65.541  1.00  0.00    -0.402 A  
HETATM    5  C   UNL     1     -11.212  13.118  65.680  1.00  0.00    -0.306 A  
HETATM    6  H   UNL     1     -12.830  11.477  64.611  1.00  0.00     0.000 HD 
HETATM    7  C   UNL     1     -11.247  15.616  64.433  1.00  0.00    -0.249 A  
HETATM    8  C   UNL     1     -10.400  14.147  66.154  1.00  0.00    -0.304 A  
HETATM    9  C   UNL     1     -12.060  14.585  63.955  1.00  0.00    -0.271 A  
HETATM   10  O   UNL     1     -12.841  12.322  64.177  1.00  0.00    -0.678 OA 
HETATM   11  C   UNL     1     -12.043  13.347  64.591  1.00  0.00    -0.410 A  
ENDBRANCH   3   4
ENDBRANCH   2   3
BRANCH   2  12
HETATM   12  N   UNL     1      -9.674  16.776  68.563  1.00  0.00    -0.239 NA 
HETATM   13  H   UNL     1      -8.966  17.395  68.959  1.00  0.00     0.000 HD 
BRANCH  12  14
HETATM   14  C   UNL     1     -10.733  16.514  69.543  1.00  0.00    -0.321 C  
BRANCH  14  15
HETATM   15  C   UNL     1     -11.402  15.133  69.322  1.00  0.00    -0.300 C  
HETATM   16  H   UNL     1     -10.814  13.283  68.954  1.00  0.00     0.000 HD 
HETATM   17  O   UNL     1     -10.405  14.129  69.090  1.00  0.00    -0.195 OA 
BRANCH  15  18
HETATM   18  C   UNL     1     -12.254  14.729  70.511  1.00  0.00    -0.385 A  
HETATM   19  O   UNL     1     -14.149  16.263  73.270  1.00  0.00    -0.704 OA 
HETATM   20  C   UNL     1     -13.585  15.333  72.448  1.00  0.00    -0.488 A  
HETATM   21  C   UNL     1     -12.836  15.707  71.331  1.00  0.00    -0.546 A  
HETATM   22  C   UNL     1     -13.779  13.994  72.765  1.00  0.00    -0.435 A  
HETATM   23  H   UNL     1     -14.658  16.008  74.030  1.00  0.00     0.000 HD 
HETATM   24  C   UNL     1     -13.210  13.023  71.953  1.00  0.00    -0.430 A  
HETATM   25  O   UNL     1     -13.362  11.693  72.216  1.00  0.00    -0.625 OA 
HETATM   26  C   UNL     1     -12.458  13.376  70.837  1.00  0.00    -0.439 A  
HETATM   27  H   UNL     1     -12.972  11.028  71.660  1.00  0.00     0.000 HD 
ENDBRANCH  15  18
ENDBRANCH  14  15
ENDBRANCH  12  14
ENDBRANCH   2  12
TORSDOF 6
ENDMDL
MODEL       68
REMARK 921   NORMALIZED FREE ENERGY PREDICTED BY IDOCK:   -6.27 KCAL/MOL
REMARK 922        TOTAL FREE ENERGY PREDICTED BY IDOCK:   -9.07 KCAL/MOL
REMARK 923 INTER-LIGAND FREE ENERGY PREDICTED BY IDOCK:   -8.53 KCAL/MOL
REMARK 924 INTRA-LIGAND FREE ENERGY PREDICTED BY IDOCK:   -0.55 KCAL/MOL
REMARK 927      BINDING AFFINITY PREDICTED BY RF-SCORE:    0.00 PKD
ROOT
HETATM    1  C   UNL     1     -12.494  13.395  70.917  1.00  0.00    -0.439 C  
HETATM    2  C   UNL     1     -11.842  12.553  69.811  1.00  0.00    -0.310 C  
ENDROOT
BRANCH   2   3
HETATM    3  C   UNL     1     -12.608  11.207  69.709  1.00  0.00    -0.129 C  
BRANCH   3   4
HETATM    4  C   UNL     1     -12.172  10.148  70.695  1.00  0.00    -0.394 A  
HETATM    5  C   UNL     1     -12.738   8.513  72.401  1.00  0.00    -0.394 A  
HETATM    6  H   UNL     1     -11.730   6.721  73.892  1.00  0.00     0.000 HD 
HETATM    7  C   UNL     1     -10.824   9.779  70.811  1.00  0.00    -0.403 A  
HETATM    8  C   UNL     1     -13.123   9.510  71.505  1.00  0.00    -0.470 A  
HETATM    9  C   UNL     1     -10.437   8.782  71.711  1.00  0.00    -0.417 A  
HETATM   10  O   UNL     1     -11.072   7.153  73.360  1.00  0.00    -0.289 OA 
HETATM   11  C   UNL     1     -11.401   8.151  72.491  1.00  0.00    -0.401 A  
ENDBRANCH   3   4
ENDBRANCH   2   3
BRANCH   2  12
HETATM   12  N   UNL     1     -11.829  13.258  68.520  1.00  0.00    -0.342 NA 
HETATM   13  H   UNL     1     -12.660  13.842  68.425  1.00  0.00     0.000 HD 
BRANCH  12  14
HETATM   14  C   UNL     1     -10.617  14.046  68.274  1.00  0.00    -0.249 C  
BRANCH  14  15
HETATM   15  C   UNL     1      -9.712  13.401  67.192  1.00  0.00    -0.237 C  
HETATM   16  H   UNL     1      -8.727  11.706  66.954  1.00  0.00     0.000 HD 
HETATM   17  O   UNL     1      -9.280  12.101  67.616  1.00  0.00    -0.170 OA 
BRANCH  15  18
HETATM   18  C   UNL     1     -10.433  13.282  65.862  1.00  0.00    -0.289 A  
HETATM   19  O   UNL     1     -12.726  15.205  63.718  1.00  0.00    -0.877 OA 
HETATM   20  C   UNL     1     -11.929  14.204  64.189  1.00  0.00    -0.393 A  
HETATM   21  C   UNL     1     -11.234  14.334  65.393  1.00  0.00    -0.329 A  
HETATM   22  C   UNL     1     -11.835  13.046  63.427  1.00  0.00    -0.543 A  
HETATM   23  H   UNL     1     -13.198  15.117  62.899  1.00  0.00     0.000 HD 
HETATM   24  C   UNL     1     -11.038  12.005  63.884  1.00  0.00    -0.405 A  
HETATM   25  O   UNL     1     -10.910  10.843  63.184  1.00  0.00    -0.733 OA 
HETATM   26  C   UNL     1     -10.341  12.114  65.084  1.00  0.00    -0.311 A  
HETATM   27  H   UNL     1     -10.365  10.130  63.497  1.00  0.00     0.000 HD 
ENDBRANCH  15  18
ENDBRANCH  14  15
ENDBRANCH  12  14
ENDBRANCH   2  12
TORSDOF 6
ENDMDL
MODEL       69
REMARK 921   NORMALIZED FREE ENERGY PREDICTED BY IDOCK:   -6.26 KCAL/MOL
REMARK 922        TOTAL FREE ENERGY PREDICTED BY IDOCK:   -9.06 KCAL/MOL
REMARK 923 INTER-LIGAND FREE ENERGY PREDICTED BY IDOCK:   -7.92 KCAL/MOL
REMARK 924 INTRA-LIGAND FREE ENERGY PREDICTED BY IDOCK:   -1.14 KCAL/MOL
REMARK 927      BINDING AFFINITY PREDICTED BY RF-SCORE:    0.00 PKD
ROOT
HETATM    1  C   UNL     1     -11.999  11.068  69.512  1.00  0.00    -0.413 C  
HETATM    2  C   UNL     1     -11.304  12.264  68.846  1.00  0.00    -0.287 C  
ENDROOT
BRANCH   2   3
HETATM    3  C   UNL     1     -12.142  12.685  67.608  1.00  0.00    -0.166 C  
BRANCH   3   4
HETATM    4  C   UNL     1     -11.528  12.334  66.273  1.00  0.00    -0.435 A  
HETATM    5  C   UNL     1      -9.719  11.331  64.998  1.00  0.00    -0.293 A  
HETATM    6  H   UNL     1      -8.979  10.788  62.630  1.00  0.00     0.000 HD 
HETATM    7  C   UNL     1     -12.185  12.638  65.072  1.00  0.00    -0.535 A  
HETATM    8  C   UNL     1     -10.286  11.684  66.222  1.00  0.00    -0.262 A  
HETATM    9  C   UNL     1     -11.616  12.287  63.844  1.00  0.00    -0.525 A  
HETATM   10  O   UNL     1      -9.815  11.240  62.646  1.00  0.00    -0.242 OA 
HETATM   11  C   UNL     1     -10.392  11.627  63.820  1.00  0.00    -0.398 A  
ENDBRANCH   3   4
ENDBRANCH   2   3
BRANCH   2  12
HETATM   12  N   UNL     1     -11.132  13.388  69.779  1.00  0.00    -0.465 NA 
HETATM   13  H   UNL     1     -10.167  13.436  70.105  1.00  0.00     0.000 HD 
BRANCH  12  14
HETATM   14  C   UNL     1     -11.557  14.687  69.245  1.00  0.00    -0.302 C  
BRANCH  14  15
HETATM   15  C   UNL     1     -10.394  15.712  69.214  1.00  0.00    -0.250 C  
HETATM   16  H   UNL     1      -8.420  15.662  69.247  1.00  0.00     0.000 HD 
HETATM   17  O   UNL     1      -9.132  15.034  69.266  1.00  0.00    -0.206 OA 
BRANCH  15  18
HETATM   18  C   UNL     1     -10.447  16.579  67.970  1.00  0.00    -0.313 A  
HETATM   19  O   UNL     1     -10.321  20.130  67.002  1.00  0.00    -0.430 OA 
HETATM   20  C   UNL     1     -10.419  18.771  66.930  1.00  0.00    -0.414 A  
HETATM   21  C   UNL     1     -10.328  17.973  68.072  1.00  0.00    -0.397 A  
HETATM   22  C   UNL     1     -10.618  18.208  65.675  1.00  0.00    -0.104 A  
HETATM   23  H   UNL     1     -10.384  20.672  66.225  1.00  0.00     0.000 HD 
HETATM   24  C   UNL     1     -10.731  16.829  65.569  1.00  0.00    -0.196 A  
HETATM   25  O   UNL     1     -10.931  16.218  64.367  1.00  0.00    -0.990 OA 
HETATM   26  C   UNL     1     -10.645  16.017  66.696  1.00  0.00    -0.297 A  
HETATM   27  H   UNL     1     -11.009  15.274  64.294  1.00  0.00     0.000 HD 
ENDBRANCH  15  18
ENDBRANCH  14  15
ENDBRANCH  12  14
ENDBRANCH   2  12
TORSDOF 6
ENDMDL
MODEL       70
REMARK 921   NORMALIZED FREE ENERGY PREDICTED BY IDOCK:   -6.24 KCAL/MOL
REMARK 922        TOTAL FREE ENERGY PREDICTED BY IDOCK:   -9.03 KCAL/MOL
REMARK 923 INTER-LIGAND FREE ENERGY PREDICTED BY IDOCK:   -8.27 KCAL/MOL
REMARK 924 INTRA-LIGAND FREE ENERGY PREDICTED BY IDOCK:   -0.76 KCAL/MOL
REMARK 927      BINDING AFFINITY PREDICTED BY RF-SCORE:    0.00 PKD
ROOT
HETATM    1  C   UNL     1     -10.971  14.105  67.071  1.00  0.00    -0.303 C  
HETATM    2  C   UNL     1     -11.010  14.265  68.597  1.00  0.00    -0.252 C  
ENDROOT
BRANCH   2   3
HETATM    3  C   UNL     1     -12.385  14.871  68.988  1.00  0.00    -0.070 C  
BRANCH   3   4
HETATM    4  C   UNL     1     -12.553  15.177  70.458  1.00  0.00    -0.429 A  
HETATM    5  C   UNL     1     -11.798  16.334  72.456  1.00  0.00    -0.608 A  
HETATM    6  H   UNL     1     -12.380  16.738  74.895  1.00  0.00     0.000 HD 
HETATM    7  C   UNL     1     -13.618  14.635  71.193  1.00  0.00    -0.404 A  
HETATM    8  C   UNL     1     -11.642  16.023  71.106  1.00  0.00    -0.492 A  
HETATM    9  C   UNL     1     -13.774  14.944  72.547  1.00  0.00    -0.568 A  
HETATM   10  O   UNL     1     -12.999  16.153  74.474  1.00  0.00    -0.559 OA 
HETATM   11  C   UNL     1     -12.867  15.801  73.164  1.00  0.00    -0.522 A  
ENDBRANCH   3   4
ENDBRANCH   2   3
BRANCH   2  12
HETATM   12  N   UNL     1     -10.775  12.989  69.289  1.00  0.00    -0.444 NA 
HETATM   13  H   UNL     1     -10.647  13.144  70.289  1.00  0.00     0.000 HD 
BRANCH  12  14
HETATM   14  C   UNL     1     -11.812  11.977  69.057  1.00  0.00    -0.315 C  
BRANCH  14  15
HETATM   15  C   UNL     1     -11.207  10.564  68.844  1.00  0.00    -0.266 C  
HETATM   16  H   UNL     1      -9.565   9.796  68.062  1.00  0.00     0.000 HD 
HETATM   17  O   UNL     1      -9.934  10.661  68.192  1.00  0.00    -0.153 OA 
BRANCH  15  18
HETATM   18  C   UNL     1     -11.044   9.823  70.158  1.00  0.00    -0.335 A  
HETATM   19  O   UNL     1      -8.382   8.550  72.362  1.00  0.00    -0.268 OA 
HETATM   20  C   UNL     1      -9.615   8.837  71.854  1.00  0.00    -0.302 A  
HETATM   21  C   UNL     1      -9.763   9.555  70.666  1.00  0.00    -0.311 A  
HETATM   22  C   UNL     1     -10.722   8.385  72.562  1.00  0.00    -0.372 A  
HETATM   23  H   UNL     1      -8.282   8.062  73.170  1.00  0.00     0.000 HD 
HETATM   24  C   UNL     1     -11.991   8.654  72.067  1.00  0.00    -0.372 A  
HETATM   25  O   UNL     1     -13.115   8.233  72.713  1.00  0.00    -0.601 OA 
HETATM   26  C   UNL     1     -12.159   9.365  70.882  1.00  0.00    -0.327 A  
HETATM   27  H   UNL     1     -13.983   8.416  72.374  1.00  0.00     0.000 HD 
ENDBRANCH  15  18
ENDBRANCH  14  15
ENDBRANCH  12  14
ENDBRANCH   2  12
TORSDOF 6
ENDMDL
MODEL       71
REMARK 921   NORMALIZED FREE ENERGY PREDICTED BY IDOCK:   -6.23 KCAL/MOL
REMARK 922        TOTAL FREE ENERGY PREDICTED BY IDOCK:   -9.02 KCAL/MOL
REMARK 923 INTER-LIGAND FREE ENERGY PREDICTED BY IDOCK:   -8.38 KCAL/MOL
REMARK 924 INTRA-LIGAND FREE ENERGY PREDICTED BY IDOCK:   -0.64 KCAL/MOL
REMARK 927      BINDING AFFINITY PREDICTED BY RF-SCORE:    0.00 PKD
ROOT
HETATM    1  C   UNL     1     -12.316  15.402  70.623  1.00  0.00    -0.451 C  
HETATM    2  C   UNL     1     -11.703  15.489  69.219  1.00  0.00    -0.365 C  
ENDROOT
BRANCH   2   3
HETATM    3  C   UNL     1     -10.157  15.466  69.361  1.00  0.00    -0.269 C  
BRANCH   3   4
HETATM    4  C   UNL     1      -9.454  16.718  68.887  1.00  0.00    -0.246 A  
HETATM    5  C   UNL     1      -9.564  19.028  68.144  1.00  0.00    -0.395 A  
HETATM    6  H   UNL     1      -8.115  21.000  67.466  1.00  0.00     0.000 HD 
HETATM    7  C   UNL     1      -8.057  16.764  68.777  1.00  0.00    -0.252 A  
HETATM    8  C   UNL     1     -10.200  17.859  68.559  1.00  0.00    -0.393 A  
HETATM    9  C   UNL     1      -7.418  17.935  68.359  1.00  0.00    -0.272 A  
HETATM   10  O   UNL     1      -7.595  20.232  67.673  1.00  0.00    -0.296 OA 
HETATM   11  C   UNL     1      -8.179  19.061  68.056  1.00  0.00    -0.300 A  
ENDBRANCH   3   4
ENDBRANCH   2   3
BRANCH   2  12
HETATM   12  N   UNL     1     -12.172  14.402  68.346  1.00  0.00    -0.605 NA 
HETATM   13  H   UNL     1     -13.187  14.315  68.399  1.00  0.00     0.000 HD 
BRANCH  12  14
HETATM   14  C   UNL     1     -11.742  14.522  66.948  1.00  0.00    -0.382 C  
BRANCH  14  15
HETATM   15  C   UNL     1     -12.454  13.493  66.031  1.00  0.00    -0.399 C  
HETATM   16  H   UNL     1     -13.407  13.515  64.301  1.00  0.00     0.000 HD 
HETATM   17  O   UNL     1     -12.972  14.145  64.863  1.00  0.00    -0.705 OA 
BRANCH  15  18
HETATM   18  C   UNL     1     -11.515  12.379  65.609  1.00  0.00    -0.412 A  
HETATM   19  O   UNL     1     -10.352  10.678  62.557  1.00  0.00    -0.751 OA 
HETATM   20  C   UNL     1     -10.517  11.012  63.869  1.00  0.00    -0.354 A  
HETATM   21  C   UNL     1     -11.350  12.066  64.251  1.00  0.00    -0.433 A  
HETATM   22  C   UNL     1      -9.829  10.263  64.814  1.00  0.00    -0.403 A  
HETATM   23  H   UNL     1      -9.785   9.961  62.298  1.00  0.00     0.000 HD 
HETATM   24  C   UNL     1      -9.984  10.573  66.159  1.00  0.00    -0.229 A  
HETATM   25  O   UNL     1      -9.339   9.871  67.133  1.00  0.00    -0.143 OA 
HETATM   26  C   UNL     1     -10.812  11.617  66.560  1.00  0.00    -0.328 A  
HETATM   27  H   UNL     1      -9.445  10.083  68.054  1.00  0.00     0.000 HD 
ENDBRANCH  15  18
ENDBRANCH  14  15
ENDBRANCH  12  14
ENDBRANCH   2  12
TORSDOF 6
ENDMDL
MODEL       72
REMARK 921   NORMALIZED FREE ENERGY PREDICTED BY IDOCK:   -6.22 KCAL/MOL
REMARK 922        TOTAL FREE ENERGY PREDICTED BY IDOCK:   -9.01 KCAL/MOL
REMARK 923 INTER-LIGAND FREE ENERGY PREDICTED BY IDOCK:   -7.92 KCAL/MOL
REMARK 924 INTRA-LIGAND FREE ENERGY PREDICTED BY IDOCK:   -1.09 KCAL/MOL
REMARK 927      BINDING AFFINITY PREDICTED BY RF-SCORE:    0.00 PKD
ROOT
HETATM    1  C   UNL     1     -12.187  11.478  69.725  1.00  0.00    -0.310 C  
HETATM    2  C   UNL     1     -11.295  12.496  69.000  1.00  0.00    -0.290 C  
ENDROOT
BRANCH   2   3
HETATM    3  C   UNL     1     -12.051  12.994  67.739  1.00  0.00    -0.244 C  
BRANCH   3   4
HETATM    4  C   UNL     1     -11.432  12.586  66.422  1.00  0.00    -0.418 A  
HETATM    5  C   UNL     1     -11.175  12.934  64.031  1.00  0.00    -0.458 A  
HETATM    6  H   UNL     1      -9.919  12.087  61.992  1.00  0.00     0.000 HD 
HETATM    7  C   UNL     1     -10.523  11.521  66.349  1.00  0.00    -0.292 A  
HETATM    8  C   UNL     1     -11.757  13.283  65.249  1.00  0.00    -0.357 A  
HETATM    9  C   UNL     1      -9.940  11.169  65.128  1.00  0.00    -0.323 A  
HETATM   10  O   UNL     1      -9.698  11.596  62.775  1.00  0.00    -0.321 OA 
HETATM   11  C   UNL     1     -10.265  11.887  63.981  1.00  0.00    -0.361 A  
ENDBRANCH   3   4
ENDBRANCH   2   3
BRANCH   2  12
HETATM   12  N   UNL     1     -10.922  13.620  69.874  1.00  0.00    -0.437 NA 
HETATM   13  H   UNL     1      -9.937  13.561  70.129  1.00  0.00     0.000 HD 
BRANCH  12  14
HETATM   14  C   UNL     1     -11.230  14.943  69.320  1.00  0.00    -0.284 C  
BRANCH  14  15
HETATM   15  C   UNL     1      -9.945  15.748  68.990  1.00  0.00    -0.234 C  
HETATM   16  H   UNL     1      -8.107  15.354  68.383  1.00  0.00     0.000 HD 
HETATM   17  O   UNL     1      -8.894  14.861  68.586  1.00  0.00    -0.167 OA 
BRANCH  15  18
HETATM   18  C   UNL     1     -10.192  16.768  67.894  1.00  0.00    -0.300 A  
HETATM   19  O   UNL     1     -11.083  16.906  64.324  1.00  0.00    -1.281 OA 
HETATM   20  C   UNL     1     -10.743  17.287  65.589  1.00  0.00    -0.120 A  
HETATM   21  C   UNL     1     -10.557  16.349  66.605  1.00  0.00    -0.239 A  
HETATM   22  C   UNL     1     -10.585  18.646  65.829  1.00  0.00    -0.290 A  
HETATM   23  H   UNL     1     -11.210  17.545  63.633  1.00  0.00     0.000 HD 
HETATM   24  C   UNL     1     -10.230  19.065  67.104  1.00  0.00    -0.388 A  
HETATM   25  O   UNL     1     -10.055  20.385  67.400  1.00  0.00    -0.417 OA 
HETATM   26  C   UNL     1     -10.037  18.145  68.130  1.00  0.00    -0.388 A  
HETATM   27  H   UNL     1      -9.812  20.672  68.272  1.00  0.00     0.000 HD 
ENDBRANCH  15  18
ENDBRANCH  14  15
ENDBRANCH  12  14
ENDBRANCH   2  12
TORSDOF 6
ENDMDL
MODEL       73
REMARK 921   NORMALIZED FREE ENERGY PREDICTED BY IDOCK:   -6.22 KCAL/MOL
REMARK 922        TOTAL FREE ENERGY PREDICTED BY IDOCK:   -9.01 KCAL/MOL
REMARK 923 INTER-LIGAND FREE ENERGY PREDICTED BY IDOCK:   -8.57 KCAL/MOL
REMARK 924 INTRA-LIGAND FREE ENERGY PREDICTED BY IDOCK:   -0.45 KCAL/MOL
REMARK 927      BINDING AFFINITY PREDICTED BY RF-SCORE:    0.00 PKD
ROOT
HETATM    1  C   UNL     1      -9.436  10.230  68.080  1.00  0.00    -0.155 C  
HETATM    2  C   UNL     1     -10.794   9.819  68.666  1.00  0.00    -0.188 C  
ENDROOT
BRANCH   2   3
HETATM    3  C   UNL     1     -10.714   9.941  70.212  1.00  0.00    -0.367 C  
BRANCH   3   4
HETATM    4  C   UNL     1     -10.870   8.639  70.964  1.00  0.00    -0.302 A  
HETATM    5  C   UNL     1     -10.684   7.381  73.034  1.00  0.00    -0.413 A  
HETATM    6  H   UNL     1     -11.134   5.100  74.055  1.00  0.00     0.000 HD 
HETATM    7  C   UNL     1     -11.369   7.493  70.329  1.00  0.00    -0.219 A  
HETATM    8  C   UNL     1     -10.523   8.569  72.321  1.00  0.00    -0.402 A  
HETATM    9  C   UNL     1     -11.530   6.301  71.043  1.00  0.00    -0.370 A  
HETATM   10  O   UNL     1     -11.363   5.128  73.134  1.00  0.00    -0.314 OA 
HETATM   11  C   UNL     1     -11.195   6.260  72.393  1.00  0.00    -0.280 A  
ENDBRANCH   3   4
ENDBRANCH   2   3
BRANCH   2  12
HETATM   12  N   UNL     1     -11.895  10.631  68.125  1.00  0.00    -0.788 NA 
HETATM   13  H   UNL     1     -12.726  10.540  68.709  1.00  0.00     0.000 HD 
BRANCH  12  14
HETATM   14  C   UNL     1     -11.561  12.046  67.928  1.00  0.00    -0.337 C  
BRANCH  14  15
HETATM   15  C   UNL     1     -11.499  12.426  66.425  1.00  0.00    -0.373 C  
HETATM   16  H   UNL     1     -12.741  12.461  64.890  1.00  0.00     0.000 HD 
HETATM   17  O   UNL     1     -12.779  12.228  65.810  1.00  0.00    -0.294 OA 
BRANCH  15  18
HETATM   18  C   UNL     1     -11.065  13.867  66.232  1.00  0.00    -0.304 A  
HETATM   19  O   UNL     1      -9.192  16.505  67.989  1.00  0.00    -0.209 OA 
HETATM   20  C   UNL     1      -9.930  15.851  67.048  1.00  0.00    -0.247 A  
HETATM   21  C   UNL     1     -10.292  14.512  67.209  1.00  0.00    -0.260 A  
HETATM   22  C   UNL     1     -10.313  16.566  65.921  1.00  0.00    -0.365 A  
HETATM   23  H   UNL     1      -8.946  17.416  67.879  1.00  0.00     0.000 HD 
HETATM   24  C   UNL     1     -11.073  15.931  64.948  1.00  0.00    -0.389 A  
HETATM   25  O   UNL     1     -11.484  16.581  63.823  1.00  0.00    -1.615 OA 
HETATM   26  C   UNL     1     -11.447  14.598  65.093  1.00  0.00    -0.375 A  
HETATM   27  H   UNL     1     -12.004  16.146  63.158  1.00  0.00     0.000 HD 
ENDBRANCH  15  18
ENDBRANCH  14  15
ENDBRANCH  12  14
ENDBRANCH   2  12
TORSDOF 6
ENDMDL
MODEL       74
REMARK 921   NORMALIZED FREE ENERGY PREDICTED BY IDOCK:   -6.21 KCAL/MOL
REMARK 922        TOTAL FREE ENERGY PREDICTED BY IDOCK:   -8.99 KCAL/MOL
REMARK 923 INTER-LIGAND FREE ENERGY PREDICTED BY IDOCK:   -8.46 KCAL/MOL
REMARK 924 INTRA-LIGAND FREE ENERGY PREDICTED BY IDOCK:   -0.53 KCAL/MOL
REMARK 927      BINDING AFFINITY PREDICTED BY RF-SCORE:    0.00 PKD
ROOT
HETATM    1  C   UNL     1      -9.493  13.474  67.943  1.00  0.00    -0.215 C  
HETATM    2  C   UNL     1     -10.593  14.498  68.254  1.00  0.00    -0.241 C  
ENDROOT
BRANCH   2   3
HETATM    3  C   UNL     1     -10.859  15.331  66.971  1.00  0.00    -0.321 C  
BRANCH   3   4
HETATM    4  C   UNL     1     -10.551  16.806  67.092  1.00  0.00    -0.256 A  
HETATM    5  C   UNL     1     -10.391  19.003  66.068  1.00  0.00    -0.512 A  
HETATM    6  H   UNL     1      -9.904  21.441  66.589  1.00  0.00     0.000 HD 
HETATM    7  C   UNL     1     -10.176  17.368  68.321  1.00  0.00    -0.362 A  
HETATM    8  C   UNL     1     -10.649  17.637  65.966  1.00  0.00    -0.220 A  
HETATM    9  C   UNL     1      -9.916  18.737  68.424  1.00  0.00    -0.441 A  
HETATM   10  O   UNL     1      -9.821  20.890  67.358  1.00  0.00    -0.444 OA 
HETATM   11  C   UNL     1     -10.036  19.545  67.297  1.00  0.00    -0.405 A  
ENDBRANCH   3   4
ENDBRANCH   2   3
BRANCH   2  12
HETATM   12  N   UNL     1     -11.825  13.853  68.734  1.00  0.00    -0.344 NA 
HETATM   13  H   UNL     1     -12.367  13.492  67.949  1.00  0.00     0.000 HD 
BRANCH  12  14
HETATM   14  C   UNL     1     -11.605  12.801  69.732  1.00  0.00    -0.218 C  
BRANCH  14  15
HETATM   15  C   UNL     1     -12.368  11.497  69.379  1.00  0.00    -0.092 C  
HETATM   16  H   UNL     1     -12.382  10.182  67.905  1.00  0.00     0.000 HD 
HETATM   17  O   UNL     1     -11.915  10.981  68.121  1.00  0.00    -0.610 OA 
BRANCH  15  18
HETATM   18  C   UNL     1     -12.187  10.438  70.451  1.00  0.00    -0.389 A  
HETATM   19  O   UNL     1     -14.039   8.910  73.243  1.00  0.00    -1.211 OA 
HETATM   20  C   UNL     1     -13.046   9.201  72.354  1.00  0.00    -0.423 A  
HETATM   21  C   UNL     1     -13.231  10.146  71.343  1.00  0.00    -0.474 A  
HETATM   22  C   UNL     1     -11.841   8.525  72.493  1.00  0.00    -0.398 A  
HETATM   23  H   UNL     1     -13.913   8.267  73.931  1.00  0.00     0.000 HD 
HETATM   24  C   UNL     1     -10.808   8.805  71.609  1.00  0.00    -0.329 A  
HETATM   25  O   UNL     1      -9.601   8.178  71.697  1.00  0.00    -0.157 OA 
HETATM   26  C   UNL     1     -10.971   9.746  70.597  1.00  0.00    -0.398 A  
HETATM   27  H   UNL     1      -8.894   8.371  71.092  1.00  0.00     0.000 HD 
ENDBRANCH  15  18
ENDBRANCH  14  15
ENDBRANCH  12  14
ENDBRANCH   2  12
TORSDOF 6
ENDMDL
MODEL       75
REMARK 921   NORMALIZED FREE ENERGY PREDICTED BY IDOCK:   -6.18 KCAL/MOL
REMARK 922        TOTAL FREE ENERGY PREDICTED BY IDOCK:   -8.96 KCAL/MOL
REMARK 923 INTER-LIGAND FREE ENERGY PREDICTED BY IDOCK:   -8.35 KCAL/MOL
REMARK 924 INTRA-LIGAND FREE ENERGY PREDICTED BY IDOCK:   -0.61 KCAL/MOL
REMARK 927      BINDING AFFINITY PREDICTED BY RF-SCORE:    0.00 PKD
ROOT
HETATM    1  C   UNL     1      -7.743  15.023  67.941  1.00  0.00    -0.145 C  
HETATM    2  C   UNL     1      -8.828  15.516  68.909  1.00  0.00    -0.217 C  
ENDROOT
BRANCH   2   3
HETATM    3  C   UNL     1      -9.491  16.778  68.294  1.00  0.00    -0.240 C  
BRANCH   3   4
HETATM    4  C   UNL     1      -8.543  17.917  67.996  1.00  0.00    -0.256 A  
HETATM    5  C   UNL     1      -7.988  19.895  66.700  1.00  0.00    -0.342 A  
HETATM    6  H   UNL     1      -6.265  21.749  66.485  1.00  0.00     0.000 HD 
HETATM    7  C   UNL     1      -7.366  18.090  68.737  1.00  0.00    -0.279 A  
HETATM    8  C   UNL     1      -8.841  18.826  66.970  1.00  0.00    -0.302 A  
HETATM    9  C   UNL     1      -6.509  19.161  68.465  1.00  0.00    -0.273 A  
HETATM   10  O   UNL     1      -6.043  21.135  67.175  1.00  0.00    -0.258 OA 
HETATM   11  C   UNL     1      -6.834  20.060  67.454  1.00  0.00    -0.226 A  
ENDBRANCH   3   4
ENDBRANCH   2   3
BRANCH   2  12
HETATM   12  N   UNL     1      -9.827  14.474  69.193  1.00  0.00    -0.389 NA 
HETATM   13  H   UNL     1     -10.745  14.892  69.343  1.00  0.00     0.000 HD 
BRANCH  12  14
HETATM   14  C   UNL     1      -9.905  13.421  68.175  1.00  0.00    -0.234 C  
BRANCH  14  15
HETATM   15  C   UNL     1     -11.370  13.096  67.785  1.00  0.00    -0.290 C  
HETATM   16  H   UNL     1     -13.177  13.650  68.360  1.00  0.00     0.000 HD 
HETATM   17  O   UNL     1     -12.279  13.848  68.599  1.00  0.00    -0.345 OA 
BRANCH  15  18
HETATM   18  C   UNL     1     -11.638  13.400  66.322  1.00  0.00    -0.378 A  
HETATM   19  O   UNL     1     -12.499  11.656  63.195  1.00  0.00    -0.937 OA 
HETATM   20  C   UNL     1     -12.182  12.643  64.082  1.00  0.00    -0.450 A  
HETATM   21  C   UNL     1     -11.978  12.367  65.435  1.00  0.00    -0.457 A  
HETATM   22  C   UNL     1     -12.067  13.936  63.588  1.00  0.00    -0.247 A  
HETATM   23  H   UNL     1     -12.638  11.844  62.275  1.00  0.00     0.000 HD 
HETATM   24  C   UNL     1     -11.737  14.962  64.463  1.00  0.00    -0.382 A  
HETATM   25  O   UNL     1     -11.604  16.250  64.038  1.00  0.00    -1.366 OA 
HETATM   26  C   UNL     1     -11.526  14.706  65.815  1.00  0.00    -0.338 A  
HETATM   27  H   UNL     1     -11.378  16.952  64.637  1.00  0.00     0.000 HD 
ENDBRANCH  15  18
ENDBRANCH  14  15
ENDBRANCH  12  14
ENDBRANCH   2  12
TORSDOF 6
ENDMDL
MODEL       76
REMARK 921   NORMALIZED FREE ENERGY PREDICTED BY IDOCK:   -6.18 KCAL/MOL
REMARK 922        TOTAL FREE ENERGY PREDICTED BY IDOCK:   -8.95 KCAL/MOL
REMARK 923 INTER-LIGAND FREE ENERGY PREDICTED BY IDOCK:   -7.48 KCAL/MOL
REMARK 924 INTRA-LIGAND FREE ENERGY PREDICTED BY IDOCK:   -1.47 KCAL/MOL
REMARK 927      BINDING AFFINITY PREDICTED BY RF-SCORE:    0.00 PKD
ROOT
HETATM    1  C   UNL     1     -12.602  11.995  63.216  1.00  0.00    -0.512 C  
HETATM    2  C   UNL     1     -11.638  13.024  63.822  1.00  0.00    -0.457 C  
ENDROOT
BRANCH   2   3
HETATM    3  C   UNL     1     -12.195  13.457  65.205  1.00  0.00    -0.473 C  
BRANCH   3   4
HETATM    4  C   UNL     1     -11.313  14.409  65.979  1.00  0.00    -0.335 A  
HETATM    5  C   UNL     1     -10.818  15.603  68.036  1.00  0.00    -0.308 A  
HETATM    6  H   UNL     1      -9.114  17.148  69.112  1.00  0.00     0.000 HD 
HETATM    7  C   UNL     1     -10.163  14.963  65.399  1.00  0.00    -0.409 A  
HETATM    8  C   UNL     1     -11.635  14.744  67.302  1.00  0.00    -0.385 A  
HETATM    9  C   UNL     1      -9.344  15.825  66.133  1.00  0.00    -0.381 A  
HETATM   10  O   UNL     1      -8.888  16.941  68.213  1.00  0.00    -0.214 OA 
HETATM   11  C   UNL     1      -9.674  16.129  67.451  1.00  0.00    -0.233 A  
ENDBRANCH   3   4
ENDBRANCH   2   3
BRANCH   2  12
HETATM   12  N   UNL     1     -10.272  12.493  63.942  1.00  0.00    -0.528 NA 
HETATM   13  H   UNL     1      -9.865  12.755  64.840  1.00  0.00     0.000 HD 
BRANCH  12  14
HETATM   14  C   UNL     1     -10.167  11.044  63.736  1.00  0.00    -0.364 C  
BRANCH  14  15
HETATM   15  C   UNL     1      -9.328  10.358  64.847  1.00  0.00    -0.243 C  
HETATM   16  H   UNL     1      -7.416  10.139  65.288  1.00  0.00     0.000 HD 
HETATM   17  O   UNL     1      -7.929  10.558  64.608  1.00  0.00    -0.134 OA 
BRANCH  15  18
HETATM   18  C   UNL     1      -9.684  10.889  66.223  1.00  0.00    -0.245 A  
HETATM   19  O   UNL     1      -8.305  13.081  68.840  1.00  0.00    -0.350 OA 
HETATM   20  C   UNL     1      -9.132  12.230  68.168  1.00  0.00    -0.196 A  
HETATM   21  C   UNL     1      -8.822  11.776  66.885  1.00  0.00    -0.191 A  
HETATM   22  C   UNL     1     -10.297  11.828  68.810  1.00  0.00    -0.198 A  
HETATM   23  H   UNL     1      -8.516  13.389  69.713  1.00  0.00     0.000 HD 
HETATM   24  C   UNL     1     -11.156  10.955  68.156  1.00  0.00    -0.280 A  
HETATM   25  O   UNL     1     -12.311  10.520  68.735  1.00  0.00    -0.790 OA 
HETATM   26  C   UNL     1     -10.863  10.489  66.878  1.00  0.00    -0.252 A  
HETATM   27  H   UNL     1     -12.899   9.923  68.288  1.00  0.00     0.000 HD 
ENDBRANCH  15  18
ENDBRANCH  14  15
ENDBRANCH  12  14
ENDBRANCH   2  12
TORSDOF 6
ENDMDL
MODEL       77
REMARK 921   NORMALIZED FREE ENERGY PREDICTED BY IDOCK:   -6.15 KCAL/MOL
REMARK 922        TOTAL FREE ENERGY PREDICTED BY IDOCK:   -8.92 KCAL/MOL
REMARK 923 INTER-LIGAND FREE ENERGY PREDICTED BY IDOCK:   -8.22 KCAL/MOL
REMARK 924 INTRA-LIGAND FREE ENERGY PREDICTED BY IDOCK:   -0.71 KCAL/MOL
REMARK 927      BINDING AFFINITY PREDICTED BY RF-SCORE:    0.00 PKD
ROOT
HETATM    1  C   UNL     1     -11.012  13.155  67.526  1.00  0.00    -0.282 C  
HETATM    2  C   UNL     1     -11.071  13.084  69.059  1.00  0.00    -0.231 C  
ENDROOT
BRANCH   2   3
HETATM    3  C   UNL     1     -12.492  13.515  69.511  1.00  0.00    -0.054 C  
BRANCH   3   4
HETATM    4  C   UNL     1     -12.536  14.335  70.781  1.00  0.00    -0.427 A  
HETATM    5  C   UNL     1     -13.639  14.903  72.869  1.00  0.00    -0.493 A  
HETATM    6  H   UNL     1     -13.403  16.342  74.949  1.00  0.00     0.000 HD 
HETATM    7  C   UNL     1     -11.524  15.256  71.082  1.00  0.00    -0.414 A  
HETATM    8  C   UNL     1     -13.598  14.172  71.683  1.00  0.00    -0.446 A  
HETATM    9  C   UNL     1     -11.565  15.991  72.270  1.00  0.00    -0.474 A  
HETATM   10  O   UNL     1     -12.684  16.473  74.342  1.00  0.00    -0.728 OA 
HETATM   11  C   UNL     1     -12.619  15.799  73.158  1.00  0.00    -0.494 A  
ENDBRANCH   3   4
ENDBRANCH   2   3
BRANCH   2  12
HETATM   12  N   UNL     1     -10.738  11.741  69.560  1.00  0.00    -0.447 NA 
HETATM   13  H   UNL     1     -10.121  11.806  70.369  1.00  0.00     0.000 HD 
BRANCH  12  14
HETATM   14  C   UNL     1     -11.904  10.907  69.870  1.00  0.00    -0.349 C  
BRANCH  14  15
HETATM   15  C   UNL     1     -11.847  10.342  71.314  1.00  0.00    -0.335 C  
HETATM   16  H   UNL     1     -13.026  10.296  72.897  1.00  0.00     0.000 HD 
HETATM   17  O   UNL     1     -13.061  10.642  72.013  1.00  0.00    -0.481 OA 
BRANCH  15  18
HETATM   18  C   UNL     1     -11.623   8.841  71.317  1.00  0.00    -0.353 A  
HETATM   19  O   UNL     1     -11.095   6.076  73.690  1.00  0.00    -0.434 OA 
HETATM   20  C   UNL     1     -11.243   6.772  72.527  1.00  0.00    -0.268 A  
HETATM   21  C   UNL     1     -11.490   8.146  72.529  1.00  0.00    -0.470 A  
HETATM   22  C   UNL     1     -11.135   6.064  71.337  1.00  0.00    -0.336 A  
HETATM   23  H   UNL     1     -10.927   5.141  73.689  1.00  0.00     0.000 HD 
HETATM   24  C   UNL     1     -11.271   6.746  70.136  1.00  0.00    -0.335 A  
HETATM   25  O   UNL     1     -11.170   6.108  68.935  1.00  0.00    -0.372 OA 
HETATM   26  C   UNL     1     -11.515   8.116  70.117  1.00  0.00     0.005 A  
HETATM   27  H   UNL     1     -11.263   6.575  68.113  1.00  0.00     0.000 HD 
ENDBRANCH  15  18
ENDBRANCH  14  15
ENDBRANCH  12  14
ENDBRANCH   2  12
TORSDOF 6
ENDMDL
MODEL       78
REMARK 921   NORMALIZED FREE ENERGY PREDICTED BY IDOCK:   -6.14 KCAL/MOL
REMARK 922        TOTAL FREE ENERGY PREDICTED BY IDOCK:   -8.91 KCAL/MOL
REMARK 923 INTER-LIGAND FREE ENERGY PREDICTED BY IDOCK:   -8.12 KCAL/MOL
REMARK 924 INTRA-LIGAND FREE ENERGY PREDICTED BY IDOCK:   -0.79 KCAL/MOL
REMARK 927      BINDING AFFINITY PREDICTED BY RF-SCORE:    0.00 PKD
ROOT
HETATM    1  C   UNL     1     -11.560  13.752  67.049  1.00  0.00    -0.391 C  
HETATM    2  C   UNL     1     -11.033  13.983  68.472  1.00  0.00    -0.256 C  
ENDROOT
BRANCH   2   3
HETATM    3  C   UNL     1     -12.056  13.382  69.473  1.00  0.00    -0.334 C  
BRANCH   3   4
HETATM    4  C   UNL     1     -12.276  14.196  70.728  1.00  0.00    -0.435 A  
HETATM    5  C   UNL     1     -13.268  14.417  72.934  1.00  0.00    -0.613 A  
HETATM    6  H   UNL     1     -13.385  15.959  74.949  1.00  0.00     0.000 HD 
HETATM    7  C   UNL     1     -11.682  15.456  70.885  1.00  0.00    -0.395 A  
HETATM    8  C   UNL     1     -13.077  13.688  71.761  1.00  0.00    -0.468 A  
HETATM    9  C   UNL     1     -11.875  16.188  72.060  1.00  0.00    -0.615 A  
HETATM   10  O   UNL     1     -12.850  16.323  74.253  1.00  0.00    -0.694 OA 
HETATM   11  C   UNL     1     -12.659  15.656  73.079  1.00  0.00    -0.459 A  
ENDBRANCH   3   4
ENDBRANCH   2   3
BRANCH   2  12
HETATM   12  N   UNL     1      -9.696  13.402  68.665  1.00  0.00    -0.390 NA 
HETATM   13  H   UNL     1      -9.761  12.391  68.783  1.00  0.00     0.000 HD 
BRANCH  12  14
HETATM   14  C   UNL     1      -8.736  13.732  67.606  1.00  0.00    -0.185 C  
BRANCH  14  15
HETATM   15  C   UNL     1      -7.651  14.728  68.094  1.00  0.00    -0.119 C  
HETATM   16  H   UNL     1      -5.740  15.075  67.738  1.00  0.00     0.000 HD 
HETATM   17  O   UNL     1      -6.404  14.465  67.440  1.00  0.00    -0.323 OA 
BRANCH  15  18
HETATM   18  C   UNL     1      -8.060  16.167  67.837  1.00  0.00    -0.152 A  
HETATM   19  O   UNL     1      -7.289  19.568  69.019  1.00  0.00    -0.356 OA 
HETATM   20  C   UNL     1      -7.856  18.533  68.335  1.00  0.00    -0.310 A  
HETATM   21  C   UNL     1      -7.448  17.214  68.544  1.00  0.00    -0.238 A  
HETATM   22  C   UNL     1      -8.858  18.839  67.424  1.00  0.00    -0.285 A  
HETATM   23  H   UNL     1      -7.566  20.465  68.877  1.00  0.00     0.000 HD 
HETATM   24  C   UNL     1      -9.461  17.807  66.718  1.00  0.00    -0.285 A  
HETATM   25  O   UNL     1     -10.453  18.043  65.814  1.00  0.00    -0.573 OA 
HETATM   26  C   UNL     1      -9.071  16.486  66.914  1.00  0.00    -0.241 A  
HETATM   27  H   UNL     1     -10.867  17.337  65.331  1.00  0.00     0.000 HD 
ENDBRANCH  15  18
ENDBRANCH  14  15
ENDBRANCH  12  14
ENDBRANCH   2  12
TORSDOF 6
ENDMDL
MODEL       79
REMARK 921   NORMALIZED FREE ENERGY PREDICTED BY IDOCK:   -6.14 KCAL/MOL
REMARK 922        TOTAL FREE ENERGY PREDICTED BY IDOCK:   -8.90 KCAL/MOL
REMARK 923 INTER-LIGAND FREE ENERGY PREDICTED BY IDOCK:   -8.33 KCAL/MOL
REMARK 924 INTRA-LIGAND FREE ENERGY PREDICTED BY IDOCK:   -0.58 KCAL/MOL
REMARK 927      BINDING AFFINITY PREDICTED BY RF-SCORE:    0.00 PKD
ROOT
HETATM    1  C   UNL     1      -7.992  12.281  67.540  1.00  0.00    -0.166 C  
HETATM    2  C   UNL     1      -8.659  13.580  68.013  1.00  0.00    -0.177 C  
ENDROOT
BRANCH   2   3
HETATM    3  C   UNL     1      -9.131  14.368  66.761  1.00  0.00    -0.278 C  
BRANCH   3   4
HETATM    4  C   UNL     1     -10.314  13.767  66.037  1.00  0.00    -0.311 A  
HETATM    5  C   UNL     1     -11.228  12.050  64.582  1.00  0.00    -0.380 A  
HETATM    6  H   UNL     1     -13.399  11.214  63.564  1.00  0.00     0.000 HD 
HETATM    7  C   UNL     1     -11.595  14.324  66.160  1.00  0.00    -0.374 A  
HETATM    8  C   UNL     1     -10.141  12.630  65.236  1.00  0.00    -0.271 A  
HETATM    9  C   UNL     1     -12.685  13.745  65.503  1.00  0.00    -0.530 A  
HETATM   10  O   UNL     1     -13.531  11.992  64.093  1.00  0.00    -0.672 OA 
HETATM   11  C   UNL     1     -12.492  12.606  64.727  1.00  0.00    -0.484 A  
ENDBRANCH   3   4
ENDBRANCH   2   3
BRANCH   2  12
HETATM   12  N   UNL     1      -9.779  13.320  68.931  1.00  0.00    -0.419 NA 
HETATM   13  H   UNL     1     -10.623  13.790  68.605  1.00  0.00     0.000 HD 
BRANCH  12  14
HETATM   14  C   UNL     1     -10.044  11.898  69.171  1.00  0.00     0.174 C  
BRANCH  14  15
HETATM   15  C   UNL     1     -11.557  11.611  69.354  1.00  0.00    -0.327 C  
HETATM   16  H   UNL     1     -13.082  11.101  68.206  1.00  0.00     0.000 HD 
HETATM   17  O   UNL     1     -12.155  11.277  68.094  1.00  0.00    -0.635 OA 
BRANCH  15  18
HETATM   18  C   UNL     1     -11.796  10.481  70.338  1.00  0.00    -0.431 A  
HETATM   19  O   UNL     1     -14.344   9.320  72.730  1.00  0.00    -0.852 OA 
HETATM   20  C   UNL     1     -13.194   9.398  72.000  1.00  0.00    -0.449 A  
HETATM   21  C   UNL     1     -12.995  10.415  71.065  1.00  0.00    -0.490 A  
HETATM   22  C   UNL     1     -12.224   8.430  72.225  1.00  0.00    -0.449 A  
HETATM   23  H   UNL     1     -14.479   8.628  73.366  1.00  0.00     0.000 HD 
HETATM   24  C   UNL     1     -11.039   8.488  71.504  1.00  0.00    -0.275 A  
HETATM   25  O   UNL     1     -10.047   7.569  71.683  1.00  0.00    -0.180 OA 
HETATM   26  C   UNL     1     -10.820   9.495  70.570  1.00  0.00    -0.352 A  
HETATM   27  H   UNL     1      -9.236   7.609  71.191  1.00  0.00     0.000 HD 
ENDBRANCH  15  18
ENDBRANCH  14  15
ENDBRANCH  12  14
ENDBRANCH   2  12
TORSDOF 6
ENDMDL
MODEL       80
REMARK 921   NORMALIZED FREE ENERGY PREDICTED BY IDOCK:   -6.14 KCAL/MOL
REMARK 922        TOTAL FREE ENERGY PREDICTED BY IDOCK:   -8.90 KCAL/MOL
REMARK 923 INTER-LIGAND FREE ENERGY PREDICTED BY IDOCK:   -8.26 KCAL/MOL
REMARK 924 INTRA-LIGAND FREE ENERGY PREDICTED BY IDOCK:   -0.64 KCAL/MOL
REMARK 927      BINDING AFFINITY PREDICTED BY RF-SCORE:    0.00 PKD
ROOT
HETATM    1  C   UNL     1     -12.735  13.366  65.265  1.00  0.00    -0.481 C  
HETATM    2  C   UNL     1     -11.272  13.058  65.614  1.00  0.00    -0.283 C  
ENDROOT
BRANCH   2   3
HETATM    3  C   UNL     1     -10.364  13.996  64.774  1.00  0.00    -0.407 C  
BRANCH   3   4
HETATM    4  C   UNL     1     -10.047  15.325  65.422  1.00  0.00    -0.397 A  
HETATM    5  C   UNL     1     -10.558  17.680  65.729  1.00  0.00    -0.177 A  
HETATM    6  H   UNL     1      -9.852  19.745  67.028  1.00  0.00     0.000 HD 
HETATM    7  C   UNL     1      -8.989  15.451  66.333  1.00  0.00    -0.351 A  
HETATM    8  C   UNL     1     -10.823  16.453  65.120  1.00  0.00    -0.289 A  
HETATM    9  C   UNL     1      -8.721  16.680  66.942  1.00  0.00    -0.241 A  
HETATM   10  O   UNL     1      -9.309  18.993  67.233  1.00  0.00    -0.297 OA 
HETATM   11  C   UNL     1      -9.516  17.782  66.641  1.00  0.00    -0.292 A  
ENDBRANCH   3   4
ENDBRANCH   2   3
BRANCH   2  12
HETATM   12  N   UNL     1     -11.006  13.208  67.053  1.00  0.00    -0.265 NA 
HETATM   13  H   UNL     1     -10.140  13.725  67.203  1.00  0.00     0.000 HD 
BRANCH  12  14
HETATM   14  C   UNL     1     -12.105  13.819  67.809  1.00  0.00    -0.290 C  
BRANCH  14  15
HETATM   15  C   UNL     1     -11.589  14.691  68.983  1.00  0.00    -0.298 C  
HETATM   16  H   UNL     1     -11.440  16.616  69.399  1.00  0.00     0.000 HD 
HETATM   17  O   UNL     1     -11.756  16.082  68.680  1.00  0.00    -0.382 OA 
BRANCH  15  18
HETATM   18  C   UNL     1     -12.313  14.368  70.277  1.00  0.00    -0.410 A  
HETATM   19  O   UNL     1     -13.471  11.454  72.206  1.00  0.00    -0.601 OA 
HETATM   20  C   UNL     1     -13.234  12.741  71.824  1.00  0.00    -0.374 A  
HETATM   21  C   UNL     1     -12.530  13.034  70.654  1.00  0.00    -0.347 A  
HETATM   22  C   UNL     1     -13.721  13.753  72.641  1.00  0.00    -0.566 A  
HETATM   23  H   UNL     1     -13.950  11.255  73.002  1.00  0.00     0.000 HD 
HETATM   24  C   UNL     1     -13.503  15.075  72.275  1.00  0.00    -0.419 A  
HETATM   25  O   UNL     1     -13.960  16.111  73.033  1.00  0.00    -0.576 OA 
HETATM   26  C   UNL     1     -12.807  15.387  71.111  1.00  0.00    -0.520 A  
HETATM   27  H   UNL     1     -13.811  17.016  72.782  1.00  0.00     0.000 HD 
ENDBRANCH  15  18
ENDBRANCH  14  15
ENDBRANCH  12  14
ENDBRANCH   2  12
TORSDOF 6
ENDMDL
MODEL       81
REMARK 921   NORMALIZED FREE ENERGY PREDICTED BY IDOCK:   -6.14 KCAL/MOL
REMARK 922        TOTAL FREE ENERGY PREDICTED BY IDOCK:   -8.90 KCAL/MOL
REMARK 923 INTER-LIGAND FREE ENERGY PREDICTED BY IDOCK:   -8.57 KCAL/MOL
REMARK 924 INTRA-LIGAND FREE ENERGY PREDICTED BY IDOCK:   -0.32 KCAL/MOL
REMARK 927      BINDING AFFINITY PREDICTED BY RF-SCORE:    0.00 PKD
ROOT
HETATM    1  C   UNL     1     -11.231  10.498  67.687  1.00  0.00    -0.338 C  
HETATM    2  C   UNL     1     -10.856  10.710  69.161  1.00  0.00    -0.237 C  
ENDROOT
BRANCH   2   3
HETATM    3  C   UNL     1      -9.775   9.663  69.542  1.00  0.00    -0.216 C  
BRANCH   3   4
HETATM    4  C   UNL     1     -10.265   8.530  70.415  1.00  0.00    -0.215 A  
HETATM    5  C   UNL     1     -11.003   7.726  72.586  1.00  0.00    -0.422 A  
HETATM    6  H   UNL     1     -11.894   5.670  73.779  1.00  0.00     0.000 HD 
HETATM    7  C   UNL     1     -10.471   7.248  69.887  1.00  0.00    -0.236 A  
HETATM    8  C   UNL     1     -10.528   8.756  71.774  1.00  0.00    -0.417 A  
HETATM    9  C   UNL     1     -10.945   6.214  70.701  1.00  0.00    -0.376 A  
HETATM   10  O   UNL     1     -11.709   5.497  72.864  1.00  0.00    -0.278 OA 
HETATM   11  C   UNL     1     -11.217   6.467  72.042  1.00  0.00    -0.273 A  
ENDBRANCH   3   4
ENDBRANCH   2   3
BRANCH   2  12
HETATM   12  N   UNL     1     -10.383  12.079  69.416  1.00  0.00    -0.381 NA 
HETATM   13  H   UNL     1      -9.652  12.077  70.128  1.00  0.00     0.000 HD 
BRANCH  12  14
HETATM   14  C   UNL     1      -9.929  12.794  68.218  1.00  0.00    -0.230 C  
BRANCH  14  15
HETATM   15  C   UNL     1     -10.738  14.095  67.976  1.00  0.00    -0.242 C  
HETATM   16  H   UNL     1     -10.412  16.041  68.072  1.00  0.00     0.000 HD 
HETATM   17  O   UNL     1      -9.917  15.244  68.221  1.00  0.00    -0.217 OA 
BRANCH  15  18
HETATM   18  C   UNL     1     -11.282  14.159  66.561  1.00  0.00    -0.333 A  
HETATM   19  O   UNL     1     -11.482  16.495  63.722  1.00  0.00    -1.615 OA 
HETATM   20  C   UNL     1     -11.634  15.382  64.495  1.00  0.00    -0.296 A  
HETATM   21  C   UNL     1     -11.097  15.311  65.781  1.00  0.00    -0.301 A  
HETATM   22  C   UNL     1     -12.348  14.319  63.955  1.00  0.00    -0.283 A  
HETATM   23  H   UNL     1     -11.848  16.543  62.846  1.00  0.00     0.000 HD 
HETATM   24  C   UNL     1     -12.528  13.174  64.721  1.00  0.00    -0.402 A  
HETATM   25  O   UNL     1     -13.223  12.101  64.249  1.00  0.00    -0.768 OA 
HETATM   26  C   UNL     1     -12.003  13.086  66.006  1.00  0.00    -0.498 A  
HETATM   27  H   UNL     1     -13.346  11.318  64.773  1.00  0.00     0.000 HD 
ENDBRANCH  15  18
ENDBRANCH  14  15
ENDBRANCH  12  14
ENDBRANCH   2  12
TORSDOF 6
ENDMDL
MODEL       82
REMARK 921   NORMALIZED FREE ENERGY PREDICTED BY IDOCK:   -6.13 KCAL/MOL
REMARK 922        TOTAL FREE ENERGY PREDICTED BY IDOCK:   -8.89 KCAL/MOL
REMARK 923 INTER-LIGAND FREE ENERGY PREDICTED BY IDOCK:   -8.05 KCAL/MOL
REMARK 924 INTRA-LIGAND FREE ENERGY PREDICTED BY IDOCK:   -0.84 KCAL/MOL
REMARK 927      BINDING AFFINITY PREDICTED BY RF-SCORE:    0.00 PKD
ROOT
HETATM    1  C   UNL     1     -10.500   8.096  67.328  1.00  0.00    -0.379 C  
HETATM    2  C   UNL     1     -10.047   9.462  67.862  1.00  0.00    -0.194 C  
ENDROOT
BRANCH   2   3
HETATM    3  C   UNL     1      -9.697   9.304  69.366  1.00  0.00    -0.175 C  
BRANCH   3   4
HETATM    4  C   UNL     1     -10.886   9.277  70.299  1.00  0.00    -0.286 A  
HETATM    5  C   UNL     1     -12.705  10.444  71.408  1.00  0.00    -0.551 A  
HETATM    6  H   UNL     1     -14.702  10.080  72.934  1.00  0.00     0.000 HD 
HETATM    7  C   UNL     1     -11.307   8.081  70.899  1.00  0.00    -0.291 A  
HETATM    8  C   UNL     1     -11.592  10.458  70.569  1.00  0.00    -0.433 A  
HETATM    9  C   UNL     1     -12.422   8.066  71.741  1.00  0.00    -0.355 A  
HETATM   10  O   UNL     1     -14.228   9.273  72.772  1.00  0.00    -0.502 OA 
HETATM   11  C   UNL     1     -13.118   9.248  71.980  1.00  0.00    -0.436 A  
ENDBRANCH   3   4
ENDBRANCH   2   3
BRANCH   2  12
HETATM   12  N   UNL     1      -8.906   9.998  67.104  1.00  0.00    -0.135 NA 
HETATM   13  H   UNL     1      -8.867   9.579  66.175  1.00  0.00     0.000 HD 
BRANCH  12  14
HETATM   14  C   UNL     1      -8.880  11.462  67.006  1.00  0.00    -0.168 C  
BRANCH  14  15
HETATM   15  C   UNL     1     -10.281  12.085  67.241  1.00  0.00    -0.204 C  
HETATM   16  H   UNL     1     -11.053  13.536  68.336  1.00  0.00     0.000 HD 
HETATM   17  O   UNL     1     -10.196  13.154  68.193  1.00  0.00    -0.227 OA 
BRANCH  15  18
HETATM   18  C   UNL     1     -10.881  12.609  65.950  1.00  0.00    -0.300 A  
HETATM   19  O   UNL     1     -12.489  11.361  62.881  1.00  0.00    -0.949 OA 
HETATM   20  C   UNL     1     -11.954  12.203  63.811  1.00  0.00    -0.513 A  
HETATM   21  C   UNL     1     -11.440  11.722  65.017  1.00  0.00    -0.253 A  
HETATM   22  C   UNL     1     -11.935  13.559  63.513  1.00  0.00    -0.388 A  
HETATM   23  H   UNL     1     -12.839  11.689  62.061  1.00  0.00     0.000 HD 
HETATM   24  C   UNL     1     -11.389  14.441  64.436  1.00  0.00    -0.251 A  
HETATM   25  O   UNL     1     -11.337  15.783  64.199  1.00  0.00    -0.763 OA 
HETATM   26  C   UNL     1     -10.869  13.981  65.642  1.00  0.00    -0.295 A  
HETATM   27  H   UNL     1     -10.962  16.386  64.830  1.00  0.00     0.000 HD 
ENDBRANCH  15  18
ENDBRANCH  14  15
ENDBRANCH  12  14
ENDBRANCH   2  12
TORSDOF 6
ENDMDL
MODEL       83
REMARK 921   NORMALIZED FREE ENERGY PREDICTED BY IDOCK:   -6.13 KCAL/MOL
REMARK 922        TOTAL FREE ENERGY PREDICTED BY IDOCK:   -8.89 KCAL/MOL
REMARK 923 INTER-LIGAND FREE ENERGY PREDICTED BY IDOCK:   -7.82 KCAL/MOL
REMARK 924 INTRA-LIGAND FREE ENERGY PREDICTED BY IDOCK:   -1.06 KCAL/MOL
REMARK 927      BINDING AFFINITY PREDICTED BY RF-SCORE:    0.00 PKD
ROOT
HETATM    1  C   UNL     1     -11.940  13.157  63.910  1.00  0.00    -0.550 C  
HETATM    2  C   UNL     1     -10.987  13.535  65.052  1.00  0.00    -0.335 C  
ENDROOT
BRANCH   2   3
HETATM    3  C   UNL     1     -11.596  14.741  65.816  1.00  0.00    -0.290 C  
BRANCH   3   4
HETATM    4  C   UNL     1     -10.590  15.638  66.500  1.00  0.00    -0.307 A  
HETATM    5  C   UNL     1      -8.389  16.665  66.543  1.00  0.00    -0.322 A  
HETATM    6  H   UNL     1      -6.946  18.289  67.858  1.00  0.00     0.000 HD 
HETATM    7  C   UNL     1     -10.908  16.304  67.691  1.00  0.00    -0.293 A  
HETATM    8  C   UNL     1      -9.318  15.821  65.936  1.00  0.00    -0.356 A  
HETATM    9  C   UNL     1      -9.976  17.149  68.301  1.00  0.00    -0.300 A  
HETATM   10  O   UNL     1      -7.798  18.166  68.259  1.00  0.00    -0.273 OA 
HETATM   11  C   UNL     1      -8.727  17.329  67.715  1.00  0.00    -0.226 A  
ENDBRANCH   3   4
ENDBRANCH   2   3
BRANCH   2  12
HETATM   12  N   UNL     1     -10.738  12.402  65.958  1.00  0.00    -0.255 NA 
HETATM   13  H   UNL     1      -9.765  12.398  66.264  1.00  0.00     0.000 HD 
BRANCH  12  14
HETATM   14  C   UNL     1     -11.639  12.346  67.114  1.00  0.00    -0.365 C  
BRANCH  14  15
HETATM   15  C   UNL     1     -10.868  12.115  68.441  1.00  0.00    -0.224 C  
HETATM   16  H   UNL     1      -9.228  12.801  69.299  1.00  0.00     0.000 HD 
HETATM   17  O   UNL     1      -9.699  12.943  68.487  1.00  0.00    -0.206 OA 
BRANCH  15  18
HETATM   18  C   UNL     1     -11.739  12.406  69.649  1.00  0.00    -0.377 A  
HETATM   19  O   UNL     1     -13.157  15.272  71.474  1.00  0.00    -0.367 OA 
HETATM   20  C   UNL     1     -12.835  13.995  71.119  1.00  0.00    -0.357 A  
HETATM   21  C   UNL     1     -12.069  13.728  69.983  1.00  0.00    -0.416 A  
HETATM   22  C   UNL     1     -13.295  12.968  71.932  1.00  0.00    -0.539 A  
HETATM   23  H   UNL     1     -13.678  15.453  72.247  1.00  0.00     0.000 HD 
HETATM   24  C   UNL     1     -12.977  11.657  71.602  1.00  0.00    -0.378 A  
HETATM   25  O   UNL     1     -13.395  10.606  72.363  1.00  0.00    -0.612 OA 
HETATM   26  C   UNL     1     -12.211  11.371  70.475  1.00  0.00    -0.478 A  
HETATM   27  H   UNL     1     -13.176   9.710  72.137  1.00  0.00     0.000 HD 
ENDBRANCH  15  18
ENDBRANCH  14  15
ENDBRANCH  12  14
ENDBRANCH   2  12
TORSDOF 6
ENDMDL
MODEL       84
REMARK 921   NORMALIZED FREE ENERGY PREDICTED BY IDOCK:   -6.13 KCAL/MOL
REMARK 922        TOTAL FREE ENERGY PREDICTED BY IDOCK:   -8.89 KCAL/MOL
REMARK 923 INTER-LIGAND FREE ENERGY PREDICTED BY IDOCK:   -8.02 KCAL/MOL
REMARK 924 INTRA-LIGAND FREE ENERGY PREDICTED BY IDOCK:   -0.86 KCAL/MOL
REMARK 927      BINDING AFFINITY PREDICTED BY RF-SCORE:    0.00 PKD
ROOT
HETATM    1  C   UNL     1      -8.453  10.697  68.761  1.00  0.00    -0.149 C  
HETATM    2  C   UNL     1      -9.026  11.895  67.991  1.00  0.00    -0.185 C  
ENDROOT
BRANCH   2   3
HETATM    3  C   UNL     1     -10.546  11.658  67.785  1.00  0.00    -0.227 C  
BRANCH   3   4
HETATM    4  C   UNL     1     -11.111  12.217  66.499  1.00  0.00    -0.343 A  
HETATM    5  C   UNL     1     -12.547  13.811  65.360  1.00  0.00    -0.534 A  
HETATM    6  H   UNL     1     -13.253  14.601  63.052  1.00  0.00     0.000 HD 
HETATM    7  C   UNL     1     -10.716  11.707  65.254  1.00  0.00    -0.346 A  
HETATM    8  C   UNL     1     -12.037  13.269  66.539  1.00  0.00    -0.435 A  
HETATM    9  C   UNL     1     -11.228  12.248  64.071  1.00  0.00    -0.456 A  
HETATM   10  O   UNL     1     -12.636  13.880  63.007  1.00  0.00    -0.694 OA 
HETATM   11  C   UNL     1     -12.133  13.303  64.136  1.00  0.00    -0.432 A  
ENDBRANCH   3   4
ENDBRANCH   2   3
BRANCH   2  12
HETATM   12  N   UNL     1      -8.775  13.166  68.687  1.00  0.00    -0.370 NA 
HETATM   13  H   UNL     1      -8.038  13.052  69.383  1.00  0.00     0.000 HD 
BRANCH  12  14
HETATM   14  C   UNL     1      -8.468  14.291  67.797  1.00  0.00    -0.176 C  
BRANCH  14  15
HETATM   15  C   UNL     1      -8.324  15.626  68.575  1.00  0.00    -0.166 C  
HETATM   16  H   UNL     1      -6.860  16.844  69.098  1.00  0.00     0.000 HD 
HETATM   17  O   UNL     1      -6.948  16.026  68.622  1.00  0.00    -0.123 OA 
BRANCH  15  18
HETATM   18  C   UNL     1      -9.147  16.732  67.942  1.00  0.00    -0.224 A  
HETATM   19  O   UNL     1     -10.524  20.045  68.769  1.00  0.00    -0.549 OA 
HETATM   20  C   UNL     1     -10.223  18.902  68.089  1.00  0.00    -0.391 A  
HETATM   21  C   UNL     1      -9.430  17.905  68.659  1.00  0.00    -0.301 A  
HETATM   22  C   UNL     1     -10.737  18.765  66.806  1.00  0.00    -0.381 A  
HETATM   23  H   UNL     1     -11.064  20.724  68.381  1.00  0.00     0.000 HD 
HETATM   24  C   UNL     1     -10.455  17.609  66.090  1.00  0.00    -0.295 A  
HETATM   25  O   UNL     1     -10.936  17.413  64.830  1.00  0.00    -0.964 OA 
HETATM   26  C   UNL     1      -9.670  16.602  66.642  1.00  0.00    -0.280 A  
HETATM   27  H   UNL     1     -10.743  16.622  64.340  1.00  0.00     0.000 HD 
ENDBRANCH  15  18
ENDBRANCH  14  15
ENDBRANCH  12  14
ENDBRANCH   2  12
TORSDOF 6
ENDMDL
MODEL       85
REMARK 921   NORMALIZED FREE ENERGY PREDICTED BY IDOCK:   -6.12 KCAL/MOL
REMARK 922        TOTAL FREE ENERGY PREDICTED BY IDOCK:   -8.87 KCAL/MOL
REMARK 923 INTER-LIGAND FREE ENERGY PREDICTED BY IDOCK:   -8.26 KCAL/MOL
REMARK 924 INTRA-LIGAND FREE ENERGY PREDICTED BY IDOCK:   -0.62 KCAL/MOL
REMARK 927      BINDING AFFINITY PREDICTED BY RF-SCORE:    0.00 PKD
ROOT
HETATM    1  C   UNL     1     -11.911  12.649  69.593  1.00  0.00    -0.379 C  
HETATM    2  C   UNL     1     -11.394  11.234  69.296  1.00  0.00    -0.287 C  
ENDROOT
BRANCH   2   3
HETATM    3  C   UNL     1     -12.127  10.241  70.237  1.00  0.00    -0.330 C  
BRANCH   3   4
HETATM    4  C   UNL     1     -11.221   9.385  71.092  1.00  0.00    -0.427 A  
HETATM    5  C   UNL     1     -10.947   7.747  72.864  1.00  0.00    -0.467 A  
HETATM    6  H   UNL     1      -9.199   6.360  74.078  1.00  0.00     0.000 HD 
HETATM    7  C   UNL     1      -9.832   9.391  70.903  1.00  0.00    -0.338 A  
HETATM    8  C   UNL     1     -11.769   8.560  72.085  1.00  0.00    -0.448 A  
HETATM    9  C   UNL     1      -9.007   8.577  71.685  1.00  0.00    -0.285 A  
HETATM   10  O   UNL     1      -8.811   6.923  73.418  1.00  0.00    -0.124 OA 
HETATM   11  C   UNL     1      -9.575   7.754  72.653  1.00  0.00    -0.202 A  
ENDBRANCH   3   4
ENDBRANCH   2   3
BRANCH   2  12
HETATM   12  N   UNL     1     -11.583  10.866  67.884  1.00  0.00    -0.591 NA 
HETATM   13  H   UNL     1     -12.316  10.163  67.794  1.00  0.00     0.000 HD 
BRANCH  12  14
HETATM   14  C   UNL     1     -11.851  12.001  66.994  1.00  0.00    -0.176 C  
BRANCH  14  15
HETATM   15  C   UNL     1     -10.623  12.352  66.113  1.00  0.00    -0.254 C  
HETATM   16  H   UNL     1      -9.996  11.958  64.283  1.00  0.00     0.000 HD 
HETATM   17  O   UNL     1     -10.748  11.742  64.822  1.00  0.00    -0.278 OA 
BRANCH  15  18
HETATM   18  C   UNL     1     -10.467  13.852  65.948  1.00  0.00    -0.309 A  
HETATM   19  O   UNL     1      -8.900  16.725  67.636  1.00  0.00    -0.202 OA 
HETATM   20  C   UNL     1      -9.610  15.979  66.742  1.00  0.00    -0.232 A  
HETATM   21  C   UNL     1      -9.717  14.594  66.874  1.00  0.00    -0.249 A  
HETATM   22  C   UNL     1     -10.227  16.650  65.694  1.00  0.00    -0.285 A  
HETATM   23  H   UNL     1      -8.827  17.668  67.545  1.00  0.00     0.000 HD 
HETATM   24  C   UNL     1     -10.965  15.920  64.772  1.00  0.00    -0.375 A  
HETATM   25  O   UNL     1     -11.598  16.522  63.725  1.00  0.00    -1.617 OA 
HETATM   26  C   UNL     1     -11.086  14.539  64.888  1.00  0.00    -0.401 A  
HETATM   27  H   UNL     1     -12.104  16.022  63.094  1.00  0.00     0.000 HD 
ENDBRANCH  15  18
ENDBRANCH  14  15
ENDBRANCH  12  14
ENDBRANCH   2  12
TORSDOF 6
ENDMDL
MODEL       86
REMARK 921   NORMALIZED FREE ENERGY PREDICTED BY IDOCK:   -6.12 KCAL/MOL
REMARK 922        TOTAL FREE ENERGY PREDICTED BY IDOCK:   -8.87 KCAL/MOL
REMARK 923 INTER-LIGAND FREE ENERGY PREDICTED BY IDOCK:   -8.30 KCAL/MOL
REMARK 924 INTRA-LIGAND FREE ENERGY PREDICTED BY IDOCK:   -0.57 KCAL/MOL
REMARK 927      BINDING AFFINITY PREDICTED BY RF-SCORE:    0.00 PKD
ROOT
HETATM    1  C   UNL     1     -11.203  14.044  67.423  1.00  0.00    -0.328 C  
HETATM    2  C   UNL     1     -10.680  13.546  68.778  1.00  0.00    -0.238 C  
ENDROOT
BRANCH   2   3
HETATM    3  C   UNL     1     -11.891  13.055  69.616  1.00  0.00    -0.385 C  
BRANCH   3   4
HETATM    4  C   UNL     1     -12.250  13.933  70.793  1.00  0.00    -0.441 A  
HETATM    5  C   UNL     1     -12.093  16.070  71.937  1.00  0.00    -0.590 A  
HETATM    6  H   UNL     1     -12.932  17.336  73.973  1.00  0.00     0.000 HD 
HETATM    7  C   UNL     1     -13.089  13.465  71.814  1.00  0.00    -0.479 A  
HETATM    8  C   UNL     1     -11.750  15.241  70.870  1.00  0.00    -0.386 A  
HETATM    9  C   UNL     1     -13.432  14.295  72.886  1.00  0.00    -0.491 A  
HETATM   10  O   UNL     1     -13.269  16.448  73.942  1.00  0.00    -0.662 OA 
HETATM   11  C   UNL     1     -12.937  15.595  72.931  1.00  0.00    -0.497 A  
ENDBRANCH   3   4
ENDBRANCH   2   3
BRANCH   2  12
HETATM   12  N   UNL     1      -9.676  12.483  68.621  1.00  0.00    -0.402 NA 
HETATM   13  H   UNL     1      -8.862  12.672  69.206  1.00  0.00     0.000 HD 
BRANCH  12  14
HETATM   14  C   UNL     1     -10.184  11.130  68.874  1.00  0.00    -0.194 C  
BRANCH  14  15
HETATM   15  C   UNL     1      -9.791  10.141  67.746  1.00  0.00    -0.163 C  
HETATM   16  H   UNL     1      -8.127   9.517  66.884  1.00  0.00     0.000 HD 
HETATM   17  O   UNL     1      -8.368  10.123  67.575  1.00  0.00    -0.118 OA 
BRANCH  15  18
HETATM   18  C   UNL     1     -10.278   8.735  68.044  1.00  0.00    -0.264 A  
HETATM   19  O   UNL     1     -11.091   6.584  70.920  1.00  0.00    -0.260 OA 
HETATM   20  C   UNL     1     -10.895   7.015  69.641  1.00  0.00    -0.247 A  
HETATM   21  C   UNL     1     -10.487   8.322  69.369  1.00  0.00    -0.224 A  
HETATM   22  C   UNL     1     -11.114   6.103  68.616  1.00  0.00    -0.378 A  
HETATM   23  H   UNL     1     -11.369   5.694  71.104  1.00  0.00     0.000 HD 
HETATM   24  C   UNL     1     -10.914   6.509  67.303  1.00  0.00    -0.400 A  
HETATM   25  O   UNL     1     -11.108   5.659  66.255  1.00  0.00    -0.734 OA 
HETATM   26  C   UNL     1     -10.505   7.806  67.012  1.00  0.00    -0.419 A  
HETATM   27  H   UNL     1     -10.971   5.937  65.356  1.00  0.00     0.000 HD 
ENDBRANCH  15  18
ENDBRANCH  14  15
ENDBRANCH  12  14
ENDBRANCH   2  12
TORSDOF 6
ENDMDL
MODEL       87
REMARK 921   NORMALIZED FREE ENERGY PREDICTED BY IDOCK:   -6.11 KCAL/MOL
REMARK 922        TOTAL FREE ENERGY PREDICTED BY IDOCK:   -8.86 KCAL/MOL
REMARK 923 INTER-LIGAND FREE ENERGY PREDICTED BY IDOCK:   -8.36 KCAL/MOL
REMARK 924 INTRA-LIGAND FREE ENERGY PREDICTED BY IDOCK:   -0.50 KCAL/MOL
REMARK 927      BINDING AFFINITY PREDICTED BY RF-SCORE:    0.00 PKD
ROOT
HETATM    1  C   UNL     1      -9.583   8.839  67.984  1.00  0.00    -0.160 C  
HETATM    2  C   UNL     1     -10.872   9.479  68.520  1.00  0.00    -0.132 C  
ENDROOT
BRANCH   2   3
HETATM    3  C   UNL     1     -10.544  10.179  69.866  1.00  0.00    -0.331 C  
BRANCH   3   4
HETATM    4  C   UNL     1     -10.477   9.260  71.064  1.00  0.00    -0.384 A  
HETATM    5  C   UNL     1     -11.612   7.880  72.711  1.00  0.00    -0.387 A  
HETATM    6  H   UNL     1     -11.190   6.299  74.653  1.00  0.00     0.000 HD 
HETATM    7  C   UNL     1      -9.247   8.897  71.630  1.00  0.00    -0.302 A  
HETATM    8  C   UNL     1     -11.659   8.748  71.621  1.00  0.00    -0.390 A  
HETATM    9  C   UNL     1      -9.199   8.028  72.724  1.00  0.00    -0.318 A  
HETATM   10  O   UNL     1     -10.382   6.647  74.296  1.00  0.00    -0.361 OA 
HETATM   11  C   UNL     1     -10.384   7.520  73.248  1.00  0.00    -0.357 A  
ENDBRANCH   3   4
ENDBRANCH   2   3
BRANCH   2  12
HETATM   12  N   UNL     1     -11.457  10.424  67.557  1.00  0.00    -0.538 NA 
HETATM   13  H   UNL     1     -12.390  10.707  67.858  1.00  0.00     0.000 HD 
BRANCH  12  14
HETATM   14  C   UNL     1     -10.627  11.603  67.288  1.00  0.00    -0.228 C  
BRANCH  14  15
HETATM   15  C   UNL     1     -10.931  12.225  65.900  1.00  0.00    -0.302 C  
HETATM   16  H   UNL     1     -12.483  12.364  64.686  1.00  0.00     0.000 HD 
HETATM   17  O   UNL     1     -12.297  11.983  65.536  1.00  0.00    -0.460 OA 
BRANCH  15  18
HETATM   18  C   UNL     1     -10.665  13.718  65.887  1.00  0.00    -0.285 A  
HETATM   19  O   UNL     1     -11.416  16.697  63.856  1.00  0.00    -1.604 OA 
HETATM   20  C   UNL     1     -10.919  15.892  64.839  1.00  0.00    -0.411 A  
HETATM   21  C   UNL     1     -11.201  14.526  64.872  1.00  0.00    -0.395 A  
HETATM   22  C   UNL     1     -10.118  16.483  65.808  1.00  0.00    -0.328 A  
HETATM   23  H   UNL     1     -11.224  17.627  63.834  1.00  0.00     0.000 HD 
HETATM   24  C   UNL     1      -9.590  15.689  66.817  1.00  0.00    -0.240 A  
HETATM   25  O   UNL     1      -8.793  16.210  67.793  1.00  0.00    -0.181 OA 
HETATM   26  C   UNL     1      -9.857  14.325  66.865  1.00  0.00    -0.264 A  
HETATM   27  H   UNL     1      -8.431  15.667  68.483  1.00  0.00     0.000 HD 
ENDBRANCH  15  18
ENDBRANCH  14  15
ENDBRANCH  12  14
ENDBRANCH   2  12
TORSDOF 6
ENDMDL
MODEL       88
REMARK 921   NORMALIZED FREE ENERGY PREDICTED BY IDOCK:   -6.10 KCAL/MOL
REMARK 922        TOTAL FREE ENERGY PREDICTED BY IDOCK:   -8.85 KCAL/MOL
REMARK 923 INTER-LIGAND FREE ENERGY PREDICTED BY IDOCK:   -7.41 KCAL/MOL
REMARK 924 INTRA-LIGAND FREE ENERGY PREDICTED BY IDOCK:   -1.44 KCAL/MOL
REMARK 927      BINDING AFFINITY PREDICTED BY RF-SCORE:    0.00 PKD
ROOT
HETATM    1  C   UNL     1     -12.568  11.989  63.244  1.00  0.00    -0.512 C  
HETATM    2  C   UNL     1     -11.547  12.927  63.904  1.00  0.00    -0.453 C  
ENDROOT
BRANCH   2   3
HETATM    3  C   UNL     1     -12.090  13.330  65.301  1.00  0.00    -0.456 C  
BRANCH   3   4
HETATM    4  C   UNL     1     -11.465  14.572  65.895  1.00  0.00    -0.345 A  
HETATM    5  C   UNL     1     -10.339  16.702  65.587  1.00  0.00    -0.310 A  
HETATM    6  H   UNL     1      -9.446  18.714  66.853  1.00  0.00     0.000 HD 
HETATM    7  C   UNL     1     -11.450  14.781  67.281  1.00  0.00    -0.378 A  
HETATM    8  C   UNL     1     -10.897  15.541  65.054  1.00  0.00    -0.468 A  
HETATM    9  C   UNL     1     -10.889  15.945  67.816  1.00  0.00    -0.324 A  
HETATM   10  O   UNL     1      -9.816  18.062  67.437  1.00  0.00    -0.291 OA 
HETATM   11  C   UNL     1     -10.347  16.900  66.961  1.00  0.00    -0.307 A  
ENDBRANCH   3   4
ENDBRANCH   2   3
BRANCH   2  12
HETATM   12  N   UNL     1     -10.218  12.306  64.009  1.00  0.00    -0.423 NA 
HETATM   13  H   UNL     1      -9.781  12.549  64.898  1.00  0.00     0.000 HD 
BRANCH  12  14
HETATM   14  C   UNL     1     -10.215  10.852  63.817  1.00  0.00    -0.343 C  
BRANCH  14  15
HETATM   15  C   UNL     1      -9.365  10.125  64.892  1.00  0.00    -0.254 C  
HETATM   16  H   UNL     1      -7.448   9.858  65.283  1.00  0.00     0.000 HD 
HETATM   17  O   UNL     1      -7.968  10.302  64.624  1.00  0.00    -0.148 OA 
BRANCH  15  18
HETATM   18  C   UNL     1      -9.678  10.633  66.287  1.00  0.00    -0.245 A  
HETATM   19  O   UNL     1     -12.392  10.546  68.774  1.00  0.00    -0.790 OA 
HETATM   20  C   UNL     1     -11.204  10.823  68.164  1.00  0.00    -0.302 A  
HETATM   21  C   UNL     1     -10.902  10.319  66.898  1.00  0.00    -0.205 A  
HETATM   22  C   UNL     1     -10.304  11.630  68.849  1.00  0.00    -0.175 A  
HETATM   23  H   UNL     1     -12.596  10.889  69.636  1.00  0.00     0.000 HD 
HETATM   24  C   UNL     1      -9.089  11.938  68.251  1.00  0.00    -0.183 A  
HETATM   25  O   UNL     1      -8.167  12.729  68.870  1.00  0.00    -0.341 OA 
HETATM   26  C   UNL     1      -8.771  11.448  66.988  1.00  0.00    -0.160 A  
HETATM   27  H   UNL     1      -7.336  12.940  68.461  1.00  0.00     0.000 HD 
ENDBRANCH  15  18
ENDBRANCH  14  15
ENDBRANCH  12  14
ENDBRANCH   2  12
TORSDOF 6
ENDMDL
MODEL       89
REMARK 921   NORMALIZED FREE ENERGY PREDICTED BY IDOCK:   -6.10 KCAL/MOL
REMARK 922        TOTAL FREE ENERGY PREDICTED BY IDOCK:   -8.85 KCAL/MOL
REMARK 923 INTER-LIGAND FREE ENERGY PREDICTED BY IDOCK:   -8.11 KCAL/MOL
REMARK 924 INTRA-LIGAND FREE ENERGY PREDICTED BY IDOCK:   -0.74 KCAL/MOL
REMARK 927      BINDING AFFINITY PREDICTED BY RF-SCORE:    0.00 PKD
ROOT
HETATM    1  C   UNL     1      -9.873   9.416  65.850  1.00  0.00    -0.362 C  
HETATM    2  C   UNL     1     -10.377  10.789  66.318  1.00  0.00    -0.244 C  
ENDROOT
BRANCH   2   3
HETATM    3  C   UNL     1      -9.699  11.119  67.675  1.00  0.00    -0.184 C  
BRANCH   3   4
HETATM    4  C   UNL     1     -10.526  10.793  68.898  1.00  0.00    -0.228 A  
HETATM    5  C   UNL     1     -12.084  11.501  70.622  1.00  0.00    -0.450 A  
HETATM    6  H   UNL     1     -13.434  10.647  72.596  1.00  0.00     0.000 HD 
HETATM    7  C   UNL     1     -10.545   9.498  69.434  1.00  0.00    -0.235 A  
HETATM    8  C   UNL     1     -11.297  11.793  69.508  1.00  0.00    -0.317 A  
HETATM    9  C   UNL     1     -11.332   9.205  70.551  1.00  0.00    -0.300 A  
HETATM   10  O   UNL     1     -12.907   9.961  72.202  1.00  0.00    -0.392 OA 
HETATM   11  C   UNL     1     -12.103  10.209  71.129  1.00  0.00    -0.388 A  
ENDBRANCH   3   4
ENDBRANCH   2   3
BRANCH   2  12
HETATM   12  N   UNL     1     -10.113  11.840  65.323  1.00  0.00    -0.254 NA 
HETATM   13  H   UNL     1      -9.155  11.774  64.980  1.00  0.00     0.000 HD 
BRANCH  12  14
HETATM   14  C   UNL     1     -11.058  11.859  64.201  1.00  0.00    -0.375 C  
BRANCH  14  15
HETATM   15  C   UNL     1     -12.023  13.071  64.273  1.00  0.00    -0.402 C  
HETATM   16  H   UNL     1     -13.948  13.371  64.596  1.00  0.00     0.000 HD 
HETATM   17  O   UNL     1     -13.357  12.628  64.552  1.00  0.00    -0.679 OA 
BRANCH  15  18
HETATM   18  C   UNL     1     -11.591  14.065  65.335  1.00  0.00    -0.329 A  
HETATM   19  O   UNL     1     -12.288  14.912  68.850  1.00  0.00    -0.570 OA 
HETATM   20  C   UNL     1     -11.765  14.942  67.591  1.00  0.00    -0.307 A  
HETATM   21  C   UNL     1     -12.133  14.001  66.628  1.00  0.00    -0.487 A  
HETATM   22  C   UNL     1     -10.853  15.948  67.299  1.00  0.00    -0.279 A  
HETATM   23  H   UNL     1     -12.037  15.553  69.505  1.00  0.00     0.000 HD 
HETATM   24  C   UNL     1     -10.309  16.012  66.023  1.00  0.00    -0.351 A  
HETATM   25  O   UNL     1      -9.413  16.978  65.675  1.00  0.00    -0.526 OA 
HETATM   26  C   UNL     1     -10.666  15.085  65.049  1.00  0.00    -0.448 A  
HETATM   27  H   UNL     1      -9.041  17.022  64.802  1.00  0.00     0.000 HD 
ENDBRANCH  15  18
ENDBRANCH  14  15
ENDBRANCH  12  14
ENDBRANCH   2  12
TORSDOF 6
ENDMDL
MODEL       90
REMARK 921   NORMALIZED FREE ENERGY PREDICTED BY IDOCK:   -6.09 KCAL/MOL
REMARK 922        TOTAL FREE ENERGY PREDICTED BY IDOCK:   -8.83 KCAL/MOL
REMARK 923 INTER-LIGAND FREE ENERGY PREDICTED BY IDOCK:   -8.61 KCAL/MOL
REMARK 924 INTRA-LIGAND FREE ENERGY PREDICTED BY IDOCK:   -0.22 KCAL/MOL
REMARK 927      BINDING AFFINITY PREDICTED BY RF-SCORE:    0.00 PKD
ROOT
HETATM    1  C   UNL     1     -12.496  13.073  65.271  1.00  0.00    -0.555 C  
HETATM    2  C   UNL     1     -11.561  12.379  66.272  1.00  0.00    -0.393 C  
ENDROOT
BRANCH   2   3
HETATM    3  C   UNL     1     -10.216  13.153  66.298  1.00  0.00    -0.294 C  
BRANCH   3   4
HETATM    4  C   UNL     1     -10.331  14.622  66.638  1.00  0.00    -0.273 A  
HETATM    5  C   UNL     1     -10.998  16.365  68.193  1.00  0.00    -0.339 A  
HETATM    6  H   UNL     1     -10.977  18.882  68.533  1.00  0.00     0.000 HD 
HETATM    7  C   UNL     1      -9.860  15.607  65.759  1.00  0.00    -0.386 A  
HETATM    8  C   UNL     1     -10.908  15.015  67.855  1.00  0.00    -0.280 A  
HETATM    9  C   UNL     1      -9.952  16.960  66.097  1.00  0.00    -0.332 A  
HETATM   10  O   UNL     1     -10.595  18.632  67.699  1.00  0.00    -0.407 OA 
HETATM   11  C   UNL     1     -10.512  17.326  67.317  1.00  0.00    -0.319 A  
ENDBRANCH   3   4
ENDBRANCH   2   3
BRANCH   2  12
HETATM   12  N   UNL     1     -12.155  12.300  67.615  1.00  0.00    -0.473 NA 
HETATM   13  H   UNL     1     -13.173  12.315  67.556  1.00  0.00     0.000 HD 
BRANCH  12  14
HETATM   14  C   UNL     1     -11.706  11.149  68.406  1.00  0.00    -0.279 C  
BRANCH  14  15
HETATM   15  C   UNL     1     -11.438  11.529  69.886  1.00  0.00    -0.260 C  
HETATM   16  H   UNL     1     -12.160  12.811  71.204  1.00  0.00     0.000 HD 
HETATM   17  O   UNL     1     -12.324  12.578  70.298  1.00  0.00    -0.277 OA 
BRANCH  15  18
HETATM   18  C   UNL     1     -11.608  10.336  70.808  1.00  0.00    -0.446 A  
HETATM   19  O   UNL     1      -9.917   7.183  71.677  1.00  0.00    -0.178 OA 
HETATM   20  C   UNL     1     -10.828   8.197  71.648  1.00  0.00    -0.249 A  
HETATM   21  C   UNL     1     -10.647   9.314  70.830  1.00  0.00    -0.351 A  
HETATM   22  C   UNL     1     -11.947   8.078  72.462  1.00  0.00    -0.384 A  
HETATM   23  H   UNL     1     -10.040   6.424  72.234  1.00  0.00     0.000 HD 
HETATM   24  C   UNL     1     -12.897   9.090  72.449  1.00  0.00    -0.385 A  
HETATM   25  O   UNL     1     -14.019   9.028  73.221  1.00  0.00    -1.205 OA 
HETATM   26  C   UNL     1     -12.737  10.209  71.637  1.00  0.00    -0.549 A  
HETATM   27  H   UNL     1     -14.670   9.721  73.212  1.00  0.00     0.000 HD 
ENDBRANCH  15  18
ENDBRANCH  14  15
ENDBRANCH  12  14
ENDBRANCH   2  12
TORSDOF 6
ENDMDL
MODEL       91
REMARK 921   NORMALIZED FREE ENERGY PREDICTED BY IDOCK:   -6.08 KCAL/MOL
REMARK 922        TOTAL FREE ENERGY PREDICTED BY IDOCK:   -8.83 KCAL/MOL
REMARK 923 INTER-LIGAND FREE ENERGY PREDICTED BY IDOCK:   -7.84 KCAL/MOL
REMARK 924 INTRA-LIGAND FREE ENERGY PREDICTED BY IDOCK:   -0.99 KCAL/MOL
REMARK 927      BINDING AFFINITY PREDICTED BY RF-SCORE:    0.00 PKD
ROOT
HETATM    1  C   UNL     1     -10.556  18.610  67.294  1.00  0.00    -0.480 C  
HETATM    2  C   UNL     1     -10.743  17.087  67.340  1.00  0.00    -0.240 C  
ENDROOT
BRANCH   2   3
HETATM    3  C   UNL     1      -9.572  16.429  66.563  1.00  0.00    -0.291 C  
BRANCH   3   4
HETATM    4  C   UNL     1      -9.882  15.076  65.965  1.00  0.00    -0.347 A  
HETATM    5  C   UNL     1     -11.005  13.741  64.274  1.00  0.00    -0.268 A  
HETATM    6  H   UNL     1     -11.274  11.359  63.435  1.00  0.00     0.000 HD 
HETATM    7  C   UNL     1      -9.328  13.905  66.500  1.00  0.00    -0.264 A  
HETATM    8  C   UNL     1     -10.729  14.980  64.851  1.00  0.00    -0.420 A  
HETATM    9  C   UNL     1      -9.605  12.662  65.924  1.00  0.00    -0.158 A  
HETATM   10  O   UNL     1     -10.708  11.406  64.196  1.00  0.00    -0.330 OA 
HETATM   11  C   UNL     1     -10.434  12.593  64.808  1.00  0.00    -0.320 A  
ENDBRANCH   3   4
ENDBRANCH   2   3
BRANCH   2  12
HETATM   12  N   UNL     1     -10.815  16.584  68.720  1.00  0.00    -0.328 NA 
HETATM   13  H   UNL     1     -10.735  17.354  69.385  1.00  0.00     0.000 HD 
BRANCH  12  14
HETATM   14  C   UNL     1     -12.008  15.780  69.008  1.00  0.00    -0.278 C  
BRANCH  14  15
HETATM   15  C   UNL     1     -11.930  15.102  70.402  1.00  0.00    -0.320 C  
HETATM   16  H   UNL     1     -12.908  15.200  72.115  1.00  0.00     0.000 HD 
HETATM   17  O   UNL     1     -12.956  15.615  71.262  1.00  0.00    -0.474 OA 
BRANCH  15  18
HETATM   18  C   UNL     1     -12.069  13.595  70.297  1.00  0.00    -0.427 A  
HETATM   19  O   UNL     1     -11.552  10.880  67.863  1.00  0.00    -0.497 OA 
HETATM   20  C   UNL     1     -11.879  11.549  69.006  1.00  0.00    -0.343 A  
HETATM   21  C   UNL     1     -11.710  12.930  69.114  1.00  0.00    -0.376 A  
HETATM   22  C   UNL     1     -12.391  10.804  70.061  1.00  0.00    -0.371 A  
HETATM   23  H   UNL     1     -11.667   9.940  67.791  1.00  0.00     0.000 HD 
HETATM   24  C   UNL     1     -12.742  11.457  71.235  1.00  0.00    -0.393 A  
HETATM   25  O   UNL     1     -13.254  10.781  72.303  1.00  0.00    -0.605 OA 
HETATM   26  C   UNL     1     -12.584  12.833  71.361  1.00  0.00    -0.308 A  
HETATM   27  H   UNL     1     -13.495  11.228  73.106  1.00  0.00     0.000 HD 
ENDBRANCH  15  18
ENDBRANCH  14  15
ENDBRANCH  12  14
ENDBRANCH   2  12
TORSDOF 6
ENDMDL
MODEL       92
REMARK 921   NORMALIZED FREE ENERGY PREDICTED BY IDOCK:   -6.08 KCAL/MOL
REMARK 922        TOTAL FREE ENERGY PREDICTED BY IDOCK:   -8.83 KCAL/MOL
REMARK 923 INTER-LIGAND FREE ENERGY PREDICTED BY IDOCK:   -8.21 KCAL/MOL
REMARK 924 INTRA-LIGAND FREE ENERGY PREDICTED BY IDOCK:   -0.62 KCAL/MOL
REMARK 927      BINDING AFFINITY PREDICTED BY RF-SCORE:    0.00 PKD
ROOT
HETATM    1  C   UNL     1      -8.792   9.945  65.318  1.00  0.00    -0.210 C  
HETATM    2  C   UNL     1      -9.304  11.017  66.290  1.00  0.00    -0.183 C  
ENDROOT
BRANCH   2   3
HETATM    3  C   UNL     1     -10.766  11.367  65.902  1.00  0.00    -0.311 C  
BRANCH   3   4
HETATM    4  C   UNL     1     -10.967  12.767  65.367  1.00  0.00    -0.313 A  
HETATM    5  C   UNL     1     -12.200  14.314  63.958  1.00  0.00    -0.336 A  
HETATM    6  H   UNL     1     -12.357  16.763  63.306  1.00  0.00     0.000 HD 
HETATM    7  C   UNL     1     -10.151  13.826  65.790  1.00  0.00    -0.322 A  
HETATM    8  C   UNL     1     -11.988  13.023  64.441  1.00  0.00    -0.457 A  
HETATM    9  C   UNL     1     -10.362  15.120  65.305  1.00  0.00    -0.425 A  
HETATM   10  O   UNL     1     -11.653  16.604  63.923  1.00  0.00    -1.204 OA 
HETATM   11  C   UNL     1     -11.393  15.353  64.400  1.00  0.00    -0.238 A  
ENDBRANCH   3   4
ENDBRANCH   2   3
BRANCH   2  12
HETATM   12  N   UNL     1      -9.217  10.576  67.691  1.00  0.00    -0.145 NA 
HETATM   13  H   UNL     1      -8.969  11.358  68.296  1.00  0.00     0.000 HD 
BRANCH  12  14
HETATM   14  C   UNL     1     -10.424   9.907  68.189  1.00  0.00    -0.215 C  
BRANCH  14  15
HETATM   15  C   UNL     1     -10.876  10.469  69.562  1.00  0.00    -0.256 C  
HETATM   16  H   UNL     1     -12.199  11.777  70.226  1.00  0.00     0.000 HD 
HETATM   17  O   UNL     1     -11.922  11.433  69.385  1.00  0.00    -0.315 OA 
BRANCH  15  18
HETATM   18  C   UNL     1     -11.362   9.365  70.483  1.00  0.00    -0.328 A  
HETATM   19  O   UNL     1     -10.965   5.739  70.989  1.00  0.00    -0.271 OA 
HETATM   20  C   UNL     1     -11.383   7.029  71.139  1.00  0.00    -0.282 A  
HETATM   21  C   UNL     1     -10.903   8.049  70.317  1.00  0.00    -0.241 A  
HETATM   22  C   UNL     1     -12.309   7.290  72.141  1.00  0.00    -0.229 A  
HETATM   23  H   UNL     1     -11.291   5.045  71.549  1.00  0.00     0.000 HD 
HETATM   24  C   UNL     1     -12.762   8.591  72.313  1.00  0.00    -0.367 A  
HETATM   25  O   UNL     1     -13.674   8.910  73.275  1.00  0.00    -1.085 OA 
HETATM   26  C   UNL     1     -12.297   9.622  71.501  1.00  0.00    -0.477 A  
HETATM   27  H   UNL     1     -13.984   9.800  73.392  1.00  0.00     0.000 HD 
ENDBRANCH  15  18
ENDBRANCH  14  15
ENDBRANCH  12  14
ENDBRANCH   2  12
TORSDOF 6
ENDMDL
MODEL       93
REMARK 921   NORMALIZED FREE ENERGY PREDICTED BY IDOCK:   -6.08 KCAL/MOL
REMARK 922        TOTAL FREE ENERGY PREDICTED BY IDOCK:   -8.82 KCAL/MOL
REMARK 923 INTER-LIGAND FREE ENERGY PREDICTED BY IDOCK:   -8.23 KCAL/MOL
REMARK 924 INTRA-LIGAND FREE ENERGY PREDICTED BY IDOCK:   -0.59 KCAL/MOL
REMARK 927      BINDING AFFINITY PREDICTED BY RF-SCORE:    0.00 PKD
ROOT
HETATM    1  C   UNL     1     -12.170  15.007  70.194  1.00  0.00    -0.392 C  
HETATM    2  C   UNL     1     -12.037  13.602  69.588  1.00  0.00    -0.321 C  
ENDROOT
BRANCH   2   3
HETATM    3  C   UNL     1     -10.853  13.616  68.585  1.00  0.00    -0.283 C  
BRANCH   3   4
HETATM    4  C   UNL     1     -11.252  13.637  67.127  1.00  0.00    -0.327 A  
HETATM    5  C   UNL     1     -12.100  12.472  65.170  1.00  0.00    -0.503 A  
HETATM    6  H   UNL     1     -12.781  12.826  62.750  1.00  0.00     0.000 HD 
HETATM    7  C   UNL     1     -11.187  14.819  66.376  1.00  0.00    -0.342 A  
HETATM    8  C   UNL     1     -11.705  12.463  66.508  1.00  0.00    -0.443 A  
HETATM    9  C   UNL     1     -11.580  14.829  65.035  1.00  0.00    -0.378 A  
HETATM   10  O   UNL     1     -12.465  13.627  63.151  1.00  0.00    -0.786 OA 
HETATM   11  C   UNL     1     -12.043  13.656  64.447  1.00  0.00    -0.427 A  
ENDBRANCH   3   4
ENDBRANCH   2   3
BRANCH   2  12
HETATM   12  N   UNL     1     -11.846  12.574  70.622  1.00  0.00    -0.478 NA 
HETATM   13  H   UNL     1     -12.454  12.754  71.421  1.00  0.00     0.000 HD 
BRANCH  12  14
HETATM   14  C   UNL     1     -12.023  11.198  70.145  1.00  0.00    -0.365 C  
BRANCH  14  15
HETATM   15  C   UNL     1     -12.471  10.242  71.281  1.00  0.00    -0.408 C  
HETATM   16  H   UNL     1     -13.883   8.889  71.561  1.00  0.00     0.000 HD 
HETATM   17  O   UNL     1     -13.609   9.475  70.865  1.00  0.00    -0.226 OA 
BRANCH  15  18
HETATM   18  C   UNL     1     -11.353   9.300  71.691  1.00  0.00    -0.467 A  
HETATM   19  O   UNL     1     -10.732   6.501  74.001  1.00  0.00    -0.452 OA 
HETATM   20  C   UNL     1     -10.541   7.467  73.057  1.00  0.00    -0.368 A  
HETATM   21  C   UNL     1     -11.582   8.304  72.652  1.00  0.00    -0.419 A  
HETATM   22  C   UNL     1      -9.268   7.591  72.515  1.00  0.00    -0.192 A  
HETATM   23  H   UNL     1     -10.023   5.932  74.276  1.00  0.00     0.000 HD 
HETATM   24  C   UNL     1      -9.039   8.571  71.558  1.00  0.00    -0.216 A  
HETATM   25  O   UNL     1      -7.811   8.745  70.993  1.00  0.00    -0.098 OA 
HETATM   26  C   UNL     1     -10.063   9.417  71.144  1.00  0.00    -0.335 A  
HETATM   27  H   UNL     1      -7.654   9.416  70.339  1.00  0.00     0.000 HD 
ENDBRANCH  15  18
ENDBRANCH  14  15
ENDBRANCH  12  14
ENDBRANCH   2  12
TORSDOF 6
ENDMDL
MODEL       94
REMARK 921   NORMALIZED FREE ENERGY PREDICTED BY IDOCK:   -6.08 KCAL/MOL
REMARK 922        TOTAL FREE ENERGY PREDICTED BY IDOCK:   -8.82 KCAL/MOL
REMARK 923 INTER-LIGAND FREE ENERGY PREDICTED BY IDOCK:   -6.85 KCAL/MOL
REMARK 924 INTRA-LIGAND FREE ENERGY PREDICTED BY IDOCK:   -1.97 KCAL/MOL
REMARK 927      BINDING AFFINITY PREDICTED BY RF-SCORE:    0.00 PKD
ROOT
HETATM    1  C   UNL     1     -12.892  12.875  71.846  1.00  0.00    -0.315 C  
HETATM    2  C   UNL     1     -12.178  13.021  70.495  1.00  0.00    -0.313 C  
ENDROOT
BRANCH   2   3
HETATM    3  C   UNL     1     -11.212  14.234  70.584  1.00  0.00     0.108 C  
BRANCH   3   4
HETATM    4  C   UNL     1     -10.649  14.700  69.261  1.00  0.00    -0.236 A  
HETATM    5  C   UNL     1      -8.859  14.670  67.619  1.00  0.00    -0.184 A  
HETATM    6  H   UNL     1      -8.213  15.541  65.323  1.00  0.00     0.000 HD 
HETATM    7  C   UNL     1     -11.380  15.558  68.427  1.00  0.00    -0.357 A  
HETATM    8  C   UNL     1      -9.381  14.267  68.848  1.00  0.00    -0.054 A  
HETATM    9  C   UNL     1     -10.857  15.964  67.196  1.00  0.00    -0.267 A  
HETATM   10  O   UNL     1      -9.068  15.854  65.594  1.00  0.00    -0.311 OA 
HETATM   11  C   UNL     1      -9.604  15.507  66.799  1.00  0.00    -0.235 A  
ENDBRANCH   3   4
ENDBRANCH   2   3
BRANCH   2  12
HETATM   12  N   UNL     1     -11.458  11.795  70.118  1.00  0.00    -0.510 NA 
HETATM   13  H   UNL     1     -11.473  11.123  70.885  1.00  0.00     0.000 HD 
BRANCH  12  14
HETATM   14  C   UNL     1     -11.938  11.170  68.881  1.00  0.00    -0.298 C  
BRANCH  14  15
HETATM   15  C   UNL     1     -10.794  10.959  67.854  1.00  0.00    -0.247 C  
HETATM   16  H   UNL     1      -9.994   9.445  66.870  1.00  0.00     0.000 HD 
HETATM   17  O   UNL     1     -10.694   9.574  67.499  1.00  0.00    -0.282 OA 
BRANCH  15  18
HETATM   18  C   UNL     1     -11.012  11.785  66.600  1.00  0.00    -0.342 A  
HETATM   19  O   UNL     1     -13.437  14.163  65.178  1.00  0.00    -0.502 OA 
HETATM   20  C   UNL     1     -12.350  13.351  65.318  1.00  0.00    -0.469 A  
HETATM   21  C   UNL     1     -12.131  12.625  66.489  1.00  0.00    -0.296 A  
HETATM   22  C   UNL     1     -11.469  13.270  64.247  1.00  0.00    -0.435 A  
HETATM   23  H   UNL     1     -13.586  14.657  64.381  1.00  0.00     0.000 HD 
HETATM   24  C   UNL     1     -10.357  12.445  64.354  1.00  0.00    -0.343 A  
HETATM   25  O   UNL     1      -9.459  12.319  63.336  1.00  0.00    -0.673 OA 
HETATM   26  C   UNL     1     -10.123  11.710  65.513  1.00  0.00    -0.285 A  
HETATM   27  H   UNL     1      -8.699  11.754  63.410  1.00  0.00     0.000 HD 
ENDBRANCH  15  18
ENDBRANCH  14  15
ENDBRANCH  12  14
ENDBRANCH   2  12
TORSDOF 6
ENDMDL
MODEL       95
REMARK 921   NORMALIZED FREE ENERGY PREDICTED BY IDOCK:   -6.08 KCAL/MOL
REMARK 922        TOTAL FREE ENERGY PREDICTED BY IDOCK:   -8.82 KCAL/MOL
REMARK 923 INTER-LIGAND FREE ENERGY PREDICTED BY IDOCK:   -8.23 KCAL/MOL
REMARK 924 INTRA-LIGAND FREE ENERGY PREDICTED BY IDOCK:   -0.59 KCAL/MOL
REMARK 927      BINDING AFFINITY PREDICTED BY RF-SCORE:    0.00 PKD
ROOT
HETATM    1  C   UNL     1     -12.378  15.295  70.292  1.00  0.00    -0.407 C  
HETATM    2  C   UNL     1     -12.108  13.951  69.601  1.00  0.00    -0.349 C  
ENDROOT
BRANCH   2   3
HETATM    3  C   UNL     1     -10.935  14.145  68.602  1.00  0.00    -0.275 C  
BRANCH   3   4
HETATM    4  C   UNL     1     -11.317  14.043  67.143  1.00  0.00    -0.348 A  
HETATM    5  C   UNL     1     -12.434  12.846  65.348  1.00  0.00    -0.511 A  
HETATM    6  H   UNL     1     -13.006  12.988  62.878  1.00  0.00     0.000 HD 
HETATM    7  C   UNL     1     -10.955  15.044  66.230  1.00  0.00    -0.338 A  
HETATM    8  C   UNL     1     -12.054  12.940  66.686  1.00  0.00    -0.360 A  
HETATM    9  C   UNL     1     -11.334  14.949  64.888  1.00  0.00    -0.415 A  
HETATM   10  O   UNL     1     -12.496  13.736  63.168  1.00  0.00    -0.786 OA 
HETATM   11  C   UNL     1     -12.080  13.854  64.461  1.00  0.00    -0.443 A  
ENDBRANCH   3   4
ENDBRANCH   2   3
BRANCH   2  12
HETATM   12  N   UNL     1     -11.809  12.885  70.571  1.00  0.00    -0.535 NA 
HETATM   13  H   UNL     1     -12.326  13.036  71.437  1.00  0.00     0.000 HD 
BRANCH  12  14
HETATM   14  C   UNL     1     -12.042  11.528  70.066  1.00  0.00    -0.331 C  
BRANCH  14  15
HETATM   15  C   UNL     1     -12.545  10.571  71.179  1.00  0.00    -0.417 C  
HETATM   16  H   UNL     1     -14.076   9.355  71.458  1.00  0.00     0.000 HD 
HETATM   17  O   UNL     1     -13.768   9.941  70.777  1.00  0.00    -0.187 OA 
BRANCH  15  18
HETATM   18  C   UNL     1     -11.515   9.506  71.505  1.00  0.00    -0.466 A  
HETATM   19  O   UNL     1      -8.043   8.596  70.681  1.00  0.00    -0.097 OA 
HETATM   20  C   UNL     1      -9.296   8.566  71.220  1.00  0.00    -0.203 A  
HETATM   21  C   UNL     1     -10.228   9.570  70.950  1.00  0.00    -0.356 A  
HETATM   22  C   UNL     1      -9.613   7.495  72.045  1.00  0.00    -0.189 A  
HETATM   23  H   UNL     1      -7.410   7.913  70.865  1.00  0.00     0.000 HD 
HETATM   24  C   UNL     1     -10.884   7.431  72.602  1.00  0.00    -0.303 A  
HETATM   25  O   UNL     1     -11.256   6.403  73.416  1.00  0.00    -0.467 OA 
HETATM   26  C   UNL     1     -11.827   8.420  72.343  1.00  0.00    -0.452 A  
HETATM   27  H   UNL     1     -12.126   6.358  73.796  1.00  0.00     0.000 HD 
ENDBRANCH  15  18
ENDBRANCH  14  15
ENDBRANCH  12  14
ENDBRANCH   2  12
TORSDOF 6
ENDMDL
MODEL       96
REMARK 921   NORMALIZED FREE ENERGY PREDICTED BY IDOCK:   -6.06 KCAL/MOL
REMARK 922        TOTAL FREE ENERGY PREDICTED BY IDOCK:   -8.80 KCAL/MOL
REMARK 923 INTER-LIGAND FREE ENERGY PREDICTED BY IDOCK:   -8.68 KCAL/MOL
REMARK 924 INTRA-LIGAND FREE ENERGY PREDICTED BY IDOCK:   -0.12 KCAL/MOL
REMARK 927      BINDING AFFINITY PREDICTED BY RF-SCORE:    0.00 PKD
ROOT
HETATM    1  C   UNL     1     -11.258  16.481  68.453  1.00  0.00    -0.280 C  
HETATM    2  C   UNL     1     -10.784  15.101  67.973  1.00  0.00    -0.264 C  
ENDROOT
BRANCH   2   3
HETATM    3  C   UNL     1     -11.271  14.038  68.994  1.00  0.00    -0.311 C  
BRANCH   3   4
HETATM    4  C   UNL     1     -11.908  14.598  70.245  1.00  0.00    -0.363 A  
HETATM    5  C   UNL     1     -11.696  15.806  72.342  1.00  0.00    -0.577 A  
HETATM    6  H   UNL     1     -13.045  16.716  74.292  1.00  0.00     0.000 HD 
HETATM    7  C   UNL     1     -13.286  14.475  70.473  1.00  0.00    -0.136 A  
HETATM    8  C   UNL     1     -11.119  15.263  71.195  1.00  0.00    -0.328 A  
HETATM    9  C   UNL     1     -13.865  15.017  71.623  1.00  0.00    -0.571 A  
HETATM   10  O   UNL     1     -13.592  16.258  73.664  1.00  0.00    -0.618 OA 
HETATM   11  C   UNL     1     -13.064  15.688  72.543  1.00  0.00    -0.472 A  
ENDBRANCH   3   4
ENDBRANCH   2   3
BRANCH   2  12
HETATM   12  N   UNL     1     -11.264  14.797  66.617  1.00  0.00    -0.341 NA 
HETATM   13  H   UNL     1     -10.546  14.303  66.087  1.00  0.00     0.000 HD 
BRANCH  12  14
HETATM   14  C   UNL     1     -12.530  14.056  66.577  1.00  0.00    -0.311 C  
BRANCH  14  15
HETATM   15  C   UNL     1     -12.722  13.305  65.233  1.00  0.00    -0.412 C  
HETATM   16  H   UNL     1     -12.763  13.764  63.313  1.00  0.00     0.000 HD 
HETATM   17  O   UNL     1     -12.645  14.224  64.136  1.00  0.00    -0.689 OA 
BRANCH  15  18
HETATM   18  C   UNL     1     -11.684  12.214  65.050  1.00  0.00    -0.371 A  
HETATM   19  O   UNL     1      -9.605   9.936  67.063  1.00  0.00    -0.164 OA 
HETATM   20  C   UNL     1     -10.158  10.582  65.996  1.00  0.00    -0.256 A  
HETATM   21  C   UNL     1     -11.143  11.555  66.165  1.00  0.00    -0.302 A  
HETATM   22  C   UNL     1      -9.700  10.236  64.730  1.00  0.00    -0.397 A  
HETATM   23  H   UNL     1      -8.935   9.274  66.947  1.00  0.00     0.000 HD 
HETATM   24  C   UNL     1     -10.236  10.882  63.624  1.00  0.00    -0.332 A  
HETATM   25  O   UNL     1      -9.824  10.590  62.358  1.00  0.00    -0.661 OA 
HETATM   26  C   UNL     1     -11.217  11.857  63.773  1.00  0.00    -0.519 A  
HETATM   27  H   UNL     1     -10.191  11.032  61.600  1.00  0.00     0.000 HD 
ENDBRANCH  15  18
ENDBRANCH  14  15
ENDBRANCH  12  14
ENDBRANCH   2  12
TORSDOF 6
ENDMDL
MODEL       97
REMARK 921   NORMALIZED FREE ENERGY PREDICTED BY IDOCK:   -6.05 KCAL/MOL
REMARK 922        TOTAL FREE ENERGY PREDICTED BY IDOCK:   -8.78 KCAL/MOL
REMARK 923 INTER-LIGAND FREE ENERGY PREDICTED BY IDOCK:   -8.26 KCAL/MOL
REMARK 924 INTRA-LIGAND FREE ENERGY PREDICTED BY IDOCK:   -0.52 KCAL/MOL
REMARK 927      BINDING AFFINITY PREDICTED BY RF-SCORE:    0.00 PKD
ROOT
HETATM    1  C   UNL     1     -10.403  10.622  65.373  1.00  0.00    -0.303 C  
HETATM    2  C   UNL     1     -11.031  11.583  66.392  1.00  0.00    -0.284 C  
ENDROOT
BRANCH   2   3
HETATM    3  C   UNL     1     -12.021  12.511  65.638  1.00  0.00    -0.492 C  
BRANCH   3   4
HETATM    4  C   UNL     1     -11.611  13.965  65.575  1.00  0.00    -0.332 A  
HETATM    5  C   UNL     1     -11.521  16.064  64.356  1.00  0.00    -0.246 A  
HETATM    6  H   UNL     1     -10.804  18.491  64.568  1.00  0.00     0.000 HD 
HETATM    7  C   UNL     1     -10.979  14.586  66.661  1.00  0.00    -0.321 A  
HETATM    8  C   UNL     1     -11.872  14.716  64.419  1.00  0.00    -0.405 A  
HETATM    9  C   UNL     1     -10.626  15.937  66.597  1.00  0.00    -0.305 A  
HETATM   10  O   UNL     1     -10.610  17.993  65.353  1.00  0.00    -0.648 OA 
HETATM   11  C   UNL     1     -10.910  16.667  65.447  1.00  0.00    -0.173 A  
ENDBRANCH   3   4
ENDBRANCH   2   3
BRANCH   2  12
HETATM   12  N   UNL     1     -11.703  10.864  67.484  1.00  0.00    -0.559 NA 
HETATM   13  H   UNL     1     -12.369  10.188  67.110  1.00  0.00     0.000 HD 
BRANCH  12  14
HETATM   14  C   UNL     1     -10.790  10.212  68.429  1.00  0.00    -0.242 C  
BRANCH  14  15
HETATM   15  C   UNL     1     -11.066  10.640  69.895  1.00  0.00    -0.298 C  
HETATM   16  H   UNL     1     -12.113  12.035  70.821  1.00  0.00     0.000 HD 
HETATM   17  O   UNL     1     -11.944  11.773  69.924  1.00  0.00    -0.312 OA 
BRANCH  15  18
HETATM   18  C   UNL     1     -11.677   9.509  70.700  1.00  0.00    -0.330 A  
HETATM   19  O   UNL     1     -14.194   8.964  73.332  1.00  0.00    -1.241 OA 
HETATM   20  C   UNL     1     -13.220   8.734  72.405  1.00  0.00    -0.394 A  
HETATM   21  C   UNL     1     -12.689   9.771  71.636  1.00  0.00    -0.517 A  
HETATM   22  C   UNL     1     -12.771   7.428  72.257  1.00  0.00    -0.038 A  
HETATM   23  H   UNL     1     -14.555   8.259  73.855  1.00  0.00     0.000 HD 
HETATM   24  C   UNL     1     -11.774   7.163  71.328  1.00  0.00    -0.306 A  
HETATM   25  O   UNL     1     -11.289   5.903  71.140  1.00  0.00    -0.262 OA 
HETATM   26  C   UNL     1     -11.230   8.184  70.554  1.00  0.00    -0.249 A  
HETATM   27  H   UNL     1     -10.606   5.722  70.505  1.00  0.00     0.000 HD 
ENDBRANCH  15  18
ENDBRANCH  14  15
ENDBRANCH  12  14
ENDBRANCH   2  12
TORSDOF 6
ENDMDL
MODEL       98
REMARK 921   NORMALIZED FREE ENERGY PREDICTED BY IDOCK:   -6.03 KCAL/MOL
REMARK 922        TOTAL FREE ENERGY PREDICTED BY IDOCK:   -8.76 KCAL/MOL
REMARK 923 INTER-LIGAND FREE ENERGY PREDICTED BY IDOCK:   -7.56 KCAL/MOL
REMARK 924 INTRA-LIGAND FREE ENERGY PREDICTED BY IDOCK:   -1.20 KCAL/MOL
REMARK 927      BINDING AFFINITY PREDICTED BY RF-SCORE:    0.00 PKD
ROOT
HETATM    1  C   UNL     1     -11.761  12.685  64.161  1.00  0.00    -0.468 C  
HETATM    2  C   UNL     1     -11.226  13.025  65.559  1.00  0.00    -0.288 C  
ENDROOT
BRANCH   2   3
HETATM    3  C   UNL     1     -11.664  14.472  65.910  1.00  0.00    -0.345 C  
BRANCH   3   4
HETATM    4  C   UNL     1     -10.531  15.437  66.170  1.00  0.00    -0.325 A  
HETATM    5  C   UNL     1      -9.739  17.721  66.418  1.00  0.00    -0.315 A  
HETATM    6  H   UNL     1      -7.675  19.091  66.974  1.00  0.00     0.000 HD 
HETATM    7  C   UNL     1      -9.234  14.975  66.436  1.00  0.00    -0.328 A  
HETATM    8  C   UNL     1     -10.770  16.819  66.156  1.00  0.00    -0.116 A  
HETATM    9  C   UNL     1      -8.200  15.878  66.698  1.00  0.00    -0.317 A  
HETATM   10  O   UNL     1      -7.493  18.159  66.974  1.00  0.00    -0.200 OA 
HETATM   11  C   UNL     1      -8.465  17.244  66.696  1.00  0.00    -0.260 A  
ENDBRANCH   3   4
ENDBRANCH   2   3
BRANCH   2  12
HETATM   12  N   UNL     1     -11.693  12.067  66.573  1.00  0.00    -0.575 NA 
HETATM   13  H   UNL     1     -11.735  11.126  66.183  1.00  0.00     0.000 HD 
BRANCH  12  14
HETATM   14  C   UNL     1     -10.909  12.072  67.814  1.00  0.00    -0.215 C  
BRANCH  14  15
HETATM   15  C   UNL     1     -11.792  11.800  69.060  1.00  0.00    -0.317 C  
HETATM   16  H   UNL     1     -11.737  10.619  70.642  1.00  0.00     0.000 HD 
HETATM   17  O   UNL     1     -11.197  10.785  69.879  1.00  0.00    -0.269 OA 
BRANCH  15  18
HETATM   18  C   UNL     1     -11.993  13.057  69.886  1.00  0.00    -0.381 A  
HETATM   19  O   UNL     1     -13.741  14.182  72.925  1.00  0.00    -0.658 OA 
HETATM   20  C   UNL     1     -12.983  14.188  71.791  1.00  0.00    -0.348 A  
HETATM   21  C   UNL     1     -12.765  13.021  71.057  1.00  0.00    -0.347 A  
HETATM   22  C   UNL     1     -12.436  15.400  71.391  1.00  0.00    -0.457 A  
HETATM   23  H   UNL     1     -13.889  14.977  73.424  1.00  0.00     0.000 HD 
HETATM   24  C   UNL     1     -11.666  15.440  70.236  1.00  0.00    -0.327 A  
HETATM   25  O   UNL     1     -11.107  16.600  69.789  1.00  0.00    -0.369 OA 
HETATM   26  C   UNL     1     -11.441  14.288  69.489  1.00  0.00    -0.336 A  
HETATM   27  H   UNL     1     -10.581  16.628  68.998  1.00  0.00     0.000 HD 
ENDBRANCH  15  18
ENDBRANCH  14  15
ENDBRANCH  12  14
ENDBRANCH   2  12
TORSDOF 6
ENDMDL
MODEL       99
REMARK 921   NORMALIZED FREE ENERGY PREDICTED BY IDOCK:   -6.02 KCAL/MOL
REMARK 922        TOTAL FREE ENERGY PREDICTED BY IDOCK:   -8.74 KCAL/MOL
REMARK 923 INTER-LIGAND FREE ENERGY PREDICTED BY IDOCK:   -7.50 KCAL/MOL
REMARK 924 INTRA-LIGAND FREE ENERGY PREDICTED BY IDOCK:   -1.24 KCAL/MOL
REMARK 927      BINDING AFFINITY PREDICTED BY RF-SCORE:    0.00 PKD
ROOT
HETATM    1  C   UNL     1      -7.783   9.232  67.588  1.00  0.00    -0.092 C  
HETATM    2  C   UNL     1      -9.144   9.733  68.092  1.00  0.00    -0.125 C  
ENDROOT
BRANCH   2   3
HETATM    3  C   UNL     1      -9.099   9.783  69.643  1.00  0.00    -0.235 C  
BRANCH   3   4
HETATM    4  C   UNL     1      -9.988   8.778  70.340  1.00  0.00    -0.219 A  
HETATM    5  C   UNL     1     -11.080   7.997  72.365  1.00  0.00    -0.416 A  
HETATM    6  H   UNL     1     -12.673   6.225  73.244  1.00  0.00     0.000 HD 
HETATM    7  C   UNL     1     -10.578   7.721  69.633  1.00  0.00    -0.242 A  
HETATM    8  C   UNL     1     -10.242   8.902  71.714  1.00  0.00    -0.414 A  
HETATM    9  C   UNL     1     -11.416   6.812  70.285  1.00  0.00    -0.414 A  
HETATM   10  O   UNL     1     -12.501   6.120  72.315  1.00  0.00    -0.236 OA 
HETATM   11  C   UNL     1     -11.667   6.965  71.646  1.00  0.00    -0.304 A  
ENDBRANCH   3   4
ENDBRANCH   2   3
BRANCH   2  12
HETATM   12  N   UNL     1      -9.491  11.046  67.528  1.00  0.00    -0.163 NA 
HETATM   13  H   UNL     1     -10.256  10.956  66.860  1.00  0.00     0.000 HD 
BRANCH  12  14
HETATM   14  C   UNL     1      -9.803  12.070  68.530  1.00  0.00    -0.172 C  
BRANCH  14  15
HETATM   15  C   UNL     1     -11.227  12.656  68.339  1.00  0.00    -0.279 C  
HETATM   16  H   UNL     1     -12.863  12.184  67.338  1.00  0.00     0.000 HD 
HETATM   17  O   UNL     1     -11.991  11.825  67.455  1.00  0.00    -0.617 OA 
BRANCH  15  18
HETATM   18  C   UNL     1     -11.958  12.787  69.662  1.00  0.00    -0.354 A  
HETATM   19  O   UNL     1     -13.295  10.671  72.363  1.00  0.00    -0.612 OA 
HETATM   20  C   UNL     1     -12.973  11.765  71.616  1.00  0.00    -0.362 A  
HETATM   21  C   UNL     1     -12.263  11.645  70.419  1.00  0.00    -0.434 A  
HETATM   22  C   UNL     1     -13.380  13.007  72.087  1.00  0.00    -0.622 A  
HETATM   23  H   UNL     1     -13.778  10.753  73.177  1.00  0.00     0.000 HD 
HETATM   24  C   UNL     1     -13.075  14.140  71.344  1.00  0.00    -0.358 A  
HETATM   25  O   UNL     1     -13.452  15.385  71.751  1.00  0.00    -0.419 OA 
HETATM   26  C   UNL     1     -12.372  14.040  70.147  1.00  0.00    -0.409 A  
HETATM   27  H   UNL     1     -13.244  16.160  71.243  1.00  0.00     0.000 HD 
ENDBRANCH  15  18
ENDBRANCH  14  15
ENDBRANCH  12  14
ENDBRANCH   2  12
TORSDOF 6
ENDMDL
MODEL      100
REMARK 921   NORMALIZED FREE ENERGY PREDICTED BY IDOCK:   -6.02 KCAL/MOL
REMARK 922        TOTAL FREE ENERGY PREDICTED BY IDOCK:   -8.74 KCAL/MOL
REMARK 923 INTER-LIGAND FREE ENERGY PREDICTED BY IDOCK:   -8.59 KCAL/MOL
REMARK 924 INTRA-LIGAND FREE ENERGY PREDICTED BY IDOCK:   -0.15 KCAL/MOL
REMARK 927      BINDING AFFINITY PREDICTED BY RF-SCORE:    0.00 PKD
ROOT
HETATM    1  C   UNL     1      -9.903  15.431  69.465  1.00  0.00    -0.262 C  
HETATM    2  C   UNL     1     -11.174  16.268  69.264  1.00  0.00    -0.312 C  
ENDROOT
BRANCH   2   3
HETATM    3  C   UNL     1     -11.116  16.908  67.851  1.00  0.00    -0.153 C  
BRANCH   3   4
HETATM    4  C   UNL     1     -10.137  18.051  67.708  1.00  0.00    -0.359 A  
HETATM    5  C   UNL     1      -9.718  20.425  67.409  1.00  0.00    -0.597 A  
HETATM    6  H   UNL     1      -7.854  22.146  67.292  1.00  0.00     0.000 HD 
HETATM    7  C   UNL     1      -8.754  17.831  67.772  1.00  0.00    -0.241 A  
HETATM    8  C   UNL     1     -10.609  19.358  67.518  1.00  0.00    -0.591 A  
HETATM    9  C   UNL     1      -7.860  18.900  67.661  1.00  0.00    -0.265 A  
HETATM   10  O   UNL     1      -7.517  21.265  67.408  1.00  0.00    -0.450 OA 
HETATM   11  C   UNL     1      -8.352  20.190  67.491  1.00  0.00    -0.332 A  
ENDBRANCH   3   4
ENDBRANCH   2   3
BRANCH   2  12
HETATM   12  N   UNL     1     -12.394  15.463  69.433  1.00  0.00    -0.592 NA 
HETATM   13  H   UNL     1     -13.042  15.633  68.664  1.00  0.00     0.000 HD 
BRANCH  12  14
HETATM   14  C   UNL     1     -12.152  14.025  69.591  1.00  0.00    -0.355 C  
BRANCH  14  15
HETATM   15  C   UNL     1     -12.629  13.503  70.971  1.00  0.00    -0.359 C  
HETATM   16  H   UNL     1     -14.242  13.664  72.100  1.00  0.00     0.000 HD 
HETATM   17  O   UNL     1     -13.950  13.984  71.255  1.00  0.00    -0.224 OA 
BRANCH  15  18
HETATM   18  C   UNL     1     -12.625  11.987  71.025  1.00  0.00    -0.370 A  
HETATM   19  O   UNL     1     -14.061   9.234  73.005  1.00  0.00    -1.016 OA 
HETATM   20  C   UNL     1     -13.345   9.916  72.066  1.00  0.00    -0.432 A  
HETATM   21  C   UNL     1     -13.384  11.309  71.992  1.00  0.00    -0.386 A  
HETATM   22  C   UNL     1     -12.570   9.172  71.185  1.00  0.00    -0.293 A  
HETATM   23  H   UNL     1     -14.034   8.286  73.055  1.00  0.00     0.000 HD 
HETATM   24  C   UNL     1     -11.822   9.837  70.223  1.00  0.00    -0.144 A  
HETATM   25  O   UNL     1     -11.039   9.163  69.334  1.00  0.00    -0.406 OA 
HETATM   26  C   UNL     1     -11.845  11.226  70.135  1.00  0.00    -0.449 A  
HETATM   27  H   UNL     1     -10.527   9.619  68.676  1.00  0.00     0.000 HD 
ENDBRANCH  15  18
ENDBRANCH  14  15
ENDBRANCH  12  14
ENDBRANCH   2  12
TORSDOF 6
ENDMDL
MODEL      101
REMARK 921   NORMALIZED FREE ENERGY PREDICTED BY IDOCK:   -6.00 KCAL/MOL
REMARK 922        TOTAL FREE ENERGY PREDICTED BY IDOCK:   -8.72 KCAL/MOL
REMARK 923 INTER-LIGAND FREE ENERGY PREDICTED BY IDOCK:   -8.35 KCAL/MOL
REMARK 924 INTRA-LIGAND FREE ENERGY PREDICTED BY IDOCK:   -0.38 KCAL/MOL
REMARK 927      BINDING AFFINITY PREDICTED BY RF-SCORE:    0.00 PKD
ROOT
HETATM    1  C   UNL     1     -11.677  10.586  70.912  1.00  0.00    -0.431 C  
HETATM    2  C   UNL     1     -12.349  11.246  69.699  1.00  0.00    -0.194 C  
ENDROOT
BRANCH   2   3
HETATM    3  C   UNL     1     -11.834  12.707  69.594  1.00  0.00    -0.379 C  
BRANCH   3   4
HETATM    4  C   UNL     1     -12.231  13.608  70.741  1.00  0.00    -0.424 A  
HETATM    5  C   UNL     1     -11.810  15.576  72.101  1.00  0.00    -0.551 A  
HETATM    6  H   UNL     1     -12.766  16.952  74.010  1.00  0.00     0.000 HD 
HETATM    7  C   UNL     1     -13.388  13.354  71.492  1.00  0.00    -0.345 A  
HETATM    8  C   UNL     1     -11.443  14.723  71.061  1.00  0.00    -0.263 A  
HETATM    9  C   UNL     1     -13.755  14.208  72.536  1.00  0.00    -0.626 A  
HETATM   10  O   UNL     1     -13.304  16.193  73.814  1.00  0.00    -0.640 OA 
HETATM   11  C   UNL     1     -12.967  15.318  72.824  1.00  0.00    -0.438 A  
ENDBRANCH   3   4
ENDBRANCH   2   3
BRANCH   2  12
HETATM   12  N   UNL     1     -12.092  10.501  68.457  1.00  0.00    -0.790 NA 
HETATM   13  H   UNL     1     -12.927  10.487  67.871  1.00  0.00     0.000 HD 
BRANCH  12  14
HETATM   14  C   UNL     1     -10.937  10.983  67.691  1.00  0.00    -0.275 C  
BRANCH  14  15
HETATM   15  C   UNL     1      -9.683  10.098  67.911  1.00  0.00    -0.146 C  
HETATM   16  H   UNL     1      -8.189  10.000  69.199  1.00  0.00     0.000 HD 
HETATM   17  O   UNL     1      -8.957  10.543  69.064  1.00  0.00    -0.166 OA 
BRANCH  15  18
HETATM   18  C   UNL     1     -10.055   8.637  68.085  1.00  0.00    -0.236 A  
HETATM   19  O   UNL     1     -11.305   5.794  66.107  1.00  0.00    -0.711 OA 
HETATM   20  C   UNL     1     -10.868   6.548  67.156  1.00  0.00    -0.401 A  
HETATM   21  C   UNL     1     -10.487   7.879  66.985  1.00  0.00    -0.419 A  
HETATM   22  C   UNL     1     -10.819   5.942  68.405  1.00  0.00    -0.322 A  
HETATM   23  H   UNL     1     -11.564   4.888  66.224  1.00  0.00     0.000 HD 
HETATM   24  C   UNL     1     -10.387   6.685  69.495  1.00  0.00    -0.202 A  
HETATM   25  O   UNL     1     -10.322   6.149  70.747  1.00  0.00    -0.197 OA 
HETATM   26  C   UNL     1     -10.006   8.015  69.346  1.00  0.00    -0.190 A  
HETATM   27  H   UNL     1     -10.027   6.658  71.493  1.00  0.00     0.000 HD 
ENDBRANCH  15  18
ENDBRANCH  14  15
ENDBRANCH  12  14
ENDBRANCH   2  12
TORSDOF 6
ENDMDL
MODEL      102
REMARK 921   NORMALIZED FREE ENERGY PREDICTED BY IDOCK:   -6.00 KCAL/MOL
REMARK 922        TOTAL FREE ENERGY PREDICTED BY IDOCK:   -8.72 KCAL/MOL
REMARK 923 INTER-LIGAND FREE ENERGY PREDICTED BY IDOCK:   -7.98 KCAL/MOL
REMARK 924 INTRA-LIGAND FREE ENERGY PREDICTED BY IDOCK:   -0.74 KCAL/MOL
REMARK 927      BINDING AFFINITY PREDICTED BY RF-SCORE:    0.00 PKD
ROOT
HETATM    1  C   UNL     1      -8.432  10.266  68.098  1.00  0.00    -0.123 C  
HETATM    2  C   UNL     1      -9.687  11.143  68.201  1.00  0.00    -0.181 C  
ENDROOT
BRANCH   2   3
HETATM    3  C   UNL     1     -10.735  10.614  67.185  1.00  0.00    -0.327 C  
BRANCH   3   4
HETATM    4  C   UNL     1     -11.236  11.639  66.193  1.00  0.00    -0.314 A  
HETATM    5  C   UNL     1     -12.349  13.751  65.747  1.00  0.00    -0.523 A  
HETATM    6  H   UNL     1     -12.996  15.333  63.868  1.00  0.00     0.000 HD 
HETATM    7  C   UNL     1     -11.037  11.469  64.816  1.00  0.00    -0.300 A  
HETATM    8  C   UNL     1     -11.903  12.786  66.648  1.00  0.00    -0.462 A  
HETATM    9  C   UNL     1     -11.486  12.436  63.911  1.00  0.00    -0.509 A  
HETATM   10  O   UNL     1     -12.557  14.556  63.543  1.00  0.00    -0.746 OA 
HETATM   11  C   UNL     1     -12.130  13.574  64.387  1.00  0.00    -0.420 A  
ENDBRANCH   3   4
ENDBRANCH   2   3
BRANCH   2  12
HETATM   12  N   UNL     1     -10.234  11.161  69.567  1.00  0.00    -0.438 NA 
HETATM   13  H   UNL     1     -10.299  12.119  69.912  1.00  0.00     0.000 HD 
BRANCH  12  14
HETATM   14  C   UNL     1     -11.524  10.477  69.710  1.00  0.00    -0.294 C  
BRANCH  14  15
HETATM   15  C   UNL     1     -11.791  10.041  71.174  1.00  0.00    -0.393 C  
HETATM   16  H   UNL     1     -13.330   9.996  72.412  1.00  0.00     0.000 HD 
HETATM   17  O   UNL     1     -13.166  10.264  71.516  1.00  0.00    -0.381 OA 
BRANCH  15  18
HETATM   18  C   UNL     1     -11.451   8.579  71.391  1.00  0.00    -0.344 A  
HETATM   19  O   UNL     1     -10.918   5.493  69.455  1.00  0.00    -0.271 OA 
HETATM   20  C   UNL     1     -11.041   6.359  70.501  1.00  0.00    -0.328 A  
HETATM   21  C   UNL     1     -11.313   7.712  70.296  1.00  0.00    -0.197 A  
HETATM   22  C   UNL     1     -10.889   5.843  71.782  1.00  0.00    -0.316 A  
HETATM   23  H   UNL     1     -10.732   4.572  69.595  1.00  0.00     0.000 HD 
HETATM   24  C   UNL     1     -11.018   6.698  72.869  1.00  0.00    -0.253 A  
HETATM   25  O   UNL     1     -10.885   6.250  74.149  1.00  0.00    -0.385 OA 
HETATM   26  C   UNL     1     -11.293   8.049  72.685  1.00  0.00    -0.469 A  
HETATM   27  H   UNL     1     -10.974   6.835  74.893  1.00  0.00     0.000 HD 
ENDBRANCH  15  18
ENDBRANCH  14  15
ENDBRANCH  12  14
ENDBRANCH   2  12
TORSDOF 6
ENDMDL
MODEL      103
REMARK 921   NORMALIZED FREE ENERGY PREDICTED BY IDOCK:   -5.99 KCAL/MOL
REMARK 922        TOTAL FREE ENERGY PREDICTED BY IDOCK:   -8.70 KCAL/MOL
REMARK 923 INTER-LIGAND FREE ENERGY PREDICTED BY IDOCK:   -7.68 KCAL/MOL
REMARK 924 INTRA-LIGAND FREE ENERGY PREDICTED BY IDOCK:   -1.01 KCAL/MOL
REMARK 927      BINDING AFFINITY PREDICTED BY RF-SCORE:    0.00 PKD
ROOT
HETATM    1  C   UNL     1     -12.209  12.637  64.096  1.00  0.00    -0.532 C  
HETATM    2  C   UNL     1     -11.424  12.706  65.414  1.00  0.00    -0.338 C  
ENDROOT
BRANCH   2   3
HETATM    3  C   UNL     1     -12.086  13.780  66.318  1.00  0.00    -0.484 C  
BRANCH   3   4
HETATM    4  C   UNL     1     -11.176  14.912  66.736  1.00  0.00    -0.338 A  
HETATM    5  C   UNL     1      -9.287  16.364  66.262  1.00  0.00    -0.348 A  
HETATM    6  H   UNL     1      -7.984  18.343  67.177  1.00  0.00     0.000 HD 
HETATM    7  C   UNL     1     -11.374  15.590  67.947  1.00  0.00    -0.309 A  
HETATM    8  C   UNL     1     -10.120  15.306  65.901  1.00  0.00    -0.359 A  
HETATM    9  C   UNL     1     -10.538  16.650  68.310  1.00  0.00    -0.338 A  
HETATM   10  O   UNL     1      -8.688  18.081  67.759  1.00  0.00    -0.245 OA 
HETATM   11  C   UNL     1      -9.508  17.034  67.458  1.00  0.00    -0.246 A  
ENDBRANCH   3   4
ENDBRANCH   2   3
BRANCH   2  12
HETATM   12  N   UNL     1     -11.371  11.401  66.090  1.00  0.00    -0.238 NA 
HETATM   13  H   UNL     1     -10.909  10.711  65.498  1.00  0.00     0.000 HD 
BRANCH  12  14
HETATM   14  C   UNL     1     -10.749  11.434  67.418  1.00  0.00    -0.232 C  
BRANCH  14  15
HETATM   15  C   UNL     1     -11.356  10.371  68.372  1.00  0.00    -0.227 C  
HETATM   16  H   UNL     1     -10.721   8.781  69.357  1.00  0.00     0.000 HD 
HETATM   17  O   UNL     1     -10.350   9.432  68.773  1.00  0.00    -0.198 OA 
BRANCH  15  18
HETATM   18  C   UNL     1     -11.966  11.012  69.605  1.00  0.00    -0.424 A  
HETATM   19  O   UNL     1     -13.779  10.065  72.666  1.00  0.00    -0.628 OA 
HETATM   20  C   UNL     1     -13.170  10.813  71.702  1.00  0.00    -0.383 A  
HETATM   21  C   UNL     1     -12.573  10.217  70.589  1.00  0.00    -0.391 A  
HETATM   22  C   UNL     1     -13.167  12.192  71.866  1.00  0.00    -0.474 A  
HETATM   23  H   UNL     1     -14.185  10.470  73.423  1.00  0.00     0.000 HD 
HETATM   24  C   UNL     1     -12.562  12.981  70.897  1.00  0.00    -0.280 A  
HETATM   25  O   UNL     1     -12.531  14.340  70.999  1.00  0.00    -0.315 OA 
HETATM   26  C   UNL     1     -11.965  12.407  69.779  1.00  0.00    -0.359 A  
HETATM   27  H   UNL     1     -12.118  14.881  70.336  1.00  0.00     0.000 HD 
ENDBRANCH  15  18
ENDBRANCH  14  15
ENDBRANCH  12  14
ENDBRANCH   2  12
TORSDOF 6
ENDMDL
MODEL      104
REMARK 921   NORMALIZED FREE ENERGY PREDICTED BY IDOCK:   -5.98 KCAL/MOL
REMARK 922        TOTAL FREE ENERGY PREDICTED BY IDOCK:   -8.68 KCAL/MOL
REMARK 923 INTER-LIGAND FREE ENERGY PREDICTED BY IDOCK:   -8.34 KCAL/MOL
REMARK 924 INTRA-LIGAND FREE ENERGY PREDICTED BY IDOCK:   -0.34 KCAL/MOL
REMARK 927      BINDING AFFINITY PREDICTED BY RF-SCORE:    0.00 PKD
ROOT
HETATM    1  C   UNL     1      -7.485  12.180  67.250  1.00  0.00    -0.152 C  
HETATM    2  C   UNL     1      -8.861  12.326  67.914  1.00  0.00    -0.178 C  
ENDROOT
BRANCH   2   3
HETATM    3  C   UNL     1      -9.950  12.032  66.848  1.00  0.00    -0.218 C  
BRANCH   3   4
HETATM    4  C   UNL     1     -10.438  13.242  66.084  1.00  0.00    -0.296 A  
HETATM    5  C   UNL     1     -10.216  15.595  65.524  1.00  0.00    -0.414 A  
HETATM    6  H   UNL     1     -11.195  17.421  64.055  1.00  0.00     0.000 HD 
HETATM    7  C   UNL     1     -11.529  13.152  65.208  1.00  0.00    -0.328 A  
HETATM    8  C   UNL     1      -9.792  14.477  66.240  1.00  0.00    -0.322 A  
HETATM    9  C   UNL     1     -11.957  14.273  64.491  1.00  0.00    -0.478 A  
HETATM   10  O   UNL     1     -11.652  16.595  63.947  1.00  0.00    -1.204 OA 
HETATM   11  C   UNL     1     -11.288  15.484  64.649  1.00  0.00    -0.357 A  
ENDBRANCH   3   4
ENDBRANCH   2   3
BRANCH   2  12
HETATM   12  N   UNL     1      -9.005  11.440  69.079  1.00  0.00    -0.389 NA 
HETATM   13  H   UNL     1      -9.569  11.888  69.801  1.00  0.00     0.000 HD 
BRANCH  12  14
HETATM   14  C   UNL     1      -9.541  10.111  68.764  1.00  0.00    -0.170 C  
BRANCH  14  15
HETATM   15  C   UNL     1      -9.584   9.190  70.012  1.00  0.00    -0.197 C  
HETATM   16  H   UNL     1      -8.609   9.023  71.721  1.00  0.00     0.000 HD 
HETATM   17  O   UNL     1      -8.582   9.587  70.957  1.00  0.00    -0.273 OA 
BRANCH  15  18
HETATM   18  C   UNL     1     -10.946   9.222  70.681  1.00  0.00    -0.336 A  
HETATM   19  O   UNL     1     -13.401  11.650  71.960  1.00  0.00    -0.481 OA 
HETATM   20  C   UNL     1     -12.791  10.472  71.639  1.00  0.00    -0.475 A  
HETATM   21  C   UNL     1     -11.558  10.447  70.986  1.00  0.00    -0.384 A  
HETATM   22  C   UNL     1     -13.442   9.297  71.989  1.00  0.00    -0.519 A  
HETATM   23  H   UNL     1     -14.240  11.667  72.404  1.00  0.00     0.000 HD 
HETATM   24  C   UNL     1     -12.844   8.082  71.683  1.00  0.00    -0.329 A  
HETATM   25  O   UNL     1     -13.431   6.894  72.005  1.00  0.00    -0.538 OA 
HETATM   26  C   UNL     1     -11.613   8.036  71.036  1.00  0.00    -0.303 A  
HETATM   27  H   UNL     1     -13.021   6.063  71.797  1.00  0.00     0.000 HD 
ENDBRANCH  15  18
ENDBRANCH  14  15
ENDBRANCH  12  14
ENDBRANCH   2  12
TORSDOF 6
ENDMDL
MODEL      105
REMARK 921   NORMALIZED FREE ENERGY PREDICTED BY IDOCK:   -5.98 KCAL/MOL
REMARK 922        TOTAL FREE ENERGY PREDICTED BY IDOCK:   -8.68 KCAL/MOL
REMARK 923 INTER-LIGAND FREE ENERGY PREDICTED BY IDOCK:   -7.88 KCAL/MOL
REMARK 924 INTRA-LIGAND FREE ENERGY PREDICTED BY IDOCK:   -0.80 KCAL/MOL
REMARK 927      BINDING AFFINITY PREDICTED BY RF-SCORE:    0.00 PKD
ROOT
HETATM    1  C   UNL     1     -12.143  14.374  64.444  1.00  0.00    -0.491 C  
HETATM    2  C   UNL     1     -10.973  14.272  65.433  1.00  0.00    -0.333 C  
ENDROOT
BRANCH   2   3
HETATM    3  C   UNL     1     -11.144  15.384  66.504  1.00  0.00    -0.227 C  
BRANCH   3   4
HETATM    4  C   UNL     1     -10.041  16.417  66.533  1.00  0.00    -0.304 A  
HETATM    5  C   UNL     1      -7.683  16.969  66.345  1.00  0.00    -0.350 A  
HETATM    6  H   UNL     1      -6.061  18.923  66.357  1.00  0.00     0.000 HD 
HETATM    7  C   UNL     1     -10.327  17.774  66.737  1.00  0.00    -0.343 A  
HETATM    8  C   UNL     1      -8.708  16.024  66.345  1.00  0.00    -0.362 A  
HETATM    9  C   UNL     1      -9.300  18.722  66.739  1.00  0.00    -0.330 A  
HETATM   10  O   UNL     1      -6.958  19.204  66.498  1.00  0.00    -0.199 OA 
HETATM   11  C   UNL     1      -7.987  18.310  66.533  1.00  0.00    -0.268 A  
ENDBRANCH   3   4
ENDBRANCH   2   3
BRANCH   2  12
HETATM   12  N   UNL     1     -10.894  12.942  66.056  1.00  0.00    -0.276 NA 
HETATM   13  H   UNL     1      -9.930  12.722  66.306  1.00  0.00     0.000 HD 
BRANCH  12  14
HETATM   14  C   UNL     1     -11.777  12.764  67.214  1.00  0.00    -0.378 C  
BRANCH  14  15
HETATM   15  C   UNL     1     -11.002  12.278  68.466  1.00  0.00    -0.240 C  
HETATM   16  H   UNL     1      -9.270  12.660  69.334  1.00  0.00     0.000 HD 
HETATM   17  O   UNL     1      -9.744  12.958  68.567  1.00  0.00    -0.206 OA 
BRANCH  15  18
HETATM   18  C   UNL     1     -11.799  12.504  69.738  1.00  0.00    -0.380 A  
HETATM   19  O   UNL     1     -13.434  10.581  72.418  1.00  0.00    -0.606 OA 
HETATM   20  C   UNL     1     -12.994  11.624  71.657  1.00  0.00    -0.378 A  
HETATM   21  C   UNL     1     -12.225  11.414  70.511  1.00  0.00    -0.478 A  
HETATM   22  C   UNL     1     -13.342  12.906  72.063  1.00  0.00    -0.579 A  
HETATM   23  H   UNL     1     -13.957  10.724  73.198  1.00  0.00     0.000 HD 
HETATM   24  C   UNL     1     -12.917  13.988  71.304  1.00  0.00    -0.347 A  
HETATM   25  O   UNL     1     -13.231  15.269  71.648  1.00  0.00    -0.376 OA 
HETATM   26  C   UNL     1     -12.153  13.799  70.157  1.00  0.00    -0.429 A  
HETATM   27  H   UNL     1     -12.941  16.010  71.129  1.00  0.00     0.000 HD 
ENDBRANCH  15  18
ENDBRANCH  14  15
ENDBRANCH  12  14
ENDBRANCH   2  12
TORSDOF 6
ENDMDL
MODEL      106
REMARK 921   NORMALIZED FREE ENERGY PREDICTED BY IDOCK:   -5.97 KCAL/MOL
REMARK 922        TOTAL FREE ENERGY PREDICTED BY IDOCK:   -8.67 KCAL/MOL
REMARK 923 INTER-LIGAND FREE ENERGY PREDICTED BY IDOCK:   -8.09 KCAL/MOL
REMARK 924 INTRA-LIGAND FREE ENERGY PREDICTED BY IDOCK:   -0.58 KCAL/MOL
REMARK 927      BINDING AFFINITY PREDICTED BY RF-SCORE:    0.00 PKD
ROOT
HETATM    1  C   UNL     1     -10.818  12.660  66.460  1.00  0.00    -0.285 C  
HETATM    2  C   UNL     1     -11.703  12.872  67.697  1.00  0.00    -0.370 C  
ENDROOT
BRANCH   2   3
HETATM    3  C   UNL     1     -10.863  12.538  68.959  1.00  0.00    -0.183 C  
BRANCH   3   4
HETATM    4  C   UNL     1     -11.522  11.586  69.931  1.00  0.00    -0.340 A  
HETATM    5  C   UNL     1     -13.126  11.189  71.712  1.00  0.00    -0.536 A  
HETATM    6  H   UNL     1     -14.120   9.354  73.159  1.00  0.00     0.000 HD 
HETATM    7  C   UNL     1     -11.187  10.225  69.949  1.00  0.00    -0.360 A  
HETATM    8  C   UNL     1     -12.492  12.060  70.826  1.00  0.00    -0.372 A  
HETATM    9  C   UNL     1     -11.820   9.351  70.838  1.00  0.00    -0.365 A  
HETATM   10  O   UNL     1     -13.456   9.020  72.568  1.00  0.00    -0.454 OA 
HETATM   11  C   UNL     1     -12.792   9.841  71.705  1.00  0.00    -0.421 A  
ENDBRANCH   3   4
ENDBRANCH   2   3
BRANCH   2  12
HETATM   12  N   UNL     1     -12.238  14.240  67.761  1.00  0.00    -0.598 NA 
HETATM   13  H   UNL     1     -12.630  14.427  68.684  1.00  0.00     0.000 HD 
BRANCH  12  14
HETATM   14  C   UNL     1     -11.275  15.283  67.393  1.00  0.00    -0.311 C  
BRANCH  14  15
HETATM   15  C   UNL     1     -11.247  16.440  68.426  1.00  0.00    -0.324 C  
HETATM   16  H   UNL     1     -11.016  16.632  70.378  1.00  0.00     0.000 HD 
HETATM   17  O   UNL     1     -11.033  15.923  69.745  1.00  0.00    -0.272 OA 
BRANCH  15  18
HETATM   18  C   UNL     1     -10.165  17.452  68.100  1.00  0.00    -0.350 A  
HETATM   19  O   UNL     1      -6.652  18.184  68.927  1.00  0.00    -0.224 OA 
HETATM   20  C   UNL     1      -7.901  18.278  68.388  1.00  0.00    -0.305 A  
HETATM   21  C   UNL     1      -8.883  17.323  68.656  1.00  0.00    -0.261 A  
HETATM   22  C   UNL     1      -8.163  19.365  67.563  1.00  0.00    -0.321 A  
HETATM   23  H   UNL     1      -5.984  18.834  68.745  1.00  0.00     0.000 HD 
HETATM   24  C   UNL     1      -9.429  19.494  67.006  1.00  0.00    -0.337 A  
HETATM   25  O   UNL     1      -9.748  20.540  66.193  1.00  0.00    -0.648 OA 
HETATM   26  C   UNL     1     -10.421  18.553  67.264  1.00  0.00    -0.455 A  
HETATM   27  H   UNL     1     -10.614  20.629  65.812  1.00  0.00     0.000 HD 
ENDBRANCH  15  18
ENDBRANCH  14  15
ENDBRANCH  12  14
ENDBRANCH   2  12
TORSDOF 6
ENDMDL
MODEL      107
REMARK 921   NORMALIZED FREE ENERGY PREDICTED BY IDOCK:   -5.95 KCAL/MOL
REMARK 922        TOTAL FREE ENERGY PREDICTED BY IDOCK:   -8.64 KCAL/MOL
REMARK 923 INTER-LIGAND FREE ENERGY PREDICTED BY IDOCK:   -6.67 KCAL/MOL
REMARK 924 INTRA-LIGAND FREE ENERGY PREDICTED BY IDOCK:   -1.97 KCAL/MOL
REMARK 927      BINDING AFFINITY PREDICTED BY RF-SCORE:    0.00 PKD
ROOT
HETATM    1  C   UNL     1      -8.022   9.826  68.133  1.00  0.00    -0.100 C  
HETATM    2  C   UNL     1      -8.366  11.235  67.631  1.00  0.00    -0.123 C  
ENDROOT
BRANCH   2   3
HETATM    3  C   UNL     1      -9.873  11.493  67.898  1.00  0.00    -0.192 C  
BRANCH   3   4
HETATM    4  C   UNL     1     -10.569  12.343  66.860  1.00  0.00    -0.251 A  
HETATM    5  C   UNL     1     -10.647  13.256  64.610  1.00  0.00    -0.421 A  
HETATM    6  H   UNL     1     -12.077  14.661  63.051  1.00  0.00     0.000 HD 
HETATM    7  C   UNL     1     -11.784  12.982  67.145  1.00  0.00    -0.439 A  
HETATM    8  C   UNL     1     -10.004  12.494  65.585  1.00  0.00    -0.259 A  
HETATM    9  C   UNL     1     -12.429  13.746  66.168  1.00  0.00    -0.466 A  
HETATM   10  O   UNL     1     -12.467  14.579  63.914  1.00  0.00    -0.814 OA 
HETATM   11  C   UNL     1     -11.858  13.868  64.905  1.00  0.00    -0.387 A  
ENDBRANCH   3   4
ENDBRANCH   2   3
BRANCH   2  12
HETATM   12  N   UNL     1      -7.529  12.264  68.268  1.00  0.00    -0.110 NA 
HETATM   13  H   UNL     1      -6.810  11.830  68.848  1.00  0.00     0.000 HD 
BRANCH  12  14
HETATM   14  C   UNL     1      -6.925  13.217  67.331  1.00  0.00    -0.107 C  
BRANCH  14  15
HETATM   15  C   UNL     1      -6.862  14.651  67.918  1.00  0.00    -0.163 C  
HETATM   16  H   UNL     1      -5.852  16.313  67.573  1.00  0.00     0.000 HD 
HETATM   17  O   UNL     1      -5.890  15.434  67.213  1.00  0.00    -0.334 OA 
BRANCH  15  18
HETATM   18  C   UNL     1      -8.211  15.342  67.847  1.00  0.00    -0.151 A  
HETATM   19  O   UNL     1     -10.993  16.323  70.050  1.00  0.00    -0.343 OA 
HETATM   20  C   UNL     1     -10.229  16.135  68.936  1.00  0.00    -0.245 A  
HETATM   21  C   UNL     1      -8.970  15.537  69.011  1.00  0.00    -0.237 A  
HETATM   22  C   UNL     1     -10.752  16.558  67.721  1.00  0.00    -0.329 A  
HETATM   23  H   UNL     1     -11.850  16.730  69.999  1.00  0.00     0.000 HD 
HETATM   24  C   UNL     1     -10.002  16.373  66.567  1.00  0.00    -0.282 A  
HETATM   25  O   UNL     1     -10.463  16.762  65.345  1.00  0.00    -0.592 OA 
HETATM   26  C   UNL     1      -8.746  15.776  66.621  1.00  0.00    -0.323 A  
HETATM   27  H   UNL     1      -9.950  16.635  64.555  1.00  0.00     0.000 HD 
ENDBRANCH  15  18
ENDBRANCH  14  15
ENDBRANCH  12  14
ENDBRANCH   2  12
TORSDOF 6
ENDMDL
MODEL      108
REMARK 921   NORMALIZED FREE ENERGY PREDICTED BY IDOCK:   -5.95 KCAL/MOL
REMARK 922        TOTAL FREE ENERGY PREDICTED BY IDOCK:   -8.64 KCAL/MOL
REMARK 923 INTER-LIGAND FREE ENERGY PREDICTED BY IDOCK:   -8.38 KCAL/MOL
REMARK 924 INTRA-LIGAND FREE ENERGY PREDICTED BY IDOCK:   -0.26 KCAL/MOL
REMARK 927      BINDING AFFINITY PREDICTED BY RF-SCORE:    0.00 PKD
ROOT
HETATM    1  C   UNL     1     -12.983  10.304  71.331  1.00  0.00    -0.540 C  
HETATM    2  C   UNL     1     -11.807  10.753  70.451  1.00  0.00    -0.358 C  
ENDROOT
BRANCH   2   3
HETATM    3  C   UNL     1     -10.639   9.751  70.653  1.00  0.00    -0.382 C  
BRANCH   3   4
HETATM    4  C   UNL     1     -10.673   8.540  69.749  1.00  0.00    -0.213 A  
HETATM    5  C   UNL     1     -10.113   7.489  67.632  1.00  0.00    -0.243 A  
HETATM    6  H   UNL     1     -10.238   5.284  66.378  1.00  0.00     0.000 HD 
HETATM    7  C   UNL     1     -11.254   7.337  70.175  1.00  0.00    -0.264 A  
HETATM    8  C   UNL     1     -10.110   8.606  68.467  1.00  0.00    -0.211 A  
HETATM    9  C   UNL     1     -11.260   6.217  69.338  1.00  0.00    -0.489 A  
HETATM   10  O   UNL     1     -10.635   5.226  67.239  1.00  0.00    -0.209 OA 
HETATM   11  C   UNL     1     -10.678   6.302  68.076  1.00  0.00    -0.295 A  
ENDBRANCH   3   4
ENDBRANCH   2   3
BRANCH   2  12
HETATM   12  N   UNL     1     -12.188  10.848  69.033  1.00  0.00    -0.724 NA 
HETATM   13  H   UNL     1     -13.196  10.969  68.942  1.00  0.00     0.000 HD 
BRANCH  12  14
HETATM   14  C   UNL     1     -11.478  11.893  68.287  1.00  0.00    -0.311 C  
BRANCH  14  15
HETATM   15  C   UNL     1     -12.355  13.155  68.075  1.00  0.00     0.162 C  
HETATM   16  H   UNL     1     -12.848  14.764  69.108  1.00  0.00     0.000 HD 
HETATM   17  O   UNL     1     -12.311  13.991  69.238  1.00  0.00    -0.324 OA 
BRANCH  15  18
HETATM   18  C   UNL     1     -11.903  13.952  66.866  1.00  0.00    -0.453 A  
HETATM   19  O   UNL     1      -9.856  16.899  66.039  1.00  0.00    -0.376 OA 
HETATM   20  C   UNL     1     -10.671  15.812  65.912  1.00  0.00    -0.313 A  
HETATM   21  C   UNL     1     -11.051  15.056  67.022  1.00  0.00    -0.334 A  
HETATM   22  C   UNL     1     -11.112  15.486  64.636  1.00  0.00    -0.373 A  
HETATM   23  H   UNL     1      -9.597  17.413  65.283  1.00  0.00     0.000 HD 
HETATM   24  C   UNL     1     -11.949  14.390  64.476  1.00  0.00    -0.472 A  
HETATM   25  O   UNL     1     -12.419  14.023  63.250  1.00  0.00    -1.139 OA 
HETATM   26  C   UNL     1     -12.342  13.626  65.570  1.00  0.00    -0.519 A  
HETATM   27  H   UNL     1     -12.993  13.274  63.140  1.00  0.00     0.000 HD 
ENDBRANCH  15  18
ENDBRANCH  14  15
ENDBRANCH  12  14
ENDBRANCH   2  12
TORSDOF 6
ENDMDL
MODEL      109
REMARK 921   NORMALIZED FREE ENERGY PREDICTED BY IDOCK:   -5.94 KCAL/MOL
REMARK 922        TOTAL FREE ENERGY PREDICTED BY IDOCK:   -8.64 KCAL/MOL
REMARK 923 INTER-LIGAND FREE ENERGY PREDICTED BY IDOCK:   -7.65 KCAL/MOL
REMARK 924 INTRA-LIGAND FREE ENERGY PREDICTED BY IDOCK:   -0.99 KCAL/MOL
REMARK 927      BINDING AFFINITY PREDICTED BY RF-SCORE:    0.00 PKD
ROOT
HETATM    1  C   UNL     1     -10.588  11.164  64.156  1.00  0.00    -0.436 C  
HETATM    2  C   UNL     1     -10.388  11.515  65.637  1.00  0.00    -0.261 C  
ENDROOT
BRANCH   2   3
HETATM    3  C   UNL     1     -11.670  12.229  66.145  1.00  0.00    -0.440 C  
BRANCH   3   4
HETATM    4  C   UNL     1     -11.437  13.572  66.798  1.00  0.00    -0.374 A  
HETATM    5  C   UNL     1     -10.562  15.835  66.680  1.00  0.00    -0.307 A  
HETATM    6  H   UNL     1     -10.395  18.004  67.989  1.00  0.00     0.000 HD 
HETATM    7  C   UNL     1     -11.895  13.833  68.097  1.00  0.00    -0.411 A  
HETATM    8  C   UNL     1     -10.762  14.583  66.099  1.00  0.00    -0.310 A  
HETATM    9  C   UNL     1     -11.693  15.087  68.681  1.00  0.00    -0.363 A  
HETATM   10  O   UNL     1     -10.843  17.326  68.481  1.00  0.00    -0.332 OA 
HETATM   11  C   UNL     1     -11.036  16.080  67.961  1.00  0.00    -0.341 A  
ENDBRANCH   3   4
ENDBRANCH   2   3
BRANCH   2  12
HETATM   12  N   UNL     1     -10.085  10.326  66.448  1.00  0.00    -0.227 NA 
HETATM   13  H   UNL     1      -9.127  10.365  66.794  1.00  0.00     0.000 HD 
BRANCH  12  14
HETATM   14  C   UNL     1     -11.020  10.096  67.555  1.00  0.00    -0.255 C  
BRANCH  14  15
HETATM   15  C   UNL     1     -10.301  10.082  68.930  1.00  0.00    -0.202 C  
HETATM   16  H   UNL     1      -9.158  11.305  69.977  1.00  0.00     0.000 HD 
HETATM   17  O   UNL     1      -9.597  11.314  69.135  1.00  0.00    -0.092 OA 
BRANCH  15  18
HETATM   18  C   UNL     1     -11.281   9.867  70.069  1.00  0.00    -0.327 A  
HETATM   19  O   UNL     1     -13.630  11.780  72.162  1.00  0.00    -0.475 OA 
HETATM   20  C   UNL     1     -12.900  10.750  71.646  1.00  0.00    -0.457 A  
HETATM   21  C   UNL     1     -12.031  10.942  70.570  1.00  0.00    -0.466 A  
HETATM   22  C   UNL     1     -13.051   9.500  72.232  1.00  0.00    -0.492 A  
HETATM   23  H   UNL     1     -14.222  11.649  72.893  1.00  0.00     0.000 HD 
HETATM   24  C   UNL     1     -12.315   8.432  71.735  1.00  0.00    -0.331 A  
HETATM   25  O   UNL     1     -12.416   7.183  72.271  1.00  0.00    -0.494 OA 
HETATM   26  C   UNL     1     -11.441   8.604  70.666  1.00  0.00    -0.256 A  
HETATM   27  H   UNL     1     -11.912   6.453  71.932  1.00  0.00     0.000 HD 
ENDBRANCH  15  18
ENDBRANCH  14  15
ENDBRANCH  12  14
ENDBRANCH   2  12
TORSDOF 6
ENDMDL
MODEL      110
REMARK 921   NORMALIZED FREE ENERGY PREDICTED BY IDOCK:   -5.92 KCAL/MOL
REMARK 922        TOTAL FREE ENERGY PREDICTED BY IDOCK:   -8.60 KCAL/MOL
REMARK 923 INTER-LIGAND FREE ENERGY PREDICTED BY IDOCK:   -6.74 KCAL/MOL
REMARK 924 INTRA-LIGAND FREE ENERGY PREDICTED BY IDOCK:   -1.86 KCAL/MOL
REMARK 927      BINDING AFFINITY PREDICTED BY RF-SCORE:    0.00 PKD
ROOT
HETATM    1  C   UNL     1      -9.798  16.200  69.098  1.00  0.00    -0.250 C  
HETATM    2  C   UNL     1      -9.557  14.892  68.333  1.00  0.00    -0.209 C  
ENDROOT
BRANCH   2   3
HETATM    3  C   UNL     1      -9.537  15.214  66.814  1.00  0.00    -0.260 C  
BRANCH   3   4
HETATM    4  C   UNL     1     -10.509  14.413  65.979  1.00  0.00    -0.307 A  
HETATM    5  C   UNL     1     -10.941  12.978  64.067  1.00  0.00    -0.422 A  
HETATM    6  H   UNL     1     -12.772  11.646  62.916  1.00  0.00     0.000 HD 
HETATM    7  C   UNL     1     -11.862  14.321  66.334  1.00  0.00    -0.427 A  
HETATM    8  C   UNL     1     -10.060  13.740  64.833  1.00  0.00    -0.297 A  
HETATM    9  C   UNL     1     -12.746  13.558  65.565  1.00  0.00    -0.493 A  
HETATM   10  O   UNL     1     -13.095  12.107  63.682  1.00  0.00    -0.787 OA 
HETATM   11  C   UNL     1     -12.274  12.885  64.443  1.00  0.00    -0.417 A  
ENDBRANCH   3   4
ENDBRANCH   2   3
BRANCH   2  12
HETATM   12  N   UNL     1      -8.312  14.231  68.753  1.00  0.00    -0.254 NA 
HETATM   13  H   UNL     1      -8.506  13.521  69.459  1.00  0.00     0.000 HD 
BRANCH  12  14
HETATM   14  C   UNL     1      -7.531  13.658  67.651  1.00  0.00    -0.183 C  
BRANCH  14  15
HETATM   15  C   UNL     1      -7.333  12.128  67.813  1.00  0.00    -0.114 C  
HETATM   16  H   UNL     1      -7.047  10.855  69.295  1.00  0.00     0.000 HD 
HETATM   17  O   UNL     1      -7.168  11.792  69.196  1.00  0.00    -0.105 OA 
BRANCH  15  18
HETATM   18  C   UNL     1      -8.506  11.351  67.244  1.00  0.00    -0.148 A  
HETATM   19  O   UNL     1     -11.975  10.458  68.097  1.00  0.00    -0.756 OA 
HETATM   20  C   UNL     1     -10.786  10.543  67.434  1.00  0.00    -0.291 A  
HETATM   21  C   UNL     1      -9.723  11.293  67.940  1.00  0.00    -0.185 A  
HETATM   22  C   UNL     1     -10.670   9.852  66.235  1.00  0.00     0.013 A  
HETATM   23  H   UNL     1     -12.698   9.948  67.753  1.00  0.00     0.000 HD 
HETATM   24  C   UNL     1      -9.470   9.911  65.539  1.00  0.00    -0.252 A  
HETATM   25  O   UNL     1      -9.293   9.250  64.360  1.00  0.00    -0.433 OA 
HETATM   26  C   UNL     1      -8.398  10.650  66.029  1.00  0.00    -0.160 A  
HETATM   27  H   UNL     1      -8.472   9.290  63.885  1.00  0.00     0.000 HD 
ENDBRANCH  15  18
ENDBRANCH  14  15
ENDBRANCH  12  14
ENDBRANCH   2  12
TORSDOF 6
ENDMDL
MODEL      111
REMARK 921   NORMALIZED FREE ENERGY PREDICTED BY IDOCK:   -5.92 KCAL/MOL
REMARK 922        TOTAL FREE ENERGY PREDICTED BY IDOCK:   -8.60 KCAL/MOL
REMARK 923 INTER-LIGAND FREE ENERGY PREDICTED BY IDOCK:   -6.93 KCAL/MOL
REMARK 924 INTRA-LIGAND FREE ENERGY PREDICTED BY IDOCK:   -1.67 KCAL/MOL
REMARK 927      BINDING AFFINITY PREDICTED BY RF-SCORE:    0.00 PKD
ROOT
HETATM    1  C   UNL     1      -8.125  13.716  68.130  1.00  0.00    -0.156 C  
HETATM    2  C   UNL     1      -9.421  14.035  68.888  1.00  0.00     0.012 C  
ENDROOT
BRANCH   2   3
HETATM    3  C   UNL     1     -10.096  15.256  68.205  1.00  0.00    -0.225 C  
BRANCH   3   4
HETATM    4  C   UNL     1     -10.781  14.954  66.892  1.00  0.00    -0.308 A  
HETATM    5  C   UNL     1     -12.780  14.304  65.674  1.00  0.00    -0.395 A  
HETATM    6  H   UNL     1     -13.688  13.951  63.329  1.00  0.00     0.000 HD 
HETATM    7  C   UNL     1     -10.095  15.069  65.675  1.00  0.00    -0.390 A  
HETATM    8  C   UNL     1     -12.128  14.562  66.879  1.00  0.00    -0.309 A  
HETATM    9  C   UNL     1     -10.748  14.809  64.467  1.00  0.00    -0.124 A  
HETATM   10  O   UNL     1     -12.772  14.203  63.321  1.00  0.00    -0.714 OA 
HETATM   11  C   UNL     1     -12.089  14.438  64.478  1.00  0.00    -0.481 A  
ENDBRANCH   3   4
ENDBRANCH   2   3
BRANCH   2  12
HETATM   12  N   UNL     1     -10.331  12.880  68.931  1.00  0.00    -0.429 NA 
HETATM   13  H   UNL     1     -11.152  13.051  68.352  1.00  0.00     0.000 HD 
BRANCH  12  14
HETATM   14  C   UNL     1      -9.704  11.605  68.567  1.00  0.00    -0.184 C  
BRANCH  14  15
HETATM   15  C   UNL     1     -10.621  10.745  67.659  1.00  0.00    -0.231 C  
HETATM   16  H   UNL     1     -12.553  10.605  67.271  1.00  0.00     0.000 HD 
HETATM   17  O   UNL     1     -11.991  11.131  67.827  1.00  0.00    -0.630 OA 
BRANCH  15  18
HETATM   18  C   UNL     1     -10.238  10.876  66.196  1.00  0.00    -0.304 A  
HETATM   19  O   UNL     1     -11.808  11.432  62.912  1.00  0.00    -0.874 OA 
HETATM   20  C   UNL     1     -10.871  11.205  63.877  1.00  0.00    -0.274 A  
HETATM   21  C   UNL     1     -11.221  11.126  65.226  1.00  0.00     0.019 A  
HETATM   22  C   UNL     1      -9.553  11.050  63.467  1.00  0.00    -0.344 A  
HETATM   23  H   UNL     1     -11.570  11.486  61.994  1.00  0.00     0.000 HD 
HETATM   24  C   UNL     1      -8.577  10.808  64.424  1.00  0.00    -0.040 A  
HETATM   25  O   UNL     1      -7.267  10.643  64.083  1.00  0.00    -0.346 OA 
HETATM   26  C   UNL     1      -8.906  10.723  65.773  1.00  0.00    -0.201 A  
HETATM   27  H   UNL     1      -6.599  10.477  64.738  1.00  0.00     0.000 HD 
ENDBRANCH  15  18
ENDBRANCH  14  15
ENDBRANCH  12  14
ENDBRANCH   2  12
TORSDOF 6
ENDMDL
MODEL      112
REMARK 921   NORMALIZED FREE ENERGY PREDICTED BY IDOCK:   -5.90 KCAL/MOL
REMARK 922        TOTAL FREE ENERGY PREDICTED BY IDOCK:   -8.57 KCAL/MOL
REMARK 923 INTER-LIGAND FREE ENERGY PREDICTED BY IDOCK:   -7.61 KCAL/MOL
REMARK 924 INTRA-LIGAND FREE ENERGY PREDICTED BY IDOCK:   -0.97 KCAL/MOL
REMARK 927      BINDING AFFINITY PREDICTED BY RF-SCORE:    0.00 PKD
ROOT
HETATM    1  C   UNL     1      -7.631  10.282  68.446  1.00  0.00    -0.092 C  
HETATM    2  C   UNL     1      -9.059  10.328  69.008  1.00  0.00    -0.183 C  
ENDROOT
BRANCH   2   3
HETATM    3  C   UNL     1      -9.093   9.494  70.317  1.00  0.00    -0.296 C  
BRANCH   3   4
HETATM    4  C   UNL     1     -10.449   8.936  70.683  1.00  0.00    -0.271 A  
HETATM    5  C   UNL     1     -12.028   7.089  70.667  1.00  0.00    -0.361 A  
HETATM    6  H   UNL     1     -14.327   6.393  71.491  1.00  0.00     0.000 HD 
HETATM    7  C   UNL     1     -11.378   9.704  71.399  1.00  0.00    -0.444 A  
HETATM    8  C   UNL     1     -10.790   7.626  70.315  1.00  0.00    -0.253 A  
HETATM    9  C   UNL     1     -12.620   9.167  71.751  1.00  0.00    -0.446 A  
HETATM   10  O   UNL     1     -14.117   7.286  71.737  1.00  0.00    -0.394 OA 
HETATM   11  C   UNL     1     -12.929   7.859  71.389  1.00  0.00    -0.271 A  
ENDBRANCH   3   4
ENDBRANCH   2   3
BRANCH   2  12
HETATM   12  N   UNL     1      -9.513  11.707  69.243  1.00  0.00    -0.296 NA 
HETATM   13  H   UNL     1      -8.744  12.281  69.588  1.00  0.00     0.000 HD 
BRANCH  12  14
HETATM   14  C   UNL     1     -10.144  12.341  68.081  1.00  0.00    -0.211 C  
BRANCH  14  15
HETATM   15  C   UNL     1     -11.680  12.479  68.256  1.00  0.00    -0.340 C  
HETATM   16  H   UNL     1     -13.225  11.269  68.476  1.00  0.00     0.000 HD 
HETATM   17  O   UNL     1     -12.285  11.184  68.369  1.00  0.00    -0.610 OA 
BRANCH  15  18
HETATM   18  C   UNL     1     -12.030  13.306  69.478  1.00  0.00    -0.366 A  
HETATM   19  O   UNL     1     -11.506  16.689  70.836  1.00  0.00    -0.559 OA 
HETATM   20  C   UNL     1     -11.906  15.391  70.715  1.00  0.00    -0.353 A  
HETATM   21  C   UNL     1     -11.619  14.645  69.570  1.00  0.00    -0.350 A  
HETATM   22  C   UNL     1     -12.609  14.834  71.776  1.00  0.00    -0.400 A  
HETATM   23  H   UNL     1     -11.702  17.196  71.614  1.00  0.00     0.000 HD 
HETATM   24  C   UNL     1     -13.023  13.512  71.687  1.00  0.00    -0.359 A  
HETATM   25  O   UNL     1     -13.712  12.909  72.697  1.00  0.00    -0.678 OA 
HETATM   26  C   UNL     1     -12.743  12.751  70.556  1.00  0.00    -0.077 A  
HETATM   27  H   UNL     1     -13.994  12.004  72.637  1.00  0.00     0.000 HD 
ENDBRANCH  15  18
ENDBRANCH  14  15
ENDBRANCH  12  14
ENDBRANCH   2  12
TORSDOF 6
ENDMDL
MODEL      113
REMARK 921   NORMALIZED FREE ENERGY PREDICTED BY IDOCK:   -5.89 KCAL/MOL
REMARK 922        TOTAL FREE ENERGY PREDICTED BY IDOCK:   -8.56 KCAL/MOL
REMARK 923 INTER-LIGAND FREE ENERGY PREDICTED BY IDOCK:   -7.91 KCAL/MOL
REMARK 924 INTRA-LIGAND FREE ENERGY PREDICTED BY IDOCK:   -0.65 KCAL/MOL
REMARK 927      BINDING AFFINITY PREDICTED BY RF-SCORE:    0.00 PKD
ROOT
HETATM    1  C   UNL     1     -11.187  13.860  67.152  1.00  0.00    -0.328 C  
HETATM    2  C   UNL     1     -10.963  13.611  68.650  1.00  0.00    -0.267 C  
ENDROOT
BRANCH   2   3
HETATM    3  C   UNL     1     -12.349  13.586  69.350  1.00  0.00    -0.162 C  
BRANCH   3   4
HETATM    4  C   UNL     1     -12.412  14.327  70.667  1.00  0.00    -0.428 A  
HETATM    5  C   UNL     1     -13.098  14.404  72.996  1.00  0.00    -0.581 A  
HETATM    6  H   UNL     1     -12.971  15.835  75.090  1.00  0.00     0.000 HD 
HETATM    7  C   UNL     1     -11.829  15.593  70.812  1.00  0.00    -0.421 A  
HETATM    8  C   UNL     1     -13.053  13.743  71.769  1.00  0.00    -0.463 A  
HETATM    9  C   UNL     1     -11.875  16.258  72.041  1.00  0.00    -0.568 A  
HETATM   10  O   UNL     1     -12.544  16.250  74.350  1.00  0.00    -0.717 OA 
HETATM   11  C   UNL     1     -12.501  15.651  73.125  1.00  0.00    -0.476 A  
ENDBRANCH   3   4
ENDBRANCH   2   3
BRANCH   2  12
HETATM   12  N   UNL     1     -10.221  12.365  68.895  1.00  0.00    -0.423 NA 
HETATM   13  H   UNL     1      -9.705  12.425  69.773  1.00  0.00     0.000 HD 
BRANCH  12  14
HETATM   14  C   UNL     1     -11.048  11.154  68.869  1.00  0.00    -0.237 C  
BRANCH  14  15
HETATM   15  C   UNL     1     -10.679  10.172  70.012  1.00  0.00    -0.305 C  
HETATM   16  H   UNL     1     -11.406   9.670  71.779  1.00  0.00     0.000 HD 
HETATM   17  O   UNL     1     -11.632  10.271  71.079  1.00  0.00    -0.351 OA 
BRANCH  15  18
HETATM   18  C   UNL     1     -10.624   8.738  69.519  1.00  0.00    -0.224 A  
HETATM   19  O   UNL     1     -10.606   6.843  66.363  1.00  0.00    -0.492 OA 
HETATM   20  C   UNL     1     -10.603   7.140  67.694  1.00  0.00    -0.248 A  
HETATM   21  C   UNL     1     -10.612   8.461  68.144  1.00  0.00    -0.175 A  
HETATM   22  C   UNL     1     -10.595   6.077  68.588  1.00  0.00    -0.327 A  
HETATM   23  H   UNL     1     -10.600   5.944  66.057  1.00  0.00     0.000 HD 
HETATM   24  C   UNL     1     -10.601   6.347  69.950  1.00  0.00    -0.243 A  
HETATM   25  O   UNL     1     -10.599   5.347  70.877  1.00  0.00    -0.246 OA 
HETATM   26  C   UNL     1     -10.613   7.657  70.418  1.00  0.00    -0.233 A  
HETATM   27  H   UNL     1     -10.603   5.531  71.809  1.00  0.00     0.000 HD 
ENDBRANCH  15  18
ENDBRANCH  14  15
ENDBRANCH  12  14
ENDBRANCH   2  12
TORSDOF 6
ENDMDL
MODEL      114
REMARK 921   NORMALIZED FREE ENERGY PREDICTED BY IDOCK:   -5.88 KCAL/MOL
REMARK 922        TOTAL FREE ENERGY PREDICTED BY IDOCK:   -8.56 KCAL/MOL
REMARK 923 INTER-LIGAND FREE ENERGY PREDICTED BY IDOCK:   -7.94 KCAL/MOL
REMARK 924 INTRA-LIGAND FREE ENERGY PREDICTED BY IDOCK:   -0.62 KCAL/MOL
REMARK 927      BINDING AFFINITY PREDICTED BY RF-SCORE:    0.00 PKD
ROOT
HETATM    1  C   UNL     1     -12.062  14.097  69.468  1.00  0.00    -0.388 C  
HETATM    2  C   UNL     1     -11.278  13.698  68.210  1.00  0.00    -0.273 C  
ENDROOT
BRANCH   2   3
HETATM    3  C   UNL     1     -12.267  13.046  67.207  1.00  0.00    -0.180 C  
BRANCH   3   4
HETATM    4  C   UNL     1     -11.627  12.448  65.976  1.00  0.00    -0.455 A  
HETATM    5  C   UNL     1     -10.118  10.828  64.976  1.00  0.00    -0.377 A  
HETATM    6  H   UNL     1      -9.276   9.966  62.741  1.00  0.00     0.000 HD 
HETATM    7  C   UNL     1     -11.951  12.914  64.694  1.00  0.00    -0.445 A  
HETATM    8  C   UNL     1     -10.698  11.405  66.105  1.00  0.00    -0.320 A  
HETATM    9  C   UNL     1     -11.368  12.337  63.562  1.00  0.00    -0.549 A  
HETATM   10  O   UNL     1      -9.893  10.680  62.637  1.00  0.00    -0.263 OA 
HETATM   11  C   UNL     1     -10.463  11.291  63.714  1.00  0.00    -0.399 A  
ENDBRANCH   3   4
ENDBRANCH   2   3
BRANCH   2  12
HETATM   12  N   UNL     1     -10.588  14.848  67.605  1.00  0.00    -0.260 NA 
HETATM   13  H   UNL     1     -11.242  15.616  67.453  1.00  0.00     0.000 HD 
BRANCH  12  14
HETATM   14  C   UNL     1      -9.418  15.314  68.357  1.00  0.00    -0.206 C  
BRANCH  14  15
HETATM   15  C   UNL     1      -8.565  16.321  67.541  1.00  0.00    -0.177 C  
HETATM   16  H   UNL     1      -7.939  16.509  65.677  1.00  0.00     0.000 HD 
HETATM   17  O   UNL     1      -8.461  15.892  66.177  1.00  0.00    -0.318 OA 
BRANCH  15  18
HETATM   18  C   UNL     1      -9.158  17.717  67.585  1.00  0.00    -0.241 A  
HETATM   19  O   UNL     1      -9.906  20.533  65.334  1.00  0.00    -0.474 OA 
HETATM   20  C   UNL     1      -9.788  19.772  66.460  1.00  0.00    -0.436 A  
HETATM   21  C   UNL     1      -9.282  18.472  66.409  1.00  0.00    -0.281 A  
HETATM   22  C   UNL     1     -10.189  20.340  67.662  1.00  0.00    -0.469 A  
HETATM   23  H   UNL     1     -10.251  21.417  65.369  1.00  0.00     0.000 HD 
HETATM   24  C   UNL     1     -10.074  19.594  68.828  1.00  0.00    -0.437 A  
HETATM   25  O   UNL     1     -10.445  20.098  70.039  1.00  0.00    -0.673 OA 
HETATM   26  C   UNL     1      -9.568  18.298  68.798  1.00  0.00    -0.317 A  
HETATM   27  H   UNL     1     -10.366  19.588  70.837  1.00  0.00     0.000 HD 
ENDBRANCH  15  18
ENDBRANCH  14  15
ENDBRANCH  12  14
ENDBRANCH   2  12
TORSDOF 6
ENDMDL
MODEL      115
REMARK 921   NORMALIZED FREE ENERGY PREDICTED BY IDOCK:   -5.88 KCAL/MOL
REMARK 922        TOTAL FREE ENERGY PREDICTED BY IDOCK:   -8.55 KCAL/MOL
REMARK 923 INTER-LIGAND FREE ENERGY PREDICTED BY IDOCK:   -8.11 KCAL/MOL
REMARK 924 INTRA-LIGAND FREE ENERGY PREDICTED BY IDOCK:   -0.44 KCAL/MOL
REMARK 927      BINDING AFFINITY PREDICTED BY RF-SCORE:    0.00 PKD
ROOT
HETATM    1  C   UNL     1     -10.534  14.585  64.976  1.00  0.00    -0.454 C  
HETATM    2  C   UNL     1     -11.983  14.268  65.375  1.00  0.00    -0.383 C  
ENDROOT
BRANCH   2   3
HETATM    3  C   UNL     1     -12.323  12.839  64.875  1.00  0.00    -0.551 C  
BRANCH   3   4
HETATM    4  C   UNL     1     -11.127  11.948  64.626  1.00  0.00    -0.373 A  
HETATM    5  C   UNL     1      -9.472  11.044  63.095  1.00  0.00    -0.363 A  
HETATM    6  H   UNL     1      -7.420   9.551  62.993  1.00  0.00     0.000 HD 
HETATM    7  C   UNL     1     -10.533  11.226  65.671  1.00  0.00    -0.317 A  
HETATM    8  C   UNL     1     -10.590  11.842  63.335  1.00  0.00    -0.485 A  
HETATM    9  C   UNL     1      -9.414  10.424  65.430  1.00  0.00    -0.285 A  
HETATM   10  O   UNL     1      -7.780   9.602  63.871  1.00  0.00    -0.119 OA 
HETATM   11  C   UNL     1      -8.887  10.349  64.144  1.00  0.00    -0.214 A  
ENDBRANCH   3   4
ENDBRANCH   2   3
BRANCH   2  12
HETATM   12  N   UNL     1     -12.192  14.388  66.826  1.00  0.00    -0.515 NA 
HETATM   13  H   UNL     1     -12.994  13.830  67.118  1.00  0.00     0.000 HD 
BRANCH  12  14
HETATM   14  C   UNL     1     -11.015  14.054  67.635  1.00  0.00    -0.269 C  
BRANCH  14  15
HETATM   15  C   UNL     1     -11.239  14.353  69.140  1.00  0.00    -0.272 C  
HETATM   16  H   UNL     1     -12.209  15.693  70.220  1.00  0.00     0.000 HD 
HETATM   17  O   UNL     1     -12.072  15.510  69.298  1.00  0.00    -0.332 OA 
BRANCH  15  18
HETATM   18  C   UNL     1     -11.876  13.175  69.854  1.00  0.00    -0.378 A  
HETATM   19  O   UNL     1     -14.091  12.473  72.710  1.00  0.00    -0.544 OA 
HETATM   20  C   UNL     1     -13.275  12.297  71.632  1.00  0.00    -0.257 A  
HETATM   21  C   UNL     1     -12.725  13.385  70.951  1.00  0.00    -0.349 A  
HETATM   22  C   UNL     1     -13.008  10.993  71.235  1.00  0.00    -0.472 A  
HETATM   23  H   UNL     1     -14.466  11.733  73.172  1.00  0.00     0.000 HD 
HETATM   24  C   UNL     1     -12.173  10.781  70.146  1.00  0.00    -0.346 A  
HETATM   25  O   UNL     1     -11.870   9.524  69.713  1.00  0.00    -0.445 OA 
HETATM   26  C   UNL     1     -11.612  11.852  69.457  1.00  0.00    -0.394 A  
HETATM   27  H   UNL     1     -11.298   9.379  68.968  1.00  0.00     0.000 HD 
ENDBRANCH  15  18
ENDBRANCH  14  15
ENDBRANCH  12  14
ENDBRANCH   2  12
TORSDOF 6
ENDMDL
MODEL      116
REMARK 921   NORMALIZED FREE ENERGY PREDICTED BY IDOCK:   -5.88 KCAL/MOL
REMARK 922        TOTAL FREE ENERGY PREDICTED BY IDOCK:   -8.55 KCAL/MOL
REMARK 923 INTER-LIGAND FREE ENERGY PREDICTED BY IDOCK:   -7.74 KCAL/MOL
REMARK 924 INTRA-LIGAND FREE ENERGY PREDICTED BY IDOCK:   -0.81 KCAL/MOL
REMARK 927      BINDING AFFINITY PREDICTED BY RF-SCORE:    0.00 PKD
ROOT
HETATM    1  C   UNL     1      -7.550   9.201  66.033  1.00  0.00    -0.095 C  
HETATM    2  C   UNL     1      -9.084   9.196  65.983  1.00  0.00    -0.197 C  
ENDROOT
BRANCH   2   3
HETATM    3  C   UNL     1      -9.530   9.890  64.668  1.00  0.00    -0.343 C  
BRANCH   3   4
HETATM    4  C   UNL     1     -10.518  11.020  64.846  1.00  0.00    -0.371 A  
HETATM    5  C   UNL     1     -12.070  12.618  63.876  1.00  0.00    -0.567 A  
HETATM    6  H   UNL     1     -13.744  14.429  64.483  1.00  0.00     0.000 HD 
HETATM    7  C   UNL     1     -10.839  11.506  66.122  1.00  0.00    -0.330 A  
HETATM    8  C   UNL     1     -11.138  11.592  63.725  1.00  0.00    -0.499 A  
HETATM    9  C   UNL     1     -11.772  12.536  66.274  1.00  0.00    -0.462 A  
HETATM   10  O   UNL     1     -13.324  14.061  65.252  1.00  0.00    -0.741 OA 
HETATM   11  C   UNL     1     -12.387  13.075  65.148  1.00  0.00    -0.484 A  
ENDBRANCH   3   4
ENDBRANCH   2   3
BRANCH   2  12
HETATM   12  N   UNL     1      -9.632   7.834  66.077  1.00  0.00    -0.433 NA 
HETATM   13  H   UNL     1      -9.331   7.273  65.281  1.00  0.00     0.000 HD 
BRANCH  12  14
HETATM   14  C   UNL     1      -9.324   7.146  67.335  1.00  0.00    -0.127 C  
BRANCH  14  15
HETATM   15  C   UNL     1     -10.607   6.694  68.081  1.00  0.00    -0.241 C  
HETATM   16  H   UNL     1     -11.257   5.062  68.983  1.00  0.00     0.000 HD 
HETATM   17  O   UNL     1     -10.472   5.338  68.526  1.00  0.00    -0.157 OA 
BRANCH  15  18
HETATM   18  C   UNL     1     -10.902   7.586  69.272  1.00  0.00    -0.131 A  
HETATM   19  O   UNL     1     -12.141   7.349  72.732  1.00  0.00    -0.543 OA 
HETATM   20  C   UNL     1     -11.676   7.860  71.556  1.00  0.00    -0.283 A  
HETATM   21  C   UNL     1     -11.365   7.032  70.476  1.00  0.00    -0.355 A  
HETATM   22  C   UNL     1     -11.525   9.238  71.471  1.00  0.00    -0.454 A  
HETATM   23  H   UNL     1     -12.352   7.912  73.467  1.00  0.00     0.000 HD 
HETATM   24  C   UNL     1     -11.061   9.790  70.284  1.00  0.00    -0.292 A  
HETATM   25  O   UNL     1     -10.897  11.136  70.138  1.00  0.00    -0.457 OA 
HETATM   26  C   UNL     1     -10.749   8.982  69.195  1.00  0.00    -0.176 A  
HETATM   27  H   UNL     1     -10.580  11.514  69.326  1.00  0.00     0.000 HD 
ENDBRANCH  15  18
ENDBRANCH  14  15
ENDBRANCH  12  14
ENDBRANCH   2  12
TORSDOF 6
ENDMDL
MODEL      117
REMARK 921   NORMALIZED FREE ENERGY PREDICTED BY IDOCK:   -5.87 KCAL/MOL
REMARK 922        TOTAL FREE ENERGY PREDICTED BY IDOCK:   -8.54 KCAL/MOL
REMARK 923 INTER-LIGAND FREE ENERGY PREDICTED BY IDOCK:   -8.01 KCAL/MOL
REMARK 924 INTRA-LIGAND FREE ENERGY PREDICTED BY IDOCK:   -0.54 KCAL/MOL
REMARK 927      BINDING AFFINITY PREDICTED BY RF-SCORE:    0.00 PKD
ROOT
HETATM    1  C   UNL     1     -10.336  13.280  67.911  1.00  0.00    -0.239 C  
HETATM    2  C   UNL     1     -11.260  12.902  69.077  1.00  0.00    -0.267 C  
ENDROOT
BRANCH   2   3
HETATM    3  C   UNL     1     -12.373  13.979  69.184  1.00  0.00    -0.169 C  
BRANCH   3   4
HETATM    4  C   UNL     1     -12.528  14.602  70.553  1.00  0.00    -0.408 A  
HETATM    5  C   UNL     1     -11.886  16.302  72.165  1.00  0.00    -0.585 A  
HETATM    6  H   UNL     1     -12.426  17.191  74.482  1.00  0.00     0.000 HD 
HETATM    7  C   UNL     1     -13.462  14.104  71.472  1.00  0.00    -0.419 A  
HETATM    8  C   UNL     1     -11.737  15.702  70.916  1.00  0.00    -0.423 A  
HETATM    9  C   UNL     1     -13.611  14.704  72.726  1.00  0.00    -0.538 A  
HETATM   10  O   UNL     1     -12.960  16.439  74.257  1.00  0.00    -0.670 OA 
HETATM   11  C   UNL     1     -12.828  15.805  73.057  1.00  0.00    -0.502 A  
ENDBRANCH   3   4
ENDBRANCH   2   3
BRANCH   2  12
HETATM   12  N   UNL     1     -11.835  11.558  68.909  1.00  0.00    -0.334 NA 
HETATM   13  H   UNL     1     -11.975  11.352  67.920  1.00  0.00     0.000 HD 
BRANCH  12  14
HETATM   14  C   UNL     1     -11.064  10.488  69.551  1.00  0.00    -0.268 C  
BRANCH  14  15
HETATM   15  C   UNL     1     -11.760   9.958  70.832  1.00  0.00    -0.364 C  
HETATM   16  H   UNL     1     -13.609   9.766  71.500  1.00  0.00     0.000 HD 
HETATM   17  O   UNL     1     -13.183  10.091  70.716  1.00  0.00    -0.348 OA 
BRANCH  15  18
HETATM   18  C   UNL     1     -11.411   8.506  71.097  1.00  0.00    -0.319 A  
HETATM   19  O   UNL     1     -10.735   5.390  69.255  1.00  0.00    -0.248 OA 
HETATM   20  C   UNL     1     -10.925   6.275  70.275  1.00  0.00    -0.337 A  
HETATM   21  C   UNL     1     -11.205   7.620  70.028  1.00  0.00    -0.146 A  
HETATM   22  C   UNL     1     -10.832   5.788  71.572  1.00  0.00    -0.316 A  
HETATM   23  H   UNL     1     -10.544   4.475  69.423  1.00  0.00     0.000 HD 
HETATM   24  C   UNL     1     -11.028   6.662  72.633  1.00  0.00    -0.255 A  
HETATM   25  O   UNL     1     -10.955   6.242  73.928  1.00  0.00    -0.412 OA 
HETATM   26  C   UNL     1     -11.312   8.005  72.407  1.00  0.00    -0.443 A  
HETATM   27  H   UNL     1     -11.090   6.840  74.654  1.00  0.00     0.000 HD 
ENDBRANCH  15  18
ENDBRANCH  14  15
ENDBRANCH  12  14
ENDBRANCH   2  12
TORSDOF 6
ENDMDL
MODEL      118
REMARK 921   NORMALIZED FREE ENERGY PREDICTED BY IDOCK:   -5.86 KCAL/MOL
REMARK 922        TOTAL FREE ENERGY PREDICTED BY IDOCK:   -8.53 KCAL/MOL
REMARK 923 INTER-LIGAND FREE ENERGY PREDICTED BY IDOCK:   -7.49 KCAL/MOL
REMARK 924 INTRA-LIGAND FREE ENERGY PREDICTED BY IDOCK:   -1.04 KCAL/MOL
REMARK 927      BINDING AFFINITY PREDICTED BY RF-SCORE:    0.00 PKD
ROOT
HETATM    1  C   UNL     1     -12.808  15.670  71.016  1.00  0.00    -0.521 C  
HETATM    2  C   UNL     1     -11.767  15.014  70.098  1.00  0.00    -0.299 C  
ENDROOT
BRANCH   2   3
HETATM    3  C   UNL     1     -10.406  15.726  70.320  1.00  0.00    -0.159 C  
BRANCH   3   4
HETATM    4  C   UNL     1      -9.762  16.278  69.068  1.00  0.00    -0.252 A  
HETATM    5  C   UNL     1      -9.965  17.045  66.772  1.00  0.00    -0.297 A  
HETATM    6  H   UNL     1      -8.637  18.053  64.856  1.00  0.00     0.000 HD 
HETATM    7  C   UNL     1      -8.391  16.570  69.028  1.00  0.00    -0.202 A  
HETATM    8  C   UNL     1     -10.541  16.514  67.926  1.00  0.00    -0.329 A  
HETATM    9  C   UNL     1      -7.813  17.101  67.872  1.00  0.00    -0.196 A  
HETATM   10  O   UNL     1      -8.093  17.888  65.618  1.00  0.00    -0.514 OA 
HETATM   11  C   UNL     1      -8.609  17.343  66.756  1.00  0.00    -0.260 A  
ENDBRANCH   3   4
ENDBRANCH   2   3
BRANCH   2  12
HETATM   12  N   UNL     1     -11.656  13.567  70.338  1.00  0.00    -0.521 NA 
HETATM   13  H   UNL     1     -12.274  13.283  71.097  1.00  0.00     0.000 HD 
BRANCH  12  14
HETATM   14  C   UNL     1     -11.890  12.739  69.150  1.00  0.00    -0.301 C  
BRANCH  14  15
HETATM   15  C   UNL     1     -10.584  12.483  68.352  1.00  0.00    -0.242 C  
HETATM   16  H   UNL     1      -9.099  11.181  68.388  1.00  0.00     0.000 HD 
HETATM   17  O   UNL     1      -9.899  11.338  68.876  1.00  0.00    -0.198 OA 
BRANCH  15  18
HETATM   18  C   UNL     1     -10.866  12.268  66.877  1.00  0.00    -0.290 A  
HETATM   19  O   UNL     1     -12.910  13.687  64.163  1.00  0.00    -0.611 OA 
HETATM   20  C   UNL     1     -12.041  12.889  64.846  1.00  0.00    -0.432 A  
HETATM   21  C   UNL     1     -11.752  13.114  66.194  1.00  0.00    -0.428 A  
HETATM   22  C   UNL     1     -11.454  11.838  64.153  1.00  0.00    -0.409 A  
HETATM   23  H   UNL     1     -13.106  13.533  63.246  1.00  0.00     0.000 HD 
HETATM   24  C   UNL     1     -10.571  11.002  64.823  1.00  0.00    -0.280 A  
HETATM   25  O   UNL     1      -9.968   9.951  64.199  1.00  0.00    -0.457 OA 
HETATM   26  C   UNL     1     -10.273  11.208  66.167  1.00  0.00    -0.293 A  
HETATM   27  H   UNL     1      -9.364   9.379  64.658  1.00  0.00     0.000 HD 
ENDBRANCH  15  18
ENDBRANCH  14  15
ENDBRANCH  12  14
ENDBRANCH   2  12
TORSDOF 6
ENDMDL
MODEL      119
REMARK 921   NORMALIZED FREE ENERGY PREDICTED BY IDOCK:   -5.86 KCAL/MOL
REMARK 922        TOTAL FREE ENERGY PREDICTED BY IDOCK:   -8.53 KCAL/MOL
REMARK 923 INTER-LIGAND FREE ENERGY PREDICTED BY IDOCK:   -8.04 KCAL/MOL
REMARK 924 INTRA-LIGAND FREE ENERGY PREDICTED BY IDOCK:   -0.48 KCAL/MOL
REMARK 927      BINDING AFFINITY PREDICTED BY RF-SCORE:    0.00 PKD
ROOT
HETATM    1  C   UNL     1      -9.998  10.541  67.774  1.00  0.00    -0.198 C  
HETATM    2  C   UNL     1     -11.223  11.435  68.012  1.00  0.00    -0.281 C  
ENDROOT
BRANCH   2   3
HETATM    3  C   UNL     1     -11.891  11.720  66.639  1.00  0.00    -0.036 C  
BRANCH   3   4
HETATM    4  C   UNL     1     -11.637  13.101  66.081  1.00  0.00    -0.396 A  
HETATM    5  C   UNL     1     -11.856  14.698  64.263  1.00  0.00    -0.355 A  
HETATM    6  H   UNL     1     -11.376  17.109  63.627  1.00  0.00     0.000 HD 
HETATM    7  C   UNL     1     -10.990  14.083  66.845  1.00  0.00    -0.301 A  
HETATM    8  C   UNL     1     -12.061  13.420  64.782  1.00  0.00    -0.448 A  
HETATM    9  C   UNL     1     -10.782  15.363  66.324  1.00  0.00    -0.312 A  
HETATM   10  O   UNL     1     -11.072  16.906  64.503  1.00  0.00    -1.054 OA 
HETATM   11  C   UNL     1     -11.227  15.662  65.040  1.00  0.00    -0.329 A  
ENDBRANCH   3   4
ENDBRANCH   2   3
BRANCH   2  12
HETATM   12  N   UNL     1     -12.176  10.823  68.950  1.00  0.00    -0.795 NA 
HETATM   13  H   UNL     1     -12.081   9.807  68.943  1.00  0.00     0.000 HD 
BRANCH  12  14
HETATM   14  C   UNL     1     -12.087  11.336  70.322  1.00  0.00    -0.373 C  
BRANCH  14  15
HETATM   15  C   UNL     1     -12.576  10.297  71.364  1.00  0.00    -0.434 C  
HETATM   16  H   UNL     1     -13.980   8.912  71.478  1.00  0.00     0.000 HD 
HETATM   17  O   UNL     1     -13.681   9.549  70.840  1.00  0.00    -0.202 OA 
BRANCH  15  18
HETATM   18  C   UNL     1     -11.466   9.341  71.762  1.00  0.00    -0.448 A  
HETATM   19  O   UNL     1      -7.940   8.634  70.972  1.00  0.00    -0.105 OA 
HETATM   20  C   UNL     1      -9.184   8.552  71.525  1.00  0.00    -0.221 A  
HETATM   21  C   UNL     1     -10.190   9.458  71.189  1.00  0.00    -0.361 A  
HETATM   22  C   UNL     1      -9.414   7.529  72.437  1.00  0.00    -0.202 A  
HETATM   23  H   UNL     1      -7.255   8.017  71.201  1.00  0.00     0.000 HD 
HETATM   24  C   UNL     1     -10.673   7.413  73.011  1.00  0.00    -0.364 A  
HETATM   25  O   UNL     1     -10.962   6.428  73.908  1.00  0.00    -0.423 OA 
HETATM   26  C   UNL     1     -11.690   8.305  72.686  1.00  0.00    -0.406 A  
HETATM   27  H   UNL     1     -11.823   6.348  74.300  1.00  0.00     0.000 HD 
ENDBRANCH  15  18
ENDBRANCH  14  15
ENDBRANCH  12  14
ENDBRANCH   2  12
TORSDOF 6
ENDMDL
MODEL      120
REMARK 921   NORMALIZED FREE ENERGY PREDICTED BY IDOCK:   -5.86 KCAL/MOL
REMARK 922        TOTAL FREE ENERGY PREDICTED BY IDOCK:   -8.52 KCAL/MOL
REMARK 923 INTER-LIGAND FREE ENERGY PREDICTED BY IDOCK:   -7.54 KCAL/MOL
REMARK 924 INTRA-LIGAND FREE ENERGY PREDICTED BY IDOCK:   -0.98 KCAL/MOL
REMARK 927      BINDING AFFINITY PREDICTED BY RF-SCORE:    0.00 PKD
ROOT
HETATM    1  C   UNL     1      -8.369  10.385  69.760  1.00  0.00    -0.018 C  
HETATM    2  C   UNL     1      -9.787  10.479  69.180  1.00  0.00    -0.218 C  
ENDROOT
BRANCH   2   3
HETATM    3  C   UNL     1     -10.600   9.255  69.681  1.00  0.00    -0.241 C  
BRANCH   3   4
HETATM    4  C   UNL     1     -10.545   8.041  68.783  1.00  0.00    -0.145 A  
HETATM    5  C   UNL     1     -10.768   5.640  68.490  1.00  0.00    -0.232 A  
HETATM    6  H   UNL     1     -10.695   3.805  66.735  1.00  0.00     0.000 HD 
HETATM    7  C   UNL     1     -10.259   8.166  67.416  1.00  0.00    -0.327 A  
HETATM    8  C   UNL     1     -10.792   6.766  69.312  1.00  0.00    -0.303 A  
HETATM    9  C   UNL     1     -10.233   7.037  66.591  1.00  0.00    -0.218 A  
HETATM   10  O   UNL     1     -10.513   4.660  66.363  1.00  0.00    -0.268 OA 
HETATM   11  C   UNL     1     -10.498   5.784  67.136  1.00  0.00    -0.273 A  
ENDBRANCH   3   4
ENDBRANCH   2   3
BRANCH   2  12
HETATM   12  N   UNL     1     -10.448  11.742  69.546  1.00  0.00    -0.412 NA 
HETATM   13  H   UNL     1     -10.049  12.116  70.407  1.00  0.00     0.000 HD 
BRANCH  12  14
HETATM   14  C   UNL     1     -10.432  12.759  68.489  1.00  0.00    -0.238 C  
BRANCH  14  15
HETATM   15  C   UNL     1     -11.774  12.814  67.714  1.00  0.00    -0.359 C  
HETATM   16  H   UNL     1     -13.214  14.131  67.406  1.00  0.00     0.000 HD 
HETATM   17  O   UNL     1     -12.392  14.097  67.881  1.00  0.00    -0.233 OA 
BRANCH  15  18
HETATM   18  C   UNL     1     -11.576  12.540  66.235  1.00  0.00    -0.449 A  
HETATM   19  O   UNL     1     -12.411  14.005  62.962  1.00  0.00    -1.101 OA 
HETATM   20  C   UNL     1     -11.925  13.159  63.915  1.00  0.00    -0.488 A  
HETATM   21  C   UNL     1     -12.073  13.435  65.275  1.00  0.00    -0.446 A  
HETATM   22  C   UNL     1     -11.279  12.008  63.482  1.00  0.00    -0.526 A  
HETATM   23  H   UNL     1     -12.310  13.816  62.036  1.00  0.00     0.000 HD 
HETATM   24  C   UNL     1     -10.780  11.122  64.428  1.00  0.00    -0.318 A  
HETATM   25  O   UNL     1     -10.142   9.974  64.066  1.00  0.00    -0.469 OA 
HETATM   26  C   UNL     1     -10.921  11.378  65.789  1.00  0.00    -0.256 A  
HETATM   27  H   UNL     1      -9.801   9.368  64.714  1.00  0.00     0.000 HD 
ENDBRANCH  15  18
ENDBRANCH  14  15
ENDBRANCH  12  14
ENDBRANCH   2  12
TORSDOF 6
ENDMDL
MODEL      121
REMARK 921   NORMALIZED FREE ENERGY PREDICTED BY IDOCK:   -5.84 KCAL/MOL
REMARK 922        TOTAL FREE ENERGY PREDICTED BY IDOCK:   -8.50 KCAL/MOL
REMARK 923 INTER-LIGAND FREE ENERGY PREDICTED BY IDOCK:   -7.65 KCAL/MOL
REMARK 924 INTRA-LIGAND FREE ENERGY PREDICTED BY IDOCK:   -0.85 KCAL/MOL
REMARK 927      BINDING AFFINITY PREDICTED BY RF-SCORE:    0.00 PKD
ROOT
HETATM    1  C   UNL     1      -9.305  14.667  68.254  1.00  0.00    -0.199 C  
HETATM    2  C   UNL     1     -10.322  15.783  67.975  1.00  0.00    -0.252 C  
ENDROOT
BRANCH   2   3
HETATM    3  C   UNL     1      -9.942  16.463  66.633  1.00  0.00    -0.281 C  
BRANCH   3   4
HETATM    4  C   UNL     1      -9.190  17.767  66.768  1.00  0.00    -0.281 A  
HETATM    5  C   UNL     1      -9.167  20.118  67.382  1.00  0.00    -0.495 A  
HETATM    6  H   UNL     1      -7.637  22.133  67.592  1.00  0.00     0.000 HD 
HETATM    7  C   UNL     1      -7.828  17.853  66.449  1.00  0.00    -0.307 A  
HETATM    8  C   UNL     1      -9.854  18.914  67.229  1.00  0.00    -0.368 A  
HETATM    9  C   UNL     1      -7.139  19.060  66.600  1.00  0.00    -0.223 A  
HETATM   10  O   UNL     1      -7.175  21.369  67.267  1.00  0.00    -0.538 OA 
HETATM   11  C   UNL     1      -7.815  20.180  67.076  1.00  0.00    -0.319 A  
ENDBRANCH   3   4
ENDBRANCH   2   3
BRANCH   2  12
HETATM   12  N   UNL     1     -11.701  15.273  67.941  1.00  0.00    -0.375 NA 
HETATM   13  H   UNL     1     -12.198  15.641  67.131  1.00  0.00     0.000 HD 
BRANCH  12  14
HETATM   14  C   UNL     1     -11.805  13.810  67.983  1.00  0.00    -0.373 C  
BRANCH  14  15
HETATM   15  C   UNL     1     -12.385  13.230  66.666  1.00  0.00    -0.212 C  
HETATM   16  H   UNL     1     -12.926  13.920  64.897  1.00  0.00     0.000 HD 
HETATM   17  O   UNL     1     -12.572  14.275  65.703  1.00  0.00    -0.461 OA 
BRANCH  15  18
HETATM   18  C   UNL     1     -11.478  12.163  66.081  1.00  0.00    -0.429 A  
HETATM   19  O   UNL     1      -9.045   9.624  67.172  1.00  0.00    -0.133 OA 
HETATM   20  C   UNL     1      -9.830  10.408  66.378  1.00  0.00    -0.213 A  
HETATM   21  C   UNL     1     -10.693  11.360  66.922  1.00  0.00    -0.308 A  
HETATM   22  C   UNL     1      -9.735  10.226  65.004  1.00  0.00    -0.370 A  
HETATM   23  H   UNL     1      -8.457   8.976  66.801  1.00  0.00     0.000 HD 
HETATM   24  C   UNL     1     -10.515  11.014  64.168  1.00  0.00    -0.366 A  
HETATM   25  O   UNL     1     -10.463  10.887  62.812  1.00  0.00    -0.772 OA 
HETATM   26  C   UNL     1     -11.379  11.971  64.691  1.00  0.00    -0.377 A  
HETATM   27  H   UNL     1     -10.996  11.427  62.240  1.00  0.00     0.000 HD 
ENDBRANCH  15  18
ENDBRANCH  14  15
ENDBRANCH  12  14
ENDBRANCH   2  12
TORSDOF 6
ENDMDL
MODEL      122
REMARK 921   NORMALIZED FREE ENERGY PREDICTED BY IDOCK:   -5.80 KCAL/MOL
REMARK 922        TOTAL FREE ENERGY PREDICTED BY IDOCK:   -8.45 KCAL/MOL
REMARK 923 INTER-LIGAND FREE ENERGY PREDICTED BY IDOCK:   -8.72 KCAL/MOL
REMARK 924 INTRA-LIGAND FREE ENERGY PREDICTED BY IDOCK:    0.27 KCAL/MOL
REMARK 927      BINDING AFFINITY PREDICTED BY RF-SCORE:    0.00 PKD
ROOT
HETATM    1  C   UNL     1      -8.216  16.226  68.386  1.00  0.00    -0.185 C  
HETATM    2  C   UNL     1      -9.432  15.317  68.157  1.00  0.00    -0.203 C  
ENDROOT
BRANCH   2   3
HETATM    3  C   UNL     1     -10.701  16.073  68.634  1.00  0.00    -0.281 C  
BRANCH   3   4
HETATM    4  C   UNL     1     -11.494  15.372  69.714  1.00  0.00    -0.338 A  
HETATM    5  C   UNL     1     -12.607  13.374  70.531  1.00  0.00    -0.281 A  
HETATM    6  H   UNL     1     -13.843  12.432  72.540  1.00  0.00     0.000 HD 
HETATM    7  C   UNL     1     -11.829  16.029  70.906  1.00  0.00    -0.409 A  
HETATM    8  C   UNL     1     -11.897  14.041  69.534  1.00  0.00    -0.378 A  
HETATM    9  C   UNL     1     -12.543  15.361  71.906  1.00  0.00    -0.455 A  
HETATM   10  O   UNL     1     -13.588  13.337  72.673  1.00  0.00    -0.626 OA 
HETATM   11  C   UNL     1     -12.917  14.035  71.712  1.00  0.00    -0.353 A  
ENDBRANCH   3   4
ENDBRANCH   2   3
BRANCH   2  12
HETATM   12  N   UNL     1      -9.554  14.908  66.749  1.00  0.00    -0.239 NA 
HETATM   13  H   UNL     1     -10.147  14.082  66.668  1.00  0.00     0.000 HD 
BRANCH  12  14
HETATM   14  C   UNL     1     -10.027  15.968  65.852  1.00  0.00    -0.352 C  
BRANCH  14  15
HETATM   15  C   UNL     1     -11.320  15.558  65.098  1.00  0.00    -0.241 C  
HETATM   16  H   UNL     1     -12.375  16.226  63.568  1.00  0.00     0.000 HD 
HETATM   17  O   UNL     1     -11.584  16.477  64.030  1.00  0.00    -1.154 OA 
BRANCH  15  18
HETATM   18  C   UNL     1     -11.216  14.152  64.538  1.00  0.00    -0.345 A  
HETATM   19  O   UNL     1     -13.277  11.667  62.766  1.00  0.00    -0.623 OA 
HETATM   20  C   UNL     1     -12.225  12.261  63.399  1.00  0.00    -0.527 A  
HETATM   21  C   UNL     1     -12.309  13.570  63.876  1.00  0.00    -0.397 A  
HETATM   22  C   UNL     1     -11.064  11.513  63.555  1.00  0.00    -0.434 A  
HETATM   23  H   UNL     1     -13.219  10.776  62.441  1.00  0.00     0.000 HD 
HETATM   24  C   UNL     1      -9.979  12.087  64.203  1.00  0.00    -0.263 A  
HETATM   25  O   UNL     1      -8.815  11.402  64.391  1.00  0.00    -0.381 OA 
HETATM   26  C   UNL     1     -10.044  13.389  64.689  1.00  0.00    -0.256 A  
HETATM   27  H   UNL     1      -8.072  11.795  64.835  1.00  0.00     0.000 HD 
ENDBRANCH  15  18
ENDBRANCH  14  15
ENDBRANCH  12  14
ENDBRANCH   2  12
TORSDOF 6
ENDMDL
MODEL      123
REMARK 921   NORMALIZED FREE ENERGY PREDICTED BY IDOCK:   -5.78 KCAL/MOL
REMARK 922        TOTAL FREE ENERGY PREDICTED BY IDOCK:   -8.41 KCAL/MOL
REMARK 923 INTER-LIGAND FREE ENERGY PREDICTED BY IDOCK:   -7.48 KCAL/MOL
REMARK 924 INTRA-LIGAND FREE ENERGY PREDICTED BY IDOCK:   -0.93 KCAL/MOL
REMARK 927      BINDING AFFINITY PREDICTED BY RF-SCORE:    0.00 PKD
ROOT
HETATM    1  C   UNL     1      -8.706  11.901  66.890  1.00  0.00    -0.191 C  
HETATM    2  C   UNL     1      -9.157  11.047  65.697  1.00  0.00    -0.206 C  
ENDROOT
BRANCH   2   3
HETATM    3  C   UNL     1     -10.335  10.148  66.160  1.00  0.00    -0.237 C  
BRANCH   3   4
HETATM    4  C   UNL     1      -9.991   8.688  66.341  1.00  0.00    -0.331 A  
HETATM    5  C   UNL     1      -8.645   6.761  65.725  1.00  0.00    -0.144 A  
HETATM    6  H   UNL     1      -8.222   4.326  66.308  1.00  0.00     0.000 HD 
HETATM    7  C   UNL     1     -10.651   7.902  67.296  1.00  0.00    -0.365 A  
HETATM    8  C   UNL     1      -8.990   8.101  65.552  1.00  0.00    -0.082 A  
HETATM    9  C   UNL     1     -10.307   6.558  67.468  1.00  0.00    -0.252 A  
HETATM   10  O   UNL     1      -8.911   4.705  66.841  1.00  0.00    -0.110 OA 
HETATM   11  C   UNL     1      -9.299   6.003  66.686  1.00  0.00    -0.144 A  
ENDBRANCH   3   4
ENDBRANCH   2   3
BRANCH   2  12
HETATM   12  N   UNL     1      -9.542  11.875  64.543  1.00  0.00    -0.445 NA 
HETATM   13  H   UNL     1      -8.804  11.871  63.840  1.00  0.00     0.000 HD 
BRANCH  12  14
HETATM   14  C   UNL     1     -10.827  11.507  63.938  1.00  0.00    -0.401 C  
BRANCH  14  15
HETATM   15  C   UNL     1     -11.791  12.719  63.839  1.00  0.00    -0.468 C  
HETATM   16  H   UNL     1     -13.743  13.016  63.825  1.00  0.00     0.000 HD 
HETATM   17  O   UNL     1     -13.153  12.275  63.886  1.00  0.00    -0.772 OA 
BRANCH  15  18
HETATM   18  C   UNL     1     -11.549  13.717  64.956  1.00  0.00    -0.345 A  
HETATM   19  O   UNL     1      -9.798  16.899  65.560  1.00  0.00    -0.559 OA 
HETATM   20  C   UNL     1     -10.539  15.772  65.759  1.00  0.00    -0.355 A  
HETATM   21  C   UNL     1     -10.795  14.877  64.719  1.00  0.00    -0.382 A  
HETATM   22  C   UNL     1     -11.030  15.545  67.039  1.00  0.00    -0.283 A  
HETATM   23  H   UNL     1      -9.624  17.508  66.267  1.00  0.00     0.000 HD 
HETATM   24  C   UNL     1     -11.781  14.401  67.276  1.00  0.00    -0.404 A  
HETATM   25  O   UNL     1     -12.284  14.121  68.511  1.00  0.00    -0.526 OA 
HETATM   26  C   UNL     1     -12.044  13.495  66.253  1.00  0.00    -0.476 A  
HETATM   27  H   UNL     1     -12.798  13.338  68.674  1.00  0.00     0.000 HD 
ENDBRANCH  15  18
ENDBRANCH  14  15
ENDBRANCH  12  14
ENDBRANCH   2  12
TORSDOF 6
ENDMDL
MODEL      124
REMARK 921   NORMALIZED FREE ENERGY PREDICTED BY IDOCK:   -5.77 KCAL/MOL
REMARK 922        TOTAL FREE ENERGY PREDICTED BY IDOCK:   -8.41 KCAL/MOL
REMARK 923 INTER-LIGAND FREE ENERGY PREDICTED BY IDOCK:   -7.80 KCAL/MOL
REMARK 924 INTRA-LIGAND FREE ENERGY PREDICTED BY IDOCK:   -0.61 KCAL/MOL
REMARK 927      BINDING AFFINITY PREDICTED BY RF-SCORE:    0.00 PKD
ROOT
HETATM    1  C   UNL     1     -10.403  10.022  67.028  1.00  0.00    -0.305 C  
HETATM    2  C   UNL     1     -11.141  11.275  67.522  1.00  0.00    -0.286 C  
ENDROOT
BRANCH   2   3
HETATM    3  C   UNL     1     -11.767  11.987  66.293  1.00  0.00    -0.319 C  
BRANCH   3   4
HETATM    4  C   UNL     1     -11.330  13.421  66.096  1.00  0.00    -0.324 A  
HETATM    5  C   UNL     1     -10.105  15.365  66.884  1.00  0.00    -0.258 A  
HETATM    6  H   UNL     1      -9.453  17.735  66.244  1.00  0.00     0.000 HD 
HETATM    7  C   UNL     1     -11.698  14.137  64.948  1.00  0.00    -0.395 A  
HETATM    8  C   UNL     1     -10.536  14.051  67.065  1.00  0.00    -0.275 A  
HETATM    9  C   UNL     1     -11.268  15.455  64.767  1.00  0.00    -0.404 A  
HETATM   10  O   UNL     1     -10.001  17.326  65.584  1.00  0.00    -0.553 OA 
HETATM   11  C   UNL     1     -10.466  16.054  65.734  1.00  0.00    -0.374 A  
ENDBRANCH   3   4
ENDBRANCH   2   3
BRANCH   2  12
HETATM   12  N   UNL     1     -12.165  10.949  68.527  1.00  0.00    -0.809 NA 
HETATM   13  H   UNL     1     -12.289   9.939  68.594  1.00  0.00     0.000 HD 
BRANCH  12  14
HETATM   14  C   UNL     1     -11.914  11.524  69.853  1.00  0.00    -0.351 C  
BRANCH  14  15
HETATM   15  C   UNL     1     -12.435  10.608  70.991  1.00  0.00    -0.413 C  
HETATM   16  H   UNL     1     -13.961   9.389  71.283  1.00  0.00     0.000 HD 
HETATM   17  O   UNL     1     -13.642   9.949  70.586  1.00  0.00    -0.183 OA 
BRANCH  15  18
HETATM   18  C   UNL     1     -11.404   9.568  71.387  1.00  0.00    -0.462 A  
HETATM   19  O   UNL     1     -10.952   6.822  73.798  1.00  0.00    -0.499 OA 
HETATM   20  C   UNL     1     -10.714   7.719  72.798  1.00  0.00    -0.356 A  
HETATM   21  C   UNL     1     -11.681   8.647  72.409  1.00  0.00    -0.393 A  
HETATM   22  C   UNL     1      -9.470   7.677  72.182  1.00  0.00    -0.201 A  
HETATM   23  H   UNL     1     -10.294   6.191  74.063  1.00  0.00     0.000 HD 
HETATM   24  C   UNL     1      -9.193   8.582  71.166  1.00  0.00    -0.197 A  
HETATM   25  O   UNL     1      -7.989   8.594  70.527  1.00  0.00    -0.088 OA 
HETATM   26  C   UNL     1     -10.143   9.517  70.766  1.00  0.00    -0.352 A  
HETATM   27  H   UNL     1      -7.800   9.214  69.833  1.00  0.00     0.000 HD 
ENDBRANCH  15  18
ENDBRANCH  14  15
ENDBRANCH  12  14
ENDBRANCH   2  12
TORSDOF 6
ENDMDL
MODEL      125
REMARK 921   NORMALIZED FREE ENERGY PREDICTED BY IDOCK:   -5.77 KCAL/MOL
REMARK 922        TOTAL FREE ENERGY PREDICTED BY IDOCK:   -8.40 KCAL/MOL
REMARK 923 INTER-LIGAND FREE ENERGY PREDICTED BY IDOCK:   -7.48 KCAL/MOL
REMARK 924 INTRA-LIGAND FREE ENERGY PREDICTED BY IDOCK:   -0.93 KCAL/MOL
REMARK 927      BINDING AFFINITY PREDICTED BY RF-SCORE:    0.00 PKD
ROOT
HETATM    1  C   UNL     1      -8.953  14.130  68.545  1.00  0.00    -0.174 C  
HETATM    2  C   UNL     1      -9.995  13.335  67.746  1.00  0.00    -0.223 C  
ENDROOT
BRANCH   2   3
HETATM    3  C   UNL     1     -11.364  13.468  68.466  1.00  0.00    -0.327 C  
BRANCH   3   4
HETATM    4  C   UNL     1     -11.676  12.367  69.453  1.00  0.00    -0.384 A  
HETATM    5  C   UNL     1     -12.788  11.625  71.482  1.00  0.00    -0.469 A  
HETATM    6  H   UNL     1     -13.217   9.571  72.912  1.00  0.00     0.000 HD 
HETATM    7  C   UNL     1     -11.189  11.066  69.263  1.00  0.00    -0.321 A  
HETATM    8  C   UNL     1     -12.472  12.637  70.576  1.00  0.00    -0.273 A  
HETATM    9  C   UNL     1     -11.504  10.051  70.171  1.00  0.00    -0.344 A  
HETATM   10  O   UNL     1     -12.666   9.374  72.163  1.00  0.00    -0.384 OA 
HETATM   11  C   UNL     1     -12.310  10.339  71.268  1.00  0.00    -0.403 A  
ENDBRANCH   3   4
ENDBRANCH   2   3
BRANCH   2  12
HETATM   12  N   UNL     1     -10.082  13.790  66.350  1.00  0.00    -0.287 NA 
HETATM   13  H   UNL     1     -10.280  13.005  65.731  1.00  0.00     0.000 HD 
BRANCH  12  14
HETATM   14  C   UNL     1     -11.046  14.874  66.128  1.00  0.00    -0.335 C  
BRANCH  14  15
HETATM   15  C   UNL     1     -10.417  16.062  65.354  1.00  0.00    -0.392 C  
HETATM   16  H   UNL     1     -11.032  17.464  64.106  1.00  0.00     0.000 HD 
HETATM   17  O   UNL     1     -11.417  16.736  64.579  1.00  0.00    -0.866 OA 
BRANCH  15  18
HETATM   18  C   UNL     1      -9.758  17.053  66.295  1.00  0.00    -0.302 A  
HETATM   19  O   UNL     1     -10.595  19.182  69.181  1.00  0.00    -0.357 OA 
HETATM   20  C   UNL     1      -9.897  18.585  68.173  1.00  0.00    -0.346 A  
HETATM   21  C   UNL     1     -10.495  17.641  67.335  1.00  0.00    -0.356 A  
HETATM   22  C   UNL     1      -8.568  18.952  68.007  1.00  0.00    -0.330 A  
HETATM   23  H   UNL     1     -10.188  19.823  69.751  1.00  0.00     0.000 HD 
HETATM   24  C   UNL     1      -7.833  18.368  66.984  1.00  0.00    -0.227 A  
HETATM   25  O   UNL     1      -6.527  18.691  66.768  1.00  0.00    -0.180 OA 
HETATM   26  C   UNL     1      -8.412  17.429  66.136  1.00  0.00    -0.198 A  
HETATM   27  H   UNL     1      -6.024  18.292  66.067  1.00  0.00     0.000 HD 
ENDBRANCH  15  18
ENDBRANCH  14  15
ENDBRANCH  12  14
ENDBRANCH   2  12
TORSDOF 6
ENDMDL
MODEL      126
REMARK 921   NORMALIZED FREE ENERGY PREDICTED BY IDOCK:   -5.76 KCAL/MOL
REMARK 922        TOTAL FREE ENERGY PREDICTED BY IDOCK:   -8.39 KCAL/MOL
REMARK 923 INTER-LIGAND FREE ENERGY PREDICTED BY IDOCK:   -7.30 KCAL/MOL
REMARK 924 INTRA-LIGAND FREE ENERGY PREDICTED BY IDOCK:   -1.09 KCAL/MOL
REMARK 927      BINDING AFFINITY PREDICTED BY RF-SCORE:    0.00 PKD
ROOT
HETATM    1  C   UNL     1     -12.845  14.005  65.631  1.00  0.00    -0.442 C  
HETATM    2  C   UNL     1     -11.997  14.505  64.454  1.00  0.00    -0.449 C  
ENDROOT
BRANCH   2   3
HETATM    3  C   UNL     1     -10.581  14.852  64.988  1.00  0.00    -0.446 C  
BRANCH   3   4
HETATM    4  C   UNL     1     -10.516  16.069  65.881  1.00  0.00    -0.373 A  
HETATM    5  C   UNL     1     -10.351  17.027  68.108  1.00  0.00    -0.347 A  
HETATM    6  H   UNL     1     -10.166  19.237  69.345  1.00  0.00     0.000 HD 
HETATM    7  C   UNL     1     -10.524  17.363  65.342  1.00  0.00    -0.012 A  
HETATM    8  C   UNL     1     -10.436  15.913  67.273  1.00  0.00    -0.310 A  
HETATM    9  C   UNL     1     -10.441  18.480  66.179  1.00  0.00    -0.447 A  
HETATM   10  O   UNL     1     -10.232  19.360  68.406  1.00  0.00    -0.405 OA 
HETATM   11  C   UNL     1     -10.345  18.300  67.555  1.00  0.00    -0.398 A  
ENDBRANCH   3   4
ENDBRANCH   2   3
BRANCH   2  12
HETATM   12  N   UNL     1     -11.928  13.516  63.367  1.00  0.00    -0.795 NA 
HETATM   13  H   UNL     1     -11.033  13.581  62.882  1.00  0.00     0.000 HD 
BRANCH  12  14
HETATM   14  C   UNL     1     -12.181  12.135  63.791  1.00  0.00    -0.531 C  
BRANCH  14  15
HETATM   15  C   UNL     1     -10.867  11.329  63.963  1.00  0.00    -0.344 C  
HETATM   16  H   UNL     1      -9.021  11.405  63.263  1.00  0.00     0.000 HD 
HETATM   17  O   UNL     1      -9.826  11.898  63.158  1.00  0.00    -0.405 OA 
BRANCH  15  18
HETATM   18  C   UNL     1     -10.419  11.294  65.412  1.00  0.00    -0.326 A  
HETATM   19  O   UNL     1      -7.481  12.117  67.473  1.00  0.00    -0.126 OA 
HETATM   20  C   UNL     1      -8.720  11.687  67.100  1.00  0.00    -0.164 A  
HETATM   21  C   UNL     1      -9.144  11.759  65.772  1.00  0.00    -0.088 A  
HETATM   22  C   UNL     1      -9.545  11.170  68.090  1.00  0.00    -0.181 A  
HETATM   23  H   UNL     1      -7.193  12.068  68.377  1.00  0.00     0.000 HD 
HETATM   24  C   UNL     1     -10.810  10.715  67.740  1.00  0.00    -0.286 A  
HETATM   25  O   UNL     1     -11.663  10.193  68.665  1.00  0.00    -0.542 OA 
HETATM   26  C   UNL     1     -11.250  10.775  66.421  1.00  0.00     0.116 A  
HETATM   27  H   UNL     1     -12.528   9.881  68.426  1.00  0.00     0.000 HD 
ENDBRANCH  15  18
ENDBRANCH  14  15
ENDBRANCH  12  14
ENDBRANCH   2  12
TORSDOF 6
ENDMDL
MODEL      127
REMARK 921   NORMALIZED FREE ENERGY PREDICTED BY IDOCK:   -5.75 KCAL/MOL
REMARK 922        TOTAL FREE ENERGY PREDICTED BY IDOCK:   -8.38 KCAL/MOL
REMARK 923 INTER-LIGAND FREE ENERGY PREDICTED BY IDOCK:   -7.44 KCAL/MOL
REMARK 924 INTRA-LIGAND FREE ENERGY PREDICTED BY IDOCK:   -0.94 KCAL/MOL
REMARK 927      BINDING AFFINITY PREDICTED BY RF-SCORE:    0.00 PKD
ROOT
HETATM    1  C   UNL     1     -12.255  13.975  66.969  1.00  0.00    -0.387 C  
HETATM    2  C   UNL     1     -11.242  14.225  68.095  1.00  0.00    -0.275 C  
ENDROOT
BRANCH   2   3
HETATM    3  C   UNL     1     -11.637  13.344  69.310  1.00  0.00    -0.365 C  
BRANCH   3   4
HETATM    4  C   UNL     1     -12.084  14.109  70.536  1.00  0.00    -0.420 A  
HETATM    5  C   UNL     1     -11.986  16.113  71.904  1.00  0.00    -0.583 A  
HETATM    6  H   UNL     1     -12.980  17.191  73.978  1.00  0.00     0.000 HD 
HETATM    7  C   UNL     1     -13.022  13.565  71.425  1.00  0.00    -0.421 A  
HETATM    8  C   UNL     1     -11.565  15.386  70.791  1.00  0.00    -0.381 A  
HETATM    9  C   UNL     1     -13.443  14.293  72.542  1.00  0.00    -0.613 A  
HETATM   10  O   UNL     1     -13.332  16.322  73.826  1.00  0.00    -0.670 OA 
HETATM   11  C   UNL     1     -12.928  15.566  72.765  1.00  0.00    -0.457 A  
ENDBRANCH   3   4
ENDBRANCH   2   3
BRANCH   2  12
HETATM   12  N   UNL     1      -9.862  13.950  67.665  1.00  0.00    -0.232 NA 
HETATM   13  H   UNL     1      -9.302  13.623  68.452  1.00  0.00     0.000 HD 
BRANCH  12  14
HETATM   14  C   UNL     1      -9.757  13.016  66.539  1.00  0.00    -0.266 C  
BRANCH  14  15
HETATM   15  C   UNL     1      -8.658  11.945  66.772  1.00  0.00    -0.181 C  
HETATM   16  H   UNL     1      -6.856  11.874  67.576  1.00  0.00     0.000 HD 
HETATM   17  O   UNL     1      -7.528  12.529  67.433  1.00  0.00    -0.142 OA 
BRANCH  15  18
HETATM   18  C   UNL     1      -9.178  10.784  67.598  1.00  0.00    -0.152 A  
HETATM   19  O   UNL     1     -11.050   7.641  67.176  1.00  0.00    -0.518 OA 
HETATM   20  C   UNL     1     -10.372   8.676  67.749  1.00  0.00    -0.242 A  
HETATM   21  C   UNL     1      -9.859   9.723  66.981  1.00  0.00    -0.245 A  
HETATM   22  C   UNL     1     -10.214   8.654  69.129  1.00  0.00    -0.215 A  
HETATM   23  H   UNL     1     -11.399   6.929  67.699  1.00  0.00     0.000 HD 
HETATM   24  C   UNL     1      -9.536   9.698  69.743  1.00  0.00    -0.220 A  
HETATM   25  O   UNL     1      -9.352   9.735  71.094  1.00  0.00    -0.313 OA 
HETATM   26  C   UNL     1      -9.019  10.752  68.995  1.00  0.00    -0.141 A  
HETATM   27  H   UNL     1      -8.889  10.450  71.514  1.00  0.00     0.000 HD 
ENDBRANCH  15  18
ENDBRANCH  14  15
ENDBRANCH  12  14
ENDBRANCH   2  12
TORSDOF 6
ENDMDL
MODEL      128
REMARK 921   NORMALIZED FREE ENERGY PREDICTED BY IDOCK:   -5.75 KCAL/MOL
REMARK 922        TOTAL FREE ENERGY PREDICTED BY IDOCK:   -8.38 KCAL/MOL
REMARK 923 INTER-LIGAND FREE ENERGY PREDICTED BY IDOCK:   -8.00 KCAL/MOL
REMARK 924 INTRA-LIGAND FREE ENERGY PREDICTED BY IDOCK:   -0.38 KCAL/MOL
REMARK 927      BINDING AFFINITY PREDICTED BY RF-SCORE:    0.00 PKD
ROOT
HETATM    1  C   UNL     1      -9.151  10.813  67.472  1.00  0.00    -0.143 C  
HETATM    2  C   UNL     1     -10.559  11.415  67.368  1.00  0.00    -0.218 C  
ENDROOT
BRANCH   2   3
HETATM    3  C   UNL     1     -10.912  11.569  65.864  1.00  0.00    -0.301 C  
BRANCH   3   4
HETATM    4  C   UNL     1     -11.043  12.996  65.381  1.00  0.00    -0.300 A  
HETATM    5  C   UNL     1     -12.328  14.709  64.235  1.00  0.00    -0.375 A  
HETATM    6  H   UNL     1     -12.314  17.177  63.633  1.00  0.00     0.000 HD 
HETATM    7  C   UNL     1     -10.044  13.943  65.646  1.00  0.00    -0.332 A  
HETATM    8  C   UNL     1     -12.182  13.391  64.665  1.00  0.00    -0.456 A  
HETATM    9  C   UNL     1     -10.188  15.264  65.214  1.00  0.00    -0.397 A  
HETATM   10  O   UNL     1     -11.531  16.922  64.106  1.00  0.00    -1.174 OA 
HETATM   11  C   UNL     1     -11.335  15.637  64.520  1.00  0.00    -0.320 A  
ENDBRANCH   3   4
ENDBRANCH   2   3
BRANCH   2  12
HETATM   12  N   UNL     1     -11.561  10.596  68.068  1.00  0.00    -0.686 NA 
HETATM   13  H   UNL     1     -12.219  10.191  67.402  1.00  0.00     0.000 HD 
BRANCH  12  14
HETATM   14  C   UNL     1     -10.992   9.550  68.925  1.00  0.00    -0.086 C  
BRANCH  14  15
HETATM   15  C   UNL     1     -10.794  10.038  70.384  1.00  0.00    -0.318 C  
HETATM   16  H   UNL     1     -11.736  11.220  71.654  1.00  0.00     0.000 HD 
HETATM   17  O   UNL     1     -11.858  10.922  70.761  1.00  0.00    -0.333 OA 
BRANCH  15  18
HETATM   18  C   UNL     1     -10.738   8.875  71.358  1.00  0.00    -0.382 A  
HETATM   19  O   UNL     1     -12.814   6.057  72.502  1.00  0.00    -0.507 OA 
HETATM   20  C   UNL     1     -11.777   6.934  72.379  1.00  0.00    -0.214 A  
HETATM   21  C   UNL     1     -11.813   7.978  71.453  1.00  0.00    -0.326 A  
HETATM   22  C   UNL     1     -10.681   6.753  73.213  1.00  0.00    -0.330 A  
HETATM   23  H   UNL     1     -12.788   5.347  73.132  1.00  0.00     0.000 HD 
HETATM   24  C   UNL     1      -9.613   7.635  73.119  1.00  0.00    -0.256 A  
HETATM   25  O   UNL     1      -8.512   7.512  73.913  1.00  0.00    -0.164 OA 
HETATM   26  C   UNL     1      -9.632   8.683  72.204  1.00  0.00    -0.378 A  
HETATM   27  H   UNL     1      -7.781   8.116  73.849  1.00  0.00     0.000 HD 
ENDBRANCH  15  18
ENDBRANCH  14  15
ENDBRANCH  12  14
ENDBRANCH   2  12
TORSDOF 6
ENDMDL
MODEL      129
REMARK 921   NORMALIZED FREE ENERGY PREDICTED BY IDOCK:   -5.75 KCAL/MOL
REMARK 922        TOTAL FREE ENERGY PREDICTED BY IDOCK:   -8.38 KCAL/MOL
REMARK 923 INTER-LIGAND FREE ENERGY PREDICTED BY IDOCK:   -7.67 KCAL/MOL
REMARK 924 INTRA-LIGAND FREE ENERGY PREDICTED BY IDOCK:   -0.71 KCAL/MOL
REMARK 927      BINDING AFFINITY PREDICTED BY RF-SCORE:    0.00 PKD
ROOT
HETATM    1  C   UNL     1      -8.060  13.759  67.283  1.00  0.00    -0.154 C  
HETATM    2  C   UNL     1      -8.830  14.989  66.781  1.00  0.00    -0.268 C  
ENDROOT
BRANCH   2   3
HETATM    3  C   UNL     1      -7.822  16.157  66.609  1.00  0.00    -0.288 C  
BRANCH   3   4
HETATM    4  C   UNL     1      -8.404  17.537  66.808  1.00  0.00    -0.277 A  
HETATM    5  C   UNL     1      -9.984  19.002  67.932  1.00  0.00    -0.427 A  
HETATM    6  H   UNL     1     -10.698  21.432  68.123  1.00  0.00     0.000 HD 
HETATM    7  C   UNL     1      -7.906  18.641  66.102  1.00  0.00    -0.246 A  
HETATM    8  C   UNL     1      -9.453  17.730  67.719  1.00  0.00    -0.262 A  
HETATM    9  C   UNL     1      -8.439  19.916  66.312  1.00  0.00    -0.373 A  
HETATM   10  O   UNL     1      -9.996  21.316  67.493  1.00  0.00    -0.125 OA 
HETATM   11  C   UNL     1      -9.467  20.086  67.235  1.00  0.00    -0.381 A  
ENDBRANCH   3   4
ENDBRANCH   2   3
BRANCH   2  12
HETATM   12  N   UNL     1      -9.546  14.714  65.526  1.00  0.00    -0.520 NA 
HETATM   13  H   UNL     1      -9.625  13.709  65.373  1.00  0.00     0.000 HD 
BRANCH  12  14
HETATM   14  C   UNL     1     -10.863  15.352  65.430  1.00  0.00    -0.391 C  
BRANCH  14  15
HETATM   15  C   UNL     1     -12.017  14.337  65.642  1.00  0.00    -0.386 C  
HETATM   16  H   UNL     1     -12.767  12.779  64.689  1.00  0.00     0.000 HD 
HETATM   17  O   UNL     1     -12.061  13.400  64.558  1.00  0.00    -0.379 OA 
BRANCH  15  18
HETATM   18  C   UNL     1     -11.864  13.585  66.951  1.00  0.00    -0.452 A  
HETATM   19  O   UNL     1     -11.481  14.246  70.553  1.00  0.00    -0.459 OA 
HETATM   20  C   UNL     1     -11.589  13.590  69.362  1.00  0.00    -0.312 A  
HETATM   21  C   UNL     1     -11.772  14.284  68.164  1.00  0.00    -0.385 A  
HETATM   22  C   UNL     1     -11.506  12.204  69.383  1.00  0.00    -0.355 A  
HETATM   23  H   UNL     1     -11.357  13.774  71.368  1.00  0.00     0.000 HD 
HETATM   24  C   UNL     1     -11.603  11.508  68.186  1.00  0.00    -0.308 A  
HETATM   25  O   UNL     1     -11.525  10.148  68.141  1.00  0.00    -0.547 OA 
HETATM   26  C   UNL     1     -11.782  12.181  66.981  1.00  0.00    -0.373 A  
HETATM   27  H   UNL     1     -11.590   9.671  67.322  1.00  0.00     0.000 HD 
ENDBRANCH  15  18
ENDBRANCH  14  15
ENDBRANCH  12  14
ENDBRANCH   2  12
TORSDOF 6
ENDMDL
MODEL      130
REMARK 921   NORMALIZED FREE ENERGY PREDICTED BY IDOCK:   -5.74 KCAL/MOL
REMARK 922        TOTAL FREE ENERGY PREDICTED BY IDOCK:   -8.36 KCAL/MOL
REMARK 923 INTER-LIGAND FREE ENERGY PREDICTED BY IDOCK:   -7.85 KCAL/MOL
REMARK 924 INTRA-LIGAND FREE ENERGY PREDICTED BY IDOCK:   -0.51 KCAL/MOL
REMARK 927      BINDING AFFINITY PREDICTED BY RF-SCORE:    0.00 PKD
ROOT
HETATM    1  C   UNL     1      -7.713  14.033  67.305  1.00  0.00    -0.120 C  
HETATM    2  C   UNL     1      -8.820  15.094  67.369  1.00  0.00    -0.186 C  
ENDROOT
BRANCH   2   3
HETATM    3  C   UNL     1      -9.316  15.367  65.923  1.00  0.00    -0.329 C  
BRANCH   3   4
HETATM    4  C   UNL     1     -10.406  14.440  65.437  1.00  0.00    -0.400 A  
HETATM    5  C   UNL     1     -12.769  13.932  65.191  1.00  0.00    -0.434 A  
HETATM    6  H   UNL     1     -14.375  12.239  64.189  1.00  0.00     0.000 HD 
HETATM    7  C   UNL     1     -10.096  13.254  64.755  1.00  0.00    -0.250 A  
HETATM    8  C   UNL     1     -11.752  14.766  65.656  1.00  0.00    -0.257 A  
HETATM    9  C   UNL     1     -11.114  12.417  64.291  1.00  0.00    -0.399 A  
HETATM   10  O   UNL     1     -13.468  11.998  64.043  1.00  0.00    -0.655 OA 
HETATM   11  C   UNL     1     -12.443  12.770  64.505  1.00  0.00    -0.428 A  
ENDBRANCH   3   4
ENDBRANCH   2   3
BRANCH   2  12
HETATM   12  N   UNL     1      -9.929  14.679  68.242  1.00  0.00    -0.216 NA 
HETATM   13  H   UNL     1     -10.824  14.952  67.836  1.00  0.00     0.000 HD 
BRANCH  12  14
HETATM   14  C   UNL     1      -9.932  13.251  68.576  1.00  0.00    -0.188 C  
BRANCH  14  15
HETATM   15  C   UNL     1     -11.345  12.626  68.443  1.00  0.00    -0.290 C  
HETATM   16  H   UNL     1     -12.111  10.874  67.948  1.00  0.00     0.000 HD 
HETATM   17  O   UNL     1     -11.246  11.257  68.029  1.00  0.00    -0.240 OA 
BRANCH  15  18
HETATM   18  C   UNL     1     -12.113  12.701  69.750  1.00  0.00    -0.301 A  
HETATM   19  O   UNL     1     -13.600  15.205  72.003  1.00  0.00    -0.368 OA 
HETATM   20  C   UNL     1     -13.198  14.011  71.480  1.00  0.00    -0.359 A  
HETATM   21  C   UNL     1     -12.529  13.942  70.257  1.00  0.00    -0.380 A  
HETATM   22  C   UNL     1     -13.478  12.864  72.212  1.00  0.00    -0.631 A  
HETATM   23  H   UNL     1     -14.056  15.252  72.835  1.00  0.00     0.000 HD 
HETATM   24  C   UNL     1     -13.074  11.634  71.710  1.00  0.00    -0.382 A  
HETATM   25  O   UNL     1     -13.314  10.473  72.384  1.00  0.00    -0.602 OA 
HETATM   26  C   UNL     1     -12.402  11.544  70.495  1.00  0.00    -0.432 A  
HETATM   27  H   UNL     1     -13.038   9.631  72.041  1.00  0.00     0.000 HD 
ENDBRANCH  15  18
ENDBRANCH  14  15
ENDBRANCH  12  14
ENDBRANCH   2  12
TORSDOF 6
ENDMDL
MODEL      131
REMARK 921   NORMALIZED FREE ENERGY PREDICTED BY IDOCK:   -5.72 KCAL/MOL
REMARK 922        TOTAL FREE ENERGY PREDICTED BY IDOCK:   -8.34 KCAL/MOL
REMARK 923 INTER-LIGAND FREE ENERGY PREDICTED BY IDOCK:   -7.62 KCAL/MOL
REMARK 924 INTRA-LIGAND FREE ENERGY PREDICTED BY IDOCK:   -0.71 KCAL/MOL
REMARK 927      BINDING AFFINITY PREDICTED BY RF-SCORE:    0.00 PKD
ROOT
HETATM    1  C   UNL     1      -9.819   9.670  70.165  1.00  0.00    -0.310 C  
HETATM    2  C   UNL     1     -10.812   9.820  71.326  1.00  0.00    -0.206 C  
ENDROOT
BRANCH   2   3
HETATM    3  C   UNL     1     -12.182  10.258  70.741  1.00  0.00    -0.447 C  
BRANCH   3   4
HETATM    4  C   UNL     1     -12.535  11.711  70.963  1.00  0.00    -0.436 A  
HETATM    5  C   UNL     1     -12.343  14.039  70.294  1.00  0.00    -0.425 A  
HETATM    6  H   UNL     1     -13.178  16.373  70.849  1.00  0.00     0.000 HD 
HETATM    7  C   UNL     1     -13.396  12.096  72.000  1.00  0.00    -0.470 A  
HETATM    8  C   UNL     1     -12.007  12.698  70.117  1.00  0.00    -0.375 A  
HETATM    9  C   UNL     1     -13.733  13.441  72.180  1.00  0.00    -0.646 A  
HETATM   10  O   UNL     1     -13.535  15.718  71.438  1.00  0.00    -0.511 OA 
HETATM   11  C   UNL     1     -13.210  14.399  71.317  1.00  0.00    -0.349 A  
ENDBRANCH   3   4
ENDBRANCH   2   3
BRANCH   2  12
HETATM   12  N   UNL     1     -10.939   8.579  72.104  1.00  0.00    -0.336 NA 
HETATM   13  H   UNL     1     -11.453   8.750  72.968  1.00  0.00     0.000 HD 
BRANCH  12  14
HETATM   14  C   UNL     1     -11.538   7.462  71.365  1.00  0.00    -0.275 C  
BRANCH  14  15
HETATM   15  C   UNL     1     -10.648   6.192  71.409  1.00  0.00    -0.243 C  
HETATM   16  H   UNL     1     -10.726   4.399  72.234  1.00  0.00     0.000 HD 
HETATM   17  O   UNL     1     -11.270   5.177  72.208  1.00  0.00    -0.167 OA 
BRANCH  15  18
HETATM   18  C   UNL     1     -10.387   5.646  70.018  1.00  0.00    -0.345 A  
HETATM   19  O   UNL     1     -11.269   6.335  66.510  1.00  0.00    -0.726 OA 
HETATM   20  C   UNL     1     -10.731   5.749  67.618  1.00  0.00    -0.229 A  
HETATM   21  C   UNL     1     -10.939   6.278  68.893  1.00  0.00    -0.435 A  
HETATM   22  C   UNL     1      -9.970   4.602  67.432  1.00  0.00    -0.190 A  
HETATM   23  H   UNL     1     -11.127   5.975  65.642  1.00  0.00     0.000 HD 
HETATM   24  C   UNL     1      -9.417   3.977  68.541  1.00  0.00    -0.151 A  
HETATM   25  O   UNL     1      -8.665   2.846  68.423  1.00  0.00    -0.084 OA 
HETATM   26  C   UNL     1      -9.616   4.487  69.820  1.00  0.00    -0.270 A  
HETATM   27  H   UNL     1      -8.287   2.418  69.183  1.00  0.00     0.000 HD 
ENDBRANCH  15  18
ENDBRANCH  14  15
ENDBRANCH  12  14
ENDBRANCH   2  12
TORSDOF 6
ENDMDL
MODEL      132
REMARK 921   NORMALIZED FREE ENERGY PREDICTED BY IDOCK:   -5.72 KCAL/MOL
REMARK 922        TOTAL FREE ENERGY PREDICTED BY IDOCK:   -8.33 KCAL/MOL
REMARK 923 INTER-LIGAND FREE ENERGY PREDICTED BY IDOCK:   -7.50 KCAL/MOL
REMARK 924 INTRA-LIGAND FREE ENERGY PREDICTED BY IDOCK:   -0.83 KCAL/MOL
REMARK 927      BINDING AFFINITY PREDICTED BY RF-SCORE:    0.00 PKD
ROOT
HETATM    1  C   UNL     1      -8.787   7.806  69.783  1.00  0.00    -0.139 C  
HETATM    2  C   UNL     1      -9.884   8.807  69.395  1.00  0.00    -0.186 C  
ENDROOT
BRANCH   2   3
HETATM    3  C   UNL     1     -10.388   8.448  67.971  1.00  0.00    -0.270 C  
BRANCH   3   4
HETATM    4  C   UNL     1     -10.459   9.610  67.007  1.00  0.00    -0.302 A  
HETATM    5  C   UNL     1     -11.171  11.880  66.512  1.00  0.00    -0.383 A  
HETATM    6  H   UNL     1     -11.054  13.687  64.732  1.00  0.00     0.000 HD 
HETATM    7  C   UNL     1      -9.866   9.536  65.739  1.00  0.00    -0.363 A  
HETATM    8  C   UNL     1     -11.118  10.791  67.381  1.00  0.00    -0.363 A  
HETATM    9  C   UNL     1      -9.919  10.626  64.867  1.00  0.00    -0.382 A  
HETATM   10  O   UNL     1     -10.615  12.891  64.459  1.00  0.00    -0.337 OA 
HETATM   11  C   UNL     1     -10.564  11.793  65.266  1.00  0.00    -0.278 A  
ENDBRANCH   3   4
ENDBRANCH   2   3
BRANCH   2  12
HETATM   12  N   UNL     1     -10.990   8.813  70.365  1.00  0.00    -0.234 NA 
HETATM   13  H   UNL     1     -10.891   8.041  71.024  1.00  0.00     0.000 HD 
BRANCH  12  14
HETATM   14  C   UNL     1     -11.157  10.082  71.082  1.00  0.00    -0.200 C  
BRANCH  14  15
HETATM   15  C   UNL     1     -12.635  10.550  71.101  1.00  0.00    -0.417 C  
HETATM   16  H   UNL     1     -14.208  10.326  72.275  1.00  0.00     0.000 HD 
HETATM   17  O   UNL     1     -13.303  10.040  72.263  1.00  0.00    -0.429 OA 
BRANCH  15  18
HETATM   18  C   UNL     1     -12.741  12.063  71.085  1.00  0.00    -0.365 A  
HETATM   19  O   UNL     1     -11.869  14.925  68.939  1.00  0.00    -0.332 OA 
HETATM   20  C   UNL     1     -12.332  14.190  69.990  1.00  0.00    -0.344 A  
HETATM   21  C   UNL     1     -12.272  12.795  69.984  1.00  0.00    -0.279 A  
HETATM   22  C   UNL     1     -12.865  14.880  71.071  1.00  0.00    -0.425 A  
HETATM   23  H   UNL     1     -11.911  15.874  68.944  1.00  0.00     0.000 HD 
HETATM   24  C   UNL     1     -13.337  14.160  72.161  1.00  0.00    -0.436 A  
HETATM   25  O   UNL     1     -13.865  14.780  73.253  1.00  0.00    -0.490 OA 
HETATM   26  C   UNL     1     -13.282  12.769  72.175  1.00  0.00    -0.546 A  
HETATM   27  H   UNL     1     -14.188  14.288  73.999  1.00  0.00     0.000 HD 
ENDBRANCH  15  18
ENDBRANCH  14  15
ENDBRANCH  12  14
ENDBRANCH   2  12
TORSDOF 6
ENDMDL
MODEL      133
REMARK 921   NORMALIZED FREE ENERGY PREDICTED BY IDOCK:   -5.67 KCAL/MOL
REMARK 922        TOTAL FREE ENERGY PREDICTED BY IDOCK:   -8.26 KCAL/MOL
REMARK 923 INTER-LIGAND FREE ENERGY PREDICTED BY IDOCK:   -7.32 KCAL/MOL
REMARK 924 INTRA-LIGAND FREE ENERGY PREDICTED BY IDOCK:   -0.94 KCAL/MOL
REMARK 927      BINDING AFFINITY PREDICTED BY RF-SCORE:    0.00 PKD
ROOT
HETATM    1  C   UNL     1     -10.310  12.261  65.614  1.00  0.00    -0.287 C  
HETATM    2  C   UNL     1     -10.405  12.245  67.146  1.00  0.00    -0.218 C  
ENDROOT
BRANCH   2   3
HETATM    3  C   UNL     1     -11.762  12.877  67.556  1.00  0.00    -0.422 C  
BRANCH   3   4
HETATM    4  C   UNL     1     -11.706  13.777  68.770  1.00  0.00    -0.391 A  
HETATM    5  C   UNL     1     -12.570  14.410  70.950  1.00  0.00    -0.422 A  
HETATM    6  H   UNL     1     -12.181  16.002  72.890  1.00  0.00     0.000 HD 
HETATM    7  C   UNL     1     -10.738  14.786  68.877  1.00  0.00    -0.253 A  
HETATM    8  C   UNL     1     -12.625  13.603  69.814  1.00  0.00    -0.055 A  
HETATM    9  C   UNL     1     -10.684  15.597  70.015  1.00  0.00    -0.345 A  
HETATM   10  O   UNL     1     -11.559  16.141  72.186  1.00  0.00    -0.450 OA 
HETATM   11  C   UNL     1     -11.595  15.393  71.046  1.00  0.00    -0.367 A  
ENDBRANCH   3   4
ENDBRANCH   2   3
BRANCH   2  12
HETATM   12  N   UNL     1     -10.265  10.886  67.691  1.00  0.00    -0.178 NA 
HETATM   13  H   UNL     1      -9.655  10.324  67.096  1.00  0.00     0.000 HD 
BRANCH  12  14
HETATM   14  C   UNL     1      -9.806  10.838  69.083  1.00  0.00    -0.175 C  
BRANCH  14  15
HETATM   15  C   UNL     1      -9.918   9.412  69.684  1.00  0.00    -0.197 C  
HETATM   16  H   UNL     1      -8.808   8.223  70.805  1.00  0.00     0.000 HD 
HETATM   17  O   UNL     1      -8.740   9.096  70.436  1.00  0.00    -0.173 OA 
BRANCH  15  18
HETATM   18  C   UNL     1     -11.136   9.279  70.579  1.00  0.00    -0.317 A  
HETATM   19  O   UNL     1     -13.294   6.672  72.031  1.00  0.00    -0.500 OA 
HETATM   20  C   UNL     1     -12.780   7.893  71.703  1.00  0.00    -0.330 A  
HETATM   21  C   UNL     1     -11.635   8.011  70.914  1.00  0.00    -0.284 A  
HETATM   22  C   UNL     1     -13.441   9.016  72.182  1.00  0.00    -0.514 A  
HETATM   23  H   UNL     1     -14.073   6.592  72.568  1.00  0.00     0.000 HD 
HETATM   24  C   UNL     1     -12.948  10.273  71.859  1.00  0.00    -0.449 A  
HETATM   25  O   UNL     1     -13.555  11.414  72.294  1.00  0.00    -0.537 OA 
HETATM   26  C   UNL     1     -11.810  10.412  71.070  1.00  0.00    -0.458 A  
HETATM   27  H   UNL     1     -13.218  12.274  72.072  1.00  0.00     0.000 HD 
ENDBRANCH  15  18
ENDBRANCH  14  15
ENDBRANCH  12  14
ENDBRANCH   2  12
TORSDOF 6
ENDMDL
MODEL      134
REMARK 921   NORMALIZED FREE ENERGY PREDICTED BY IDOCK:   -5.64 KCAL/MOL
REMARK 922        TOTAL FREE ENERGY PREDICTED BY IDOCK:   -8.23 KCAL/MOL
REMARK 923 INTER-LIGAND FREE ENERGY PREDICTED BY IDOCK:   -7.27 KCAL/MOL
REMARK 924 INTRA-LIGAND FREE ENERGY PREDICTED BY IDOCK:   -0.97 KCAL/MOL
REMARK 927      BINDING AFFINITY PREDICTED BY RF-SCORE:    0.00 PKD
ROOT
HETATM    1  C   UNL     1     -11.680  12.165  64.005  1.00  0.00    -0.515 C  
HETATM    2  C   UNL     1     -10.984  12.905  65.155  1.00  0.00    -0.289 C  
ENDROOT
BRANCH   2   3
HETATM    3  C   UNL     1     -12.057  13.717  65.931  1.00  0.00    -0.476 C  
BRANCH   3   4
HETATM    4  C   UNL     1     -11.517  14.862  66.756  1.00  0.00    -0.304 A  
HETATM    5  C   UNL     1     -11.398  16.042  68.877  1.00  0.00    -0.370 A  
HETATM    6  H   UNL     1     -10.267  17.998  70.036  1.00  0.00     0.000 HD 
HETATM    7  C   UNL     1     -10.618  15.789  66.208  1.00  0.00    -0.313 A  
HETATM    8  C   UNL     1     -11.906  15.005  68.096  1.00  0.00    -0.286 A  
HETATM    9  C   UNL     1     -10.109  16.830  66.989  1.00  0.00    -0.276 A  
HETATM   10  O   UNL     1     -10.003  17.923  69.127  1.00  0.00    -0.303 OA 
HETATM   11  C   UNL     1     -10.497  16.941  68.321  1.00  0.00    -0.352 A  
ENDBRANCH   3   4
ENDBRANCH   2   3
BRANCH   2  12
HETATM   12  N   UNL     1     -10.267  11.982  66.048  1.00  0.00    -0.220 NA 
HETATM   13  H   UNL     1      -9.432  12.428  66.427  1.00  0.00     0.000 HD 
BRANCH  12  14
HETATM   14  C   UNL     1     -11.088  11.431  67.132  1.00  0.00    -0.305 C  
BRANCH  14  15
HETATM   15  C   UNL     1     -10.269  11.216  68.431  1.00  0.00    -0.188 C  
HETATM   16  H   UNL     1      -8.930  12.220  69.480  1.00  0.00     0.000 HD 
HETATM   17  O   UNL     1      -9.432  12.352  68.684  1.00  0.00    -0.136 OA 
BRANCH  15  18
HETATM   18  C   UNL     1     -11.172  10.981  69.628  1.00  0.00    -0.345 A  
HETATM   19  O   UNL     1     -12.438   8.214  71.701  1.00  0.00    -0.301 OA 
HETATM   20  C   UNL     1     -12.225   9.466  71.204  1.00  0.00    -0.323 A  
HETATM   21  C   UNL     1     -11.361   9.684  70.129  1.00  0.00    -0.275 A  
HETATM   22  C   UNL     1     -12.904  10.519  71.804  1.00  0.00    -0.559 A  
HETATM   23  H   UNL     1     -13.026   8.066  72.432  1.00  0.00     0.000 HD 
HETATM   24  C   UNL     1     -12.715  11.805  71.316  1.00  0.00    -0.316 A  
HETATM   25  O   UNL     1     -13.356  12.878  71.859  1.00  0.00    -0.458 OA 
HETATM   26  C   UNL     1     -11.860  12.042  70.243  1.00  0.00    -0.356 A  
HETATM   27  H   UNL     1     -13.227  13.757  71.524  1.00  0.00     0.000 HD 
ENDBRANCH  15  18
ENDBRANCH  14  15
ENDBRANCH  12  14
ENDBRANCH   2  12
TORSDOF 6
ENDMDL
MODEL      135
REMARK 921   NORMALIZED FREE ENERGY PREDICTED BY IDOCK:   -5.63 KCAL/MOL
REMARK 922        TOTAL FREE ENERGY PREDICTED BY IDOCK:   -8.22 KCAL/MOL
REMARK 923 INTER-LIGAND FREE ENERGY PREDICTED BY IDOCK:   -7.66 KCAL/MOL
REMARK 924 INTRA-LIGAND FREE ENERGY PREDICTED BY IDOCK:   -0.56 KCAL/MOL
REMARK 927      BINDING AFFINITY PREDICTED BY RF-SCORE:    0.00 PKD
ROOT
HETATM    1  C   UNL     1     -11.407  12.332  69.144  1.00  0.00    -0.330 C  
HETATM    2  C   UNL     1     -11.624  11.209  68.120  1.00  0.00    -0.280 C  
ENDROOT
BRANCH   2   3
HETATM    3  C   UNL     1     -10.713  11.486  66.894  1.00  0.00    -0.304 C  
BRANCH   3   4
HETATM    4  C   UNL     1     -11.039  12.749  66.129  1.00  0.00    -0.322 A  
HETATM    5  C   UNL     1     -10.339  14.900  65.242  1.00  0.00    -0.424 A  
HETATM    6  H   UNL     1     -11.140  16.862  63.843  1.00  0.00     0.000 HD 
HETATM    7  C   UNL     1     -12.307  12.945  65.565  1.00  0.00    -0.517 A  
HETATM    8  C   UNL     1     -10.061  13.741  65.966  1.00  0.00    -0.320 A  
HETATM    9  C   UNL     1     -12.588  14.108  64.841  1.00  0.00    -0.362 A  
HETATM   10  O   UNL     1     -11.817  16.205  63.954  1.00  0.00    -0.921 OA 
HETATM   11  C   UNL     1     -11.596  15.070  64.678  1.00  0.00    -0.386 A  
ENDBRANCH   3   4
ENDBRANCH   2   3
BRANCH   2  12
HETATM   12  N   UNL     1     -11.354   9.882  68.694  1.00  0.00    -0.498 NA 
HETATM   13  H   UNL     1     -12.224   9.435  68.983  1.00  0.00     0.000 HD 
BRANCH  12  14
HETATM   14  C   UNL     1     -10.585   8.991  67.819  1.00  0.00    -0.214 C  
BRANCH  14  15
HETATM   15  C   UNL     1      -9.922   7.831  68.607  1.00  0.00    -0.182 C  
HETATM   16  H   UNL     1     -10.299   6.795  70.246  1.00  0.00     0.000 HD 
HETATM   17  O   UNL     1     -10.705   7.505  69.763  1.00  0.00    -0.241 OA 
BRANCH  15  18
HETATM   18  C   UNL     1      -9.759   6.593  67.745  1.00  0.00    -0.136 A  
HETATM   19  O   UNL     1     -11.613   4.649  65.226  1.00  0.00    -1.093 OA 
HETATM   20  C   UNL     1     -10.638   5.050  66.091  1.00  0.00    -0.265 A  
HETATM   21  C   UNL     1     -10.773   6.212  66.852  1.00  0.00    -0.413 A  
HETATM   22  C   UNL     1      -9.503   4.255  66.190  1.00  0.00    -0.181 A  
HETATM   23  H   UNL     1     -11.521   3.859  64.709  1.00  0.00     0.000 HD 
HETATM   24  C   UNL     1      -8.495   4.631  67.068  1.00  0.00    -0.105 A  
HETATM   25  O   UNL     1      -7.360   3.889  67.214  1.00  0.00    -0.066 OA 
HETATM   26  C   UNL     1      -8.613   5.784  67.838  1.00  0.00    -0.101 A  
HETATM   27  H   UNL     1      -6.671   4.146  67.815  1.00  0.00     0.000 HD 
ENDBRANCH  15  18
ENDBRANCH  14  15
ENDBRANCH  12  14
ENDBRANCH   2  12
TORSDOF 6
ENDMDL
MODEL      136
REMARK 921   NORMALIZED FREE ENERGY PREDICTED BY IDOCK:   -5.62 KCAL/MOL
REMARK 922        TOTAL FREE ENERGY PREDICTED BY IDOCK:   -8.20 KCAL/MOL
REMARK 923 INTER-LIGAND FREE ENERGY PREDICTED BY IDOCK:   -7.53 KCAL/MOL
REMARK 924 INTRA-LIGAND FREE ENERGY PREDICTED BY IDOCK:   -0.67 KCAL/MOL
REMARK 927      BINDING AFFINITY PREDICTED BY RF-SCORE:    0.00 PKD
ROOT
HETATM    1  C   UNL     1      -7.826  14.132  67.418  1.00  0.00    -0.195 C  
HETATM    2  C   UNL     1      -8.753  13.365  68.373  1.00  0.00    -0.134 C  
ENDROOT
BRANCH   2   3
HETATM    3  C   UNL     1     -10.158  14.023  68.318  1.00  0.00    -0.246 C  
BRANCH   3   4
HETATM    4  C   UNL     1     -10.819  14.006  66.959  1.00  0.00    -0.291 A  
HETATM    5  C   UNL     1     -12.274  12.911  65.351  1.00  0.00    -0.528 A  
HETATM    6  H   UNL     1     -13.317  13.196  63.053  1.00  0.00     0.000 HD 
HETATM    7  C   UNL     1     -10.635  15.060  66.053  1.00  0.00    -0.329 A  
HETATM    8  C   UNL     1     -11.638  12.929  66.592  1.00  0.00    -0.428 A  
HETATM    9  C   UNL     1     -11.270  15.042  64.808  1.00  0.00    -0.393 A  
HETATM   10  O   UNL     1     -12.755  13.927  63.281  1.00  0.00    -0.775 OA 
HETATM   11  C   UNL     1     -12.093  13.971  64.473  1.00  0.00    -0.459 A  
ENDBRANCH   3   4
ENDBRANCH   2   3
BRANCH   2  12
HETATM   12  N   UNL     1      -8.822  11.934  68.039  1.00  0.00    -0.170 NA 
HETATM   13  H   UNL     1      -7.959  11.630  67.590  1.00  0.00     0.000 HD 
BRANCH  12  14
HETATM   14  C   UNL     1      -9.140  11.064  69.177  1.00  0.00     0.010 C  
BRANCH  14  15
HETATM   15  C   UNL     1     -10.486  10.318  68.981  1.00  0.00    -0.217 C  
HETATM   16  H   UNL     1     -11.089   8.447  68.792  1.00  0.00     0.000 HD 
HETATM   17  O   UNL     1     -10.265   8.904  68.911  1.00  0.00    -0.196 OA 
BRANCH  15  18
HETATM   18  C   UNL     1     -11.459  10.620  70.106  1.00  0.00    -0.411 A  
HETATM   19  O   UNL     1     -13.377   8.869  72.716  1.00  0.00    -0.666 OA 
HETATM   20  C   UNL     1     -12.875   9.859  71.924  1.00  0.00    -0.429 A  
HETATM   21  C   UNL     1     -11.948   9.584  70.917  1.00  0.00    -0.372 A  
HETATM   22  C   UNL     1     -13.323  11.153  72.152  1.00  0.00    -0.270 A  
HETATM   23  H   UNL     1     -14.008   9.056  73.401  1.00  0.00     0.000 HD 
HETATM   24  C   UNL     1     -12.838  12.182  71.357  1.00  0.00    -0.276 A  
HETATM   25  O   UNL     1     -13.244  13.472  71.529  1.00  0.00    -0.354 OA 
HETATM   26  C   UNL     1     -11.916  11.928  70.346  1.00  0.00    -0.400 A  
HETATM   27  H   UNL     1     -12.912  14.176  70.984  1.00  0.00     0.000 HD 
ENDBRANCH  15  18
ENDBRANCH  14  15
ENDBRANCH  12  14
ENDBRANCH   2  12
TORSDOF 6
ENDMDL
MODEL      137
REMARK 921   NORMALIZED FREE ENERGY PREDICTED BY IDOCK:   -5.62 KCAL/MOL
REMARK 922        TOTAL FREE ENERGY PREDICTED BY IDOCK:   -8.20 KCAL/MOL
REMARK 923 INTER-LIGAND FREE ENERGY PREDICTED BY IDOCK:   -8.08 KCAL/MOL
REMARK 924 INTRA-LIGAND FREE ENERGY PREDICTED BY IDOCK:   -0.12 KCAL/MOL
REMARK 927      BINDING AFFINITY PREDICTED BY RF-SCORE:    0.00 PKD
ROOT
HETATM    1  C   UNL     1     -10.348  14.788  69.071  1.00  0.00    -0.243 C  
HETATM    2  C   UNL     1     -10.603  16.235  69.515  1.00  0.00    -0.314 C  
ENDROOT
BRANCH   2   3
HETATM    3  C   UNL     1     -11.101  17.041  68.286  1.00  0.00    -0.172 C  
BRANCH   3   4
HETATM    4  C   UNL     1     -10.042  17.865  67.591  1.00  0.00    -0.350 A  
HETATM    5  C   UNL     1      -7.872  18.004  66.507  1.00  0.00    -0.292 A  
HETATM    6  H   UNL     1      -6.322  19.608  65.293  1.00  0.00     0.000 HD 
HETATM    7  C   UNL     1     -10.234  19.232  67.346  1.00  0.00    -0.514 A  
HETATM    8  C   UNL     1      -8.848  17.261  67.171  1.00  0.00    -0.237 A  
HETATM    9  C   UNL     1      -9.256  19.978  66.682  1.00  0.00    -0.484 A  
HETATM   10  O   UNL     1      -7.120  20.035  65.583  1.00  0.00    -0.297 OA 
HETATM   11  C   UNL     1      -8.087  19.353  66.259  1.00  0.00    -0.325 A  
ENDBRANCH   3   4
ENDBRANCH   2   3
BRANCH   2  12
HETATM   12  N   UNL     1     -11.566  16.308  70.625  1.00  0.00    -0.520 NA 
HETATM   13  H   UNL     1     -12.516  16.401  70.266  1.00  0.00     0.000 HD 
BRANCH  12  14
HETATM   14  C   UNL     1     -11.483  15.189  71.570  1.00  0.00    -0.365 C  
BRANCH  14  15
HETATM   15  C   UNL     1     -12.838  14.448  71.714  1.00  0.00    -0.347 C  
HETATM   16  H   UNL     1     -14.653  14.588  70.946  1.00  0.00     0.000 HD 
HETATM   17  O   UNL     1     -13.823  15.042  70.859  1.00  0.00    -0.344 OA 
BRANCH  15  18
HETATM   18  C   UNL     1     -12.706  12.974  71.378  1.00  0.00    -0.375 A  
HETATM   19  O   UNL     1     -11.325  10.796  68.750  1.00  0.00    -0.250 OA 
HETATM   20  C   UNL     1     -11.955  11.215  69.885  1.00  0.00    -0.363 A  
HETATM   21  C   UNL     1     -12.038  12.569  70.212  1.00  0.00    -0.373 A  
HETATM   22  C   UNL     1     -12.514  10.243  70.704  1.00  0.00    -0.407 A  
HETATM   23  H   UNL     1     -11.268   9.874  68.528  1.00  0.00     0.000 HD 
HETATM   24  C   UNL     1     -13.170  10.638  71.862  1.00  0.00    -0.423 A  
HETATM   25  O   UNL     1     -13.743   9.731  72.704  1.00  0.00    -0.681 OA 
HETATM   26  C   UNL     1     -13.267  11.983  72.204  1.00  0.00    -0.400 A  
HETATM   27  H   UNL     1     -14.193  10.002  73.496  1.00  0.00     0.000 HD 
ENDBRANCH  15  18
ENDBRANCH  14  15
ENDBRANCH  12  14
ENDBRANCH   2  12
TORSDOF 6
ENDMDL
MODEL      138
REMARK 921   NORMALIZED FREE ENERGY PREDICTED BY IDOCK:   -5.62 KCAL/MOL
REMARK 922        TOTAL FREE ENERGY PREDICTED BY IDOCK:   -8.20 KCAL/MOL
REMARK 923 INTER-LIGAND FREE ENERGY PREDICTED BY IDOCK:   -6.31 KCAL/MOL
REMARK 924 INTRA-LIGAND FREE ENERGY PREDICTED BY IDOCK:   -1.89 KCAL/MOL
REMARK 927      BINDING AFFINITY PREDICTED BY RF-SCORE:    0.00 PKD
ROOT
HETATM    1  C   UNL     1      -9.377   3.121  71.255  1.00  0.00    -0.207 C  
HETATM    2  C   UNL     1      -9.344   4.646  71.427  1.00  0.00    -0.149 C  
ENDROOT
BRANCH   2   3
HETATM    3  C   UNL     1     -10.527   5.252  70.624  1.00  0.00    -0.306 C  
BRANCH   3   4
HETATM    4  C   UNL     1     -10.129   6.034  69.393  1.00  0.00    -0.243 A  
HETATM    5  C   UNL     1     -10.764   7.319  67.432  1.00  0.00    -0.358 A  
HETATM    6  H   UNL     1      -9.805   8.654  65.496  1.00  0.00     0.000 HD 
HETATM    7  C   UNL     1      -8.780   6.241  69.073  1.00  0.00    -0.125 A  
HETATM    8  C   UNL     1     -11.117   6.574  68.557  1.00  0.00    -0.347 A  
HETATM    9  C   UNL     1      -8.426   6.986  67.944  1.00  0.00    -0.124 A  
HETATM   10  O   UNL     1      -9.123   8.285  66.046  1.00  0.00    -0.179 OA 
HETATM   11  C   UNL     1      -9.423   7.527  67.139  1.00  0.00    -0.154 A  
ENDBRANCH   3   4
ENDBRANCH   2   3
BRANCH   2  12
HETATM   12  N   UNL     1      -9.405   5.041  72.842  1.00  0.00    -0.134 NA 
HETATM   13  H   UNL     1      -8.594   5.609  73.089  1.00  0.00     0.000 HD 
BRANCH  12  14
HETATM   14  C   UNL     1     -10.645   5.726  73.225  1.00  0.00    -0.254 C  
BRANCH  14  15
HETATM   15  C   UNL     1     -10.393   7.202  73.629  1.00  0.00    -0.368 C  
HETATM   16  H   UNL     1      -8.861   8.301  74.215  1.00  0.00     0.000 HD 
HETATM   17  O   UNL     1      -9.014   7.397  73.968  1.00  0.00    -0.207 OA 
BRANCH  15  18
HETATM   18  C   UNL     1     -10.776   8.158  72.513  1.00  0.00    -0.419 A  
HETATM   19  O   UNL     1     -13.779   9.493  70.853  1.00  0.00    -0.570 OA 
HETATM   20  C   UNL     1     -12.474   9.250  71.167  1.00  0.00    -0.272 A  
HETATM   21  C   UNL     1     -12.126   8.403  72.221  1.00  0.00    -0.456 A  
HETATM   22  C   UNL     1     -11.501   9.874  70.397  1.00  0.00    -0.372 A  
HETATM   23  H   UNL     1     -14.015  10.069  70.136  1.00  0.00     0.000 HD 
HETATM   24  C   UNL     1     -10.164   9.639  70.687  1.00  0.00    -0.278 A  
HETATM   25  O   UNL     1      -9.164  10.219  69.964  1.00  0.00    -0.399 OA 
HETATM   26  C   UNL     1      -9.797   8.796  71.731  1.00  0.00    -0.391 A  
HETATM   27  H   UNL     1      -8.248  10.058  70.161  1.00  0.00     0.000 HD 
ENDBRANCH  15  18
ENDBRANCH  14  15
ENDBRANCH  12  14
ENDBRANCH   2  12
TORSDOF 6
ENDMDL
MODEL      139
REMARK 921   NORMALIZED FREE ENERGY PREDICTED BY IDOCK:   -5.62 KCAL/MOL
REMARK 922        TOTAL FREE ENERGY PREDICTED BY IDOCK:   -8.20 KCAL/MOL
REMARK 923 INTER-LIGAND FREE ENERGY PREDICTED BY IDOCK:   -7.83 KCAL/MOL
REMARK 924 INTRA-LIGAND FREE ENERGY PREDICTED BY IDOCK:   -0.37 KCAL/MOL
REMARK 927      BINDING AFFINITY PREDICTED BY RF-SCORE:    0.00 PKD
ROOT
HETATM    1  C   UNL     1     -10.485  15.027  65.262  1.00  0.00    -0.428 C  
HETATM    2  C   UNL     1     -11.628  14.889  66.278  1.00  0.00    -0.233 C  
ENDROOT
BRANCH   2   3
HETATM    3  C   UNL     1     -12.406  13.584  65.961  1.00  0.00    -0.486 C  
BRANCH   3   4
HETATM    4  C   UNL     1     -11.580  12.485  65.332  1.00  0.00    -0.416 A  
HETATM    5  C   UNL     1     -10.729  11.381  63.343  1.00  0.00    -0.405 A  
HETATM    6  H   UNL     1      -9.202   9.502  62.575  1.00  0.00     0.000 HD 
HETATM    7  C   UNL     1     -10.872  11.570  66.125  1.00  0.00    -0.330 A  
HETATM    8  C   UNL     1     -11.506  12.375  63.936  1.00  0.00    -0.509 A  
HETATM    9  C   UNL     1     -10.094  10.572  65.531  1.00  0.00    -0.349 A  
HETATM   10  O   UNL     1      -9.252   9.555  63.522  1.00  0.00    -0.197 OA 
HETATM   11  C   UNL     1     -10.022  10.494  64.143  1.00  0.00    -0.318 A  
ENDBRANCH   3   4
ENDBRANCH   2   3
BRANCH   2  12
HETATM   12  N   UNL     1     -11.133  14.890  67.664  1.00  0.00    -0.301 NA 
HETATM   13  H   UNL     1     -10.114  14.923  67.679  1.00  0.00     0.000 HD 
BRANCH  12  14
HETATM   14  C   UNL     1     -11.693  15.954  68.504  1.00  0.00    -0.292 C  
BRANCH  14  15
HETATM   15  C   UNL     1     -10.586  16.773  69.219  1.00  0.00    -0.336 C  
HETATM   16  H   UNL     1      -8.799  16.428  69.985  1.00  0.00     0.000 HD 
HETATM   17  O   UNL     1      -9.476  15.927  69.547  1.00  0.00    -0.260 OA 
BRANCH  15  18
HETATM   18  C   UNL     1     -10.102  17.926  68.360  1.00  0.00    -0.385 A  
HETATM   19  O   UNL     1     -11.036  19.740  65.294  1.00  0.00    -0.410 OA 
HETATM   20  C   UNL     1     -10.358  19.351  66.412  1.00  0.00    -0.483 A  
HETATM   21  C   UNL     1     -10.828  18.317  67.224  1.00  0.00    -0.269 A  
HETATM   22  C   UNL     1      -9.178  20.019  66.712  1.00  0.00    -0.494 A  
HETATM   23  H   UNL     1     -10.715  20.444  64.742  1.00  0.00     0.000 HD 
HETATM   24  C   UNL     1      -8.460  19.640  67.838  1.00  0.00    -0.317 A  
HETATM   25  O   UNL     1      -7.292  20.254  68.182  1.00  0.00    -0.279 OA 
HETATM   26  C   UNL     1      -8.910  18.609  68.658  1.00  0.00    -0.333 A  
HETATM   27  H   UNL     1      -6.801  19.994  68.953  1.00  0.00     0.000 HD 
ENDBRANCH  15  18
ENDBRANCH  14  15
ENDBRANCH  12  14
ENDBRANCH   2  12
TORSDOF 6
ENDMDL
MODEL      140
REMARK 921   NORMALIZED FREE ENERGY PREDICTED BY IDOCK:   -5.61 KCAL/MOL
REMARK 922        TOTAL FREE ENERGY PREDICTED BY IDOCK:   -8.19 KCAL/MOL
REMARK 923 INTER-LIGAND FREE ENERGY PREDICTED BY IDOCK:   -7.25 KCAL/MOL
REMARK 924 INTRA-LIGAND FREE ENERGY PREDICTED BY IDOCK:   -0.93 KCAL/MOL
REMARK 927      BINDING AFFINITY PREDICTED BY RF-SCORE:    0.00 PKD
ROOT
HETATM    1  C   UNL     1     -12.268  14.843  70.224  1.00  0.00    -0.389 C  
HETATM    2  C   UNL     1     -12.159  13.411  69.681  1.00  0.00    -0.289 C  
ENDROOT
BRANCH   2   3
HETATM    3  C   UNL     1     -10.991  13.366  68.659  1.00  0.00    -0.288 C  
BRANCH   3   4
HETATM    4  C   UNL     1     -11.414  13.310  67.208  1.00  0.00    -0.378 A  
HETATM    5  C   UNL     1     -11.704  12.040  65.158  1.00  0.00    -0.315 A  
HETATM    6  H   UNL     1     -12.571  12.220  62.778  1.00  0.00     0.000 HD 
HETATM    7  C   UNL     1     -11.936  14.441  66.564  1.00  0.00    -0.406 A  
HETATM    8  C   UNL     1     -11.296  12.112  66.490  1.00  0.00    -0.405 A  
HETATM    9  C   UNL     1     -12.344  14.370  65.229  1.00  0.00    -0.372 A  
HETATM   10  O   UNL     1     -12.646  13.043  63.247  1.00  0.00    -0.696 OA 
HETATM   11  C   UNL     1     -12.233  13.165  64.541  1.00  0.00    -0.406 A  
ENDBRANCH   3   4
ENDBRANCH   2   3
BRANCH   2  12
HETATM   12  N   UNL     1     -11.962  12.428  70.757  1.00  0.00    -0.458 NA 
HETATM   13  H   UNL     1     -12.235  12.825  71.656  1.00  0.00     0.000 HD 
BRANCH  12  14
HETATM   14  C   UNL     1     -12.640  11.146  70.536  1.00  0.00    -0.274 C  
BRANCH  14  15
HETATM   15  C   UNL     1     -11.921   9.976  71.256  1.00  0.00    -0.394 C  
HETATM   16  H   UNL     1     -12.393   8.574  72.565  1.00  0.00     0.000 HD 
HETATM   17  O   UNL     1     -12.833   9.291  72.125  1.00  0.00    -0.379 OA 
BRANCH  15  18
HETATM   18  C   UNL     1     -11.334   8.988  70.265  1.00  0.00    -0.202 A  
HETATM   19  O   UNL     1      -9.705   8.942  66.963  1.00  0.00    -0.162 OA 
HETATM   20  C   UNL     1     -10.256   8.528  68.140  1.00  0.00    -0.208 A  
HETATM   21  C   UNL     1     -10.758   9.442  69.069  1.00  0.00    -0.209 A  
HETATM   22  C   UNL     1     -10.305   7.161  68.380  1.00  0.00    -0.220 A  
HETATM   23  H   UNL     1      -9.363   8.320  66.332  1.00  0.00     0.000 HD 
HETATM   24  C   UNL     1     -10.869   6.708  69.565  1.00  0.00    -0.289 A  
HETATM   25  O   UNL     1     -10.950   5.378  69.856  1.00  0.00    -0.250 OA 
HETATM   26  C   UNL     1     -11.377   7.603  70.502  1.00  0.00    -0.266 A  
HETATM   27  H   UNL     1     -11.336   5.068  70.666  1.00  0.00     0.000 HD 
ENDBRANCH  15  18
ENDBRANCH  14  15
ENDBRANCH  12  14
ENDBRANCH   2  12
TORSDOF 6
ENDMDL
MODEL      141
REMARK 921   NORMALIZED FREE ENERGY PREDICTED BY IDOCK:   -5.59 KCAL/MOL
REMARK 922        TOTAL FREE ENERGY PREDICTED BY IDOCK:   -8.16 KCAL/MOL
REMARK 923 INTER-LIGAND FREE ENERGY PREDICTED BY IDOCK:   -6.81 KCAL/MOL
REMARK 924 INTRA-LIGAND FREE ENERGY PREDICTED BY IDOCK:   -1.36 KCAL/MOL
REMARK 927      BINDING AFFINITY PREDICTED BY RF-SCORE:    0.00 PKD
ROOT
HETATM    1  C   UNL     1      -9.369  10.320  68.753  1.00  0.00    -0.166 C  
HETATM    2  C   UNL     1      -9.218  10.777  67.295  1.00  0.00    -0.147 C  
ENDROOT
BRANCH   2   3
HETATM    3  C   UNL     1     -10.590  10.610  66.588  1.00  0.00    -0.276 C  
BRANCH   3   4
HETATM    4  C   UNL     1     -11.107  11.850  65.895  1.00  0.00    -0.365 A  
HETATM    5  C   UNL     1     -11.290  13.204  63.887  1.00  0.00    -0.420 A  
HETATM    6  H   UNL     1     -12.363  15.314  62.967  1.00  0.00     0.000 HD 
HETATM    7  C   UNL     1     -11.902  12.781  66.578  1.00  0.00    -0.471 A  
HETATM    8  C   UNL     1     -10.800  12.077  64.546  1.00  0.00    -0.363 A  
HETATM    9  C   UNL     1     -12.392  13.912  65.918  1.00  0.00    -0.517 A  
HETATM   10  O   UNL     1     -12.570  15.181  63.885  1.00  0.00    -0.794 OA 
HETATM   11  C   UNL     1     -12.089  14.107  64.574  1.00  0.00    -0.468 A  
ENDBRANCH   3   4
ENDBRANCH   2   3
BRANCH   2  12
HETATM   12  N   UNL     1      -8.737  12.164  67.200  1.00  0.00    -0.183 NA 
HETATM   13  H   UNL     1      -9.472  12.773  66.841  1.00  0.00     0.000 HD 
BRANCH  12  14
HETATM   14  C   UNL     1      -8.194  12.701  68.453  1.00  0.00    -0.129 C  
BRANCH  14  15
HETATM   15  C   UNL     1      -7.777  14.189  68.315  1.00  0.00    -0.139 C  
HETATM   16  H   UNL     1      -6.533  15.245  67.203  1.00  0.00     0.000 HD 
HETATM   17  O   UNL     1      -6.788  14.334  67.287  1.00  0.00    -0.234 OA 
BRANCH  15  18
HETATM   18  C   UNL     1      -8.967  15.074  67.997  1.00  0.00    -0.173 A  
HETATM   19  O   UNL     1     -10.238  17.218  65.287  1.00  0.00    -0.563 OA 
HETATM   20  C   UNL     1     -10.133  16.567  66.481  1.00  0.00    -0.299 A  
HETATM   21  C   UNL     1      -9.058  15.720  66.754  1.00  0.00    -0.276 A  
HETATM   22  C   UNL     1     -11.135  16.781  67.418  1.00  0.00     0.019 A  
HETATM   23  H   UNL     1     -10.970  17.795  65.101  1.00  0.00     0.000 HD 
HETATM   24  C   UNL     1     -11.053  16.139  68.647  1.00  0.00    -0.356 A  
HETATM   25  O   UNL     1     -12.002  16.312  69.609  1.00  0.00    -0.259 OA 
HETATM   26  C   UNL     1      -9.987  15.294  68.940  1.00  0.00    -0.225 A  
HETATM   27  H   UNL     1     -11.946  15.874  70.450  1.00  0.00     0.000 HD 
ENDBRANCH  15  18
ENDBRANCH  14  15
ENDBRANCH  12  14
ENDBRANCH   2  12
TORSDOF 6
ENDMDL
MODEL      142
REMARK 921   NORMALIZED FREE ENERGY PREDICTED BY IDOCK:   -5.57 KCAL/MOL
REMARK 922        TOTAL FREE ENERGY PREDICTED BY IDOCK:   -8.14 KCAL/MOL
REMARK 923 INTER-LIGAND FREE ENERGY PREDICTED BY IDOCK:   -7.54 KCAL/MOL
REMARK 924 INTRA-LIGAND FREE ENERGY PREDICTED BY IDOCK:   -0.60 KCAL/MOL
REMARK 927      BINDING AFFINITY PREDICTED BY RF-SCORE:    0.00 PKD
ROOT
HETATM    1  C   UNL     1      -7.649   8.665  66.699  1.00  0.00    -0.089 C  
HETATM    2  C   UNL     1      -9.128   8.932  66.387  1.00  0.00    -0.174 C  
ENDROOT
BRANCH   2   3
HETATM    3  C   UNL     1      -9.209   9.701  65.040  1.00  0.00    -0.310 C  
BRANCH   3   4
HETATM    4  C   UNL     1     -10.244  10.802  64.995  1.00  0.00    -0.373 A  
HETATM    5  C   UNL     1     -11.798  12.265  66.156  1.00  0.00    -0.398 A  
HETATM    6  H   UNL     1     -13.424  14.180  65.788  1.00  0.00     0.000 HD 
HETATM    7  C   UNL     1     -10.599  11.412  63.784  1.00  0.00    -0.464 A  
HETATM    8  C   UNL     1     -10.859  11.234  66.179  1.00  0.00    -0.281 A  
HETATM    9  C   UNL     1     -11.541  12.444  63.759  1.00  0.00    -0.553 A  
HETATM   10  O   UNL     1     -13.026  13.891  64.975  1.00  0.00    -0.731 OA 
HETATM   11  C   UNL     1     -12.125  12.868  64.949  1.00  0.00    -0.432 A  
ENDBRANCH   3   4
ENDBRANCH   2   3
BRANCH   2  12
HETATM   12  N   UNL     1      -9.913   7.689  66.337  1.00  0.00    -0.457 NA 
HETATM   13  H   UNL     1      -9.300   6.886  66.193  1.00  0.00     0.000 HD 
BRANCH  12  14
HETATM   14  C   UNL     1     -10.774   7.472  67.504  1.00  0.00    -0.226 C  
BRANCH  14  15
HETATM   15  C   UNL     1     -10.752   5.995  67.977  1.00  0.00    -0.282 C  
HETATM   16  H   UNL     1      -9.557   4.433  67.789  1.00  0.00     0.000 HD 
HETATM   17  O   UNL     1      -9.571   5.338  67.499  1.00  0.00    -0.124 OA 
BRANCH  15  18
HETATM   18  C   UNL     1     -10.804   5.893  69.490  1.00  0.00    -0.442 A  
HETATM   19  O   UNL     1      -9.281   3.975  72.240  1.00  0.00    -0.115 OA 
HETATM   20  C   UNL     1     -10.061   4.862  71.558  1.00  0.00    -0.197 A  
HETATM   21  C   UNL     1      -9.980   4.983  70.169  1.00  0.00    -0.328 A  
HETATM   22  C   UNL     1     -10.943   5.641  72.295  1.00  0.00    -0.312 A  
HETATM   23  H   UNL     1      -9.337   3.894  73.185  1.00  0.00     0.000 HD 
HETATM   24  C   UNL     1     -11.756   6.548  71.629  1.00  0.00    -0.324 A  
HETATM   25  O   UNL     1     -12.646   7.336  72.296  1.00  0.00    -0.494 OA 
HETATM   26  C   UNL     1     -11.693   6.680  70.245  1.00  0.00    -0.432 A  
HETATM   27  H   UNL     1     -13.203   7.956  71.840  1.00  0.00     0.000 HD 
ENDBRANCH  15  18
ENDBRANCH  14  15
ENDBRANCH  12  14
ENDBRANCH   2  12
TORSDOF 6
ENDMDL
MODEL      143
REMARK 921   NORMALIZED FREE ENERGY PREDICTED BY IDOCK:   -5.57 KCAL/MOL
REMARK 922        TOTAL FREE ENERGY PREDICTED BY IDOCK:   -8.13 KCAL/MOL
REMARK 923 INTER-LIGAND FREE ENERGY PREDICTED BY IDOCK:   -7.17 KCAL/MOL
REMARK 924 INTRA-LIGAND FREE ENERGY PREDICTED BY IDOCK:   -0.96 KCAL/MOL
REMARK 927      BINDING AFFINITY PREDICTED BY RF-SCORE:    0.00 PKD
ROOT
HETATM    1  C   UNL     1      -8.696  14.393  67.396  1.00  0.00    -0.214 C  
HETATM    2  C   UNL     1      -9.600  13.381  68.115  1.00  0.00    -0.222 C  
ENDROOT
BRANCH   2   3
HETATM    3  C   UNL     1     -11.070  13.865  67.985  1.00  0.00    -0.279 C  
BRANCH   3   4
HETATM    4  C   UNL     1     -11.789  14.080  69.297  1.00  0.00    -0.389 A  
HETATM    5  C   UNL     1     -12.831  15.588  70.892  1.00  0.00    -0.535 A  
HETATM    6  H   UNL     1     -14.103  15.636  73.090  1.00  0.00     0.000 HD 
HETATM    7  C   UNL     1     -12.117  12.999  70.128  1.00  0.00    -0.377 A  
HETATM    8  C   UNL     1     -12.146  15.377  69.696  1.00  0.00    -0.354 A  
HETATM    9  C   UNL     1     -12.802  13.211  71.328  1.00  0.00    -0.384 A  
HETATM   10  O   UNL     1     -13.857  14.753  72.840  1.00  0.00    -0.503 OA 
HETATM   11  C   UNL     1     -13.162  14.504  71.693  1.00  0.00    -0.348 A  
ENDBRANCH   3   4
ENDBRANCH   2   3
BRANCH   2  12
HETATM   12  N   UNL     1      -9.439  12.022  67.578  1.00  0.00    -0.175 NA 
HETATM   13  H   UNL     1      -8.660  11.988  66.919  1.00  0.00     0.000 HD 
BRANCH  12  14
HETATM   14  C   UNL     1      -9.287  10.982  68.602  1.00  0.00    -0.194 C  
BRANCH  14  15
HETATM   15  C   UNL     1     -10.595  10.174  68.807  1.00  0.00    -0.213 C  
HETATM   16  H   UNL     1     -11.528   8.680  67.914  1.00  0.00     0.000 HD 
HETATM   17  O   UNL     1     -10.728   9.175  67.788  1.00  0.00    -0.245 OA 
BRANCH  15  18
HETATM   18  C   UNL     1     -10.630   9.508  70.170  1.00  0.00    -0.298 A  
HETATM   19  O   UNL     1      -8.376   7.808  72.534  1.00  0.00    -0.110 OA 
HETATM   20  C   UNL     1      -9.499   8.337  71.970  1.00  0.00    -0.236 A  
HETATM   21  C   UNL     1      -9.456   8.986  70.735  1.00  0.00    -0.308 A  
HETATM   22  C   UNL     1     -10.692   8.203  72.669  1.00  0.00    -0.421 A  
HETATM   23  H   UNL     1      -8.405   7.367  73.375  1.00  0.00     0.000 HD 
HETATM   24  C   UNL     1     -11.855   8.723  72.117  1.00  0.00    -0.366 A  
HETATM   25  O   UNL     1     -13.057   8.619  72.753  1.00  0.00    -0.632 OA 
HETATM   26  C   UNL     1     -11.833   9.370  70.886  1.00  0.00    -0.365 A  
HETATM   27  H   UNL     1     -13.853   8.974  72.375  1.00  0.00     0.000 HD 
ENDBRANCH  15  18
ENDBRANCH  14  15
ENDBRANCH  12  14
ENDBRANCH   2  12
TORSDOF 6
ENDMDL
MODEL      144
REMARK 921   NORMALIZED FREE ENERGY PREDICTED BY IDOCK:   -5.56 KCAL/MOL
REMARK 922        TOTAL FREE ENERGY PREDICTED BY IDOCK:   -8.12 KCAL/MOL
REMARK 923 INTER-LIGAND FREE ENERGY PREDICTED BY IDOCK:   -7.31 KCAL/MOL
REMARK 924 INTRA-LIGAND FREE ENERGY PREDICTED BY IDOCK:   -0.81 KCAL/MOL
REMARK 927      BINDING AFFINITY PREDICTED BY RF-SCORE:    0.00 PKD
ROOT
HETATM    1  C   UNL     1      -7.105  10.192  65.682  1.00  0.00    -0.133 C  
HETATM    2  C   UNL     1      -8.500   9.871  66.236  1.00  0.00    -0.128 C  
ENDROOT
BRANCH   2   3
HETATM    3  C   UNL     1      -9.510   9.902  65.058  1.00  0.00    -0.343 C  
BRANCH   3   4
HETATM    4  C   UNL     1     -10.494  11.049  65.090  1.00  0.00    -0.329 A  
HETATM    5  C   UNL     1     -11.927  12.615  63.907  1.00  0.00    -0.558 A  
HETATM    6  H   UNL     1     -13.623  14.470  64.272  1.00  0.00     0.000 HD 
HETATM    7  C   UNL     1     -10.924  11.599  66.307  1.00  0.00    -0.338 A  
HETATM    8  C   UNL     1     -11.000  11.573  63.891  1.00  0.00    -0.474 A  
HETATM    9  C   UNL     1     -11.851  12.645  66.323  1.00  0.00    -0.471 A  
HETATM   10  O   UNL     1     -13.280  14.135  65.093  1.00  0.00    -0.743 OA 
HETATM   11  C   UNL     1     -12.352  13.136  65.122  1.00  0.00    -0.473 A  
ENDBRANCH   3   4
ENDBRANCH   2   3
BRANCH   2  12
HETATM   12  N   UNL     1      -8.531   8.574  66.929  1.00  0.00    -0.112 NA 
HETATM   13  H   UNL     1      -7.842   8.555  67.680  1.00  0.00     0.000 HD 
BRANCH  12  14
HETATM   14  C   UNL     1      -9.854   8.192  67.437  1.00  0.00    -0.184 C  
BRANCH  14  15
HETATM   15  C   UNL     1      -9.770   7.525  68.835  1.00  0.00    -0.151 C  
HETATM   16  H   UNL     1      -8.411   7.299  70.250  1.00  0.00     0.000 HD 
HETATM   17  O   UNL     1      -8.462   7.707  69.394  1.00  0.00    -0.130 OA 
BRANCH  15  18
HETATM   18  C   UNL     1     -10.806   8.093  69.786  1.00  0.00    -0.190 A  
HETATM   19  O   UNL     1     -12.147  11.344  70.879  1.00  0.00    -0.351 OA 
HETATM   20  C   UNL     1     -11.938  10.000  70.772  1.00  0.00    -0.335 A  
HETATM   21  C   UNL     1     -11.013   9.479  69.865  1.00  0.00    -0.263 A  
HETATM   22  C   UNL     1     -12.678   9.167  71.601  1.00  0.00    -0.429 A  
HETATM   23  H   UNL     1     -12.777  11.698  71.496  1.00  0.00     0.000 HD 
HETATM   24  C   UNL     1     -12.481   7.795  71.522  1.00  0.00    -0.324 A  
HETATM   25  O   UNL     1     -13.173   6.927  72.314  1.00  0.00    -0.531 OA 
HETATM   26  C   UNL     1     -11.561   7.256  70.628  1.00  0.00    -0.322 A  
HETATM   27  H   UNL     1     -13.038   5.988  72.260  1.00  0.00     0.000 HD 
ENDBRANCH  15  18
ENDBRANCH  14  15
ENDBRANCH  12  14
ENDBRANCH   2  12
TORSDOF 6
ENDMDL
MODEL      145
REMARK 921   NORMALIZED FREE ENERGY PREDICTED BY IDOCK:   -5.55 KCAL/MOL
REMARK 922        TOTAL FREE ENERGY PREDICTED BY IDOCK:   -8.11 KCAL/MOL
REMARK 923 INTER-LIGAND FREE ENERGY PREDICTED BY IDOCK:   -7.77 KCAL/MOL
REMARK 924 INTRA-LIGAND FREE ENERGY PREDICTED BY IDOCK:   -0.34 KCAL/MOL
REMARK 927      BINDING AFFINITY PREDICTED BY RF-SCORE:    0.00 PKD
ROOT
HETATM    1  C   UNL     1     -11.147  16.607  68.366  1.00  0.00    -0.305 C  
HETATM    2  C   UNL     1     -10.919  15.191  67.820  1.00  0.00    -0.306 C  
ENDROOT
BRANCH   2   3
HETATM    3  C   UNL     1     -11.172  14.180  68.970  1.00  0.00    -0.303 C  
BRANCH   3   4
HETATM    4  C   UNL     1     -11.823  14.765  70.203  1.00  0.00    -0.360 A  
HETATM    5  C   UNL     1     -13.822  15.186  71.517  1.00  0.00    -0.597 A  
HETATM    6  H   UNL     1     -14.621  16.175  73.715  1.00  0.00     0.000 HD 
HETATM    7  C   UNL     1     -11.057  15.396  71.194  1.00  0.00    -0.362 A  
HETATM    8  C   UNL     1     -13.212  14.672  70.373  1.00  0.00    -0.049 A  
HETATM    9  C   UNL     1     -11.669  15.913  72.339  1.00  0.00    -0.582 A  
HETATM   10  O   UNL     1     -13.680  16.257  73.609  1.00  0.00    -0.552 OA 
HETATM   11  C   UNL     1     -13.046  15.794  72.495  1.00  0.00    -0.474 A  
ENDBRANCH   3   4
ENDBRANCH   2   3
BRANCH   2  12
HETATM   12  N   UNL     1     -11.779  14.903  66.661  1.00  0.00    -0.280 NA 
HETATM   13  H   UNL     1     -11.299  15.141  65.793  1.00  0.00     0.000 HD 
BRANCH  12  14
HETATM   14  C   UNL     1     -12.280  13.526  66.608  1.00  0.00    -0.358 C  
BRANCH  14  15
HETATM   15  C   UNL     1     -12.186  12.927  65.181  1.00  0.00    -0.470 C  
HETATM   16  H   UNL     1     -11.906  13.600  63.345  1.00  0.00     0.000 HD 
HETATM   17  O   UNL     1     -11.964  13.966  64.219  1.00  0.00    -0.425 OA 
BRANCH  15  18
HETATM   18  C   UNL     1     -11.072  11.902  65.079  1.00  0.00    -0.360 A  
HETATM   19  O   UNL     1      -9.500   9.686  62.592  1.00  0.00    -0.532 OA 
HETATM   20  C   UNL     1      -9.788  10.312  63.769  1.00  0.00    -0.151 A  
HETATM   21  C   UNL     1     -10.786  11.285  63.851  1.00  0.00    -0.451 A  
HETATM   22  C   UNL     1      -9.053   9.942  64.888  1.00  0.00    -0.271 A  
HETATM   23  H   UNL     1      -8.821   9.025  62.537  1.00  0.00     0.000 HD 
HETATM   24  C   UNL     1      -9.328  10.554  66.104  1.00  0.00    -0.176 A  
HETATM   25  O   UNL     1      -8.645  10.231  67.238  1.00  0.00    -0.125 OA 
HETATM   26  C   UNL     1     -10.321  11.524  66.206  1.00  0.00    -0.280 A  
HETATM   27  H   UNL     1      -8.833  10.649  68.070  1.00  0.00     0.000 HD 
ENDBRANCH  15  18
ENDBRANCH  14  15
ENDBRANCH  12  14
ENDBRANCH   2  12
TORSDOF 6
ENDMDL
MODEL      146
REMARK 921   NORMALIZED FREE ENERGY PREDICTED BY IDOCK:   -5.55 KCAL/MOL
REMARK 922        TOTAL FREE ENERGY PREDICTED BY IDOCK:   -8.10 KCAL/MOL
REMARK 923 INTER-LIGAND FREE ENERGY PREDICTED BY IDOCK:   -7.75 KCAL/MOL
REMARK 924 INTRA-LIGAND FREE ENERGY PREDICTED BY IDOCK:   -0.36 KCAL/MOL
REMARK 927      BINDING AFFINITY PREDICTED BY RF-SCORE:    0.00 PKD
ROOT
HETATM    1  C   UNL     1     -10.246  14.769  66.130  1.00  0.00    -0.310 C  
HETATM    2  C   UNL     1     -11.551  14.591  66.919  1.00  0.00    -0.385 C  
ENDROOT
BRANCH   2   3
HETATM    3  C   UNL     1     -12.102  13.168  66.633  1.00  0.00    -0.409 C  
BRANCH   3   4
HETATM    4  C   UNL     1     -11.314  12.370  65.619  1.00  0.00    -0.387 A  
HETATM    5  C   UNL     1      -9.784  10.552  65.115  1.00  0.00    -0.341 A  
HETATM    6  H   UNL     1      -8.655   9.340  63.190  1.00  0.00     0.000 HD 
HETATM    7  C   UNL     1     -11.392  12.664  64.250  1.00  0.00    -0.416 A  
HETATM    8  C   UNL     1     -10.497  11.311  66.042  1.00  0.00    -0.310 A  
HETATM    9  C   UNL     1     -10.676  11.904  63.321  1.00  0.00    -0.415 A  
HETATM   10  O   UNL     1      -9.194  10.062  62.888  1.00  0.00    -0.264 OA 
HETATM   11  C   UNL     1      -9.886  10.847  63.762  1.00  0.00    -0.337 A  
ENDBRANCH   3   4
ENDBRANCH   2   3
BRANCH   2  12
HETATM   12  N   UNL     1     -11.355  14.806  68.361  1.00  0.00    -0.285 NA 
HETATM   13  H   UNL     1     -10.420  14.513  68.641  1.00  0.00     0.000 HD 
BRANCH  12  14
HETATM   14  C   UNL     1     -11.617  16.179  68.807  1.00  0.00    -0.297 C  
BRANCH  14  15
HETATM   15  C   UNL     1     -10.323  16.892  69.281  1.00  0.00    -0.298 C  
HETATM   16  H   UNL     1      -8.478  16.376  69.758  1.00  0.00     0.000 HD 
HETATM   17  O   UNL     1      -9.270  15.939  69.469  1.00  0.00    -0.255 OA 
BRANCH  15  18
HETATM   18  C   UNL     1      -9.874  17.948  68.288  1.00  0.00    -0.348 A  
HETATM   19  O   UNL     1      -7.157  20.386  67.805  1.00  0.00    -0.290 OA 
HETATM   20  C   UNL     1      -8.298  19.665  67.610  1.00  0.00    -0.308 A  
HETATM   21  C   UNL     1      -8.687  18.665  68.504  1.00  0.00    -0.362 A  
HETATM   22  C   UNL     1      -9.063  19.964  66.490  1.00  0.00    -0.464 A  
HETATM   23  H   UNL     1      -6.892  21.066  67.197  1.00  0.00     0.000 HD 
HETATM   24  C   UNL     1     -10.235  19.253  66.269  1.00  0.00    -0.464 A  
HETATM   25  O   UNL     1     -11.031  19.503  65.191  1.00  0.00    -0.410 OA 
HETATM   26  C   UNL     1     -10.641  18.255  67.150  1.00  0.00    -0.392 A  
HETATM   27  H   UNL     1     -11.833  19.017  65.040  1.00  0.00     0.000 HD 
ENDBRANCH  15  18
ENDBRANCH  14  15
ENDBRANCH  12  14
ENDBRANCH   2  12
TORSDOF 6
ENDMDL
MODEL      147
REMARK 921   NORMALIZED FREE ENERGY PREDICTED BY IDOCK:   -5.53 KCAL/MOL
REMARK 922        TOTAL FREE ENERGY PREDICTED BY IDOCK:   -8.08 KCAL/MOL
REMARK 923 INTER-LIGAND FREE ENERGY PREDICTED BY IDOCK:   -7.40 KCAL/MOL
REMARK 924 INTRA-LIGAND FREE ENERGY PREDICTED BY IDOCK:   -0.68 KCAL/MOL
REMARK 927      BINDING AFFINITY PREDICTED BY RF-SCORE:    0.00 PKD
ROOT
HETATM    1  C   UNL     1     -10.797  11.700  63.255  1.00  0.00    -0.380 C  
HETATM    2  C   UNL     1     -10.281  12.725  64.275  1.00  0.00    -0.327 C  
ENDROOT
BRANCH   2   3
HETATM    3  C   UNL     1     -11.480  13.595  64.739  1.00  0.00    -0.367 C  
BRANCH   3   4
HETATM    4  C   UNL     1     -11.154  14.612  65.809  1.00  0.00    -0.331 A  
HETATM    5  C   UNL     1     -10.080  16.689  66.467  1.00  0.00    -0.313 A  
HETATM    6  H   UNL     1      -9.772  18.266  68.434  1.00  0.00     0.000 HD 
HETATM    7  C   UNL     1     -11.634  14.463  67.118  1.00  0.00    -0.406 A  
HETATM    8  C   UNL     1     -10.368  15.731  65.496  1.00  0.00    -0.430 A  
HETATM    9  C   UNL     1     -11.344  15.422  68.092  1.00  0.00    -0.353 A  
HETATM   10  O   UNL     1     -10.295  17.508  68.665  1.00  0.00    -0.349 OA 
HETATM   11  C   UNL     1     -10.577  16.533  67.754  1.00  0.00    -0.332 A  
ENDBRANCH   3   4
ENDBRANCH   2   3
BRANCH   2  12
HETATM   12  N   UNL     1      -9.620  12.077  65.419  1.00  0.00    -0.389 NA 
HETATM   13  H   UNL     1      -9.660  12.679  66.241  1.00  0.00     0.000 HD 
BRANCH  12  14
HETATM   14  C   UNL     1     -10.137  10.741  65.737  1.00  0.00    -0.261 C  
BRANCH  14  15
HETATM   15  C   UNL     1     -10.524  10.608  67.233  1.00  0.00    -0.246 C  
HETATM   16  H   UNL     1     -12.069  11.067  68.374  1.00  0.00     0.000 HD 
HETATM   17  O   UNL     1     -11.832  11.149  67.458  1.00  0.00    -0.591 OA 
BRANCH  15  18
HETATM   18  C   UNL     1     -10.492   9.162  67.690  1.00  0.00    -0.323 A  
HETATM   19  O   UNL     1     -10.587   5.760  66.285  1.00  0.00    -0.447 OA 
HETATM   20  C   UNL     1     -10.539   6.791  67.176  1.00  0.00    -0.331 A  
HETATM   21  C   UNL     1     -10.526   8.120  66.751  1.00  0.00    -0.316 A  
HETATM   22  C   UNL     1     -10.508   6.469  68.527  1.00  0.00    -0.257 A  
HETATM   23  H   UNL     1     -10.596   4.855  66.574  1.00  0.00     0.000 HD 
HETATM   24  C   UNL     1     -10.469   7.497  69.461  1.00  0.00    -0.226 A  
HETATM   25  O   UNL     1     -10.442   7.245  70.800  1.00  0.00    -0.210 OA 
HETATM   26  C   UNL     1     -10.458   8.828  69.056  1.00  0.00    -0.220 A  
HETATM   27  H   UNL     1     -10.416   7.948  71.439  1.00  0.00     0.000 HD 
ENDBRANCH  15  18
ENDBRANCH  14  15
ENDBRANCH  12  14
ENDBRANCH   2  12
TORSDOF 6
ENDMDL
MODEL      148
REMARK 921   NORMALIZED FREE ENERGY PREDICTED BY IDOCK:   -5.52 KCAL/MOL
REMARK 922        TOTAL FREE ENERGY PREDICTED BY IDOCK:   -8.07 KCAL/MOL
REMARK 923 INTER-LIGAND FREE ENERGY PREDICTED BY IDOCK:   -7.52 KCAL/MOL
REMARK 924 INTRA-LIGAND FREE ENERGY PREDICTED BY IDOCK:   -0.55 KCAL/MOL
REMARK 927      BINDING AFFINITY PREDICTED BY RF-SCORE:    0.00 PKD
ROOT
HETATM    1  C   UNL     1      -8.606   9.679  69.908  1.00  0.00    -0.218 C  
HETATM    2  C   UNL     1      -9.767   8.843  69.351  1.00  0.00    -0.169 C  
ENDROOT
BRANCH   2   3
HETATM    3  C   UNL     1     -10.915   8.849  70.395  1.00  0.00    -0.275 C  
BRANCH   3   4
HETATM    4  C   UNL     1     -10.860   7.731  71.411  1.00  0.00    -0.257 A  
HETATM    5  C   UNL     1     -10.431   6.984  73.682  1.00  0.00    -0.414 A  
HETATM    6  H   UNL     1     -10.519   4.937  75.183  1.00  0.00     0.000 HD 
HETATM    7  C   UNL     1     -11.211   6.419  71.062  1.00  0.00    -0.370 A  
HETATM    8  C   UNL     1     -10.463   8.001  72.729  1.00  0.00    -0.415 A  
HETATM    9  C   UNL     1     -11.178   5.399  72.016  1.00  0.00    -0.159 A  
HETATM   10  O   UNL     1     -10.779   4.735  74.292  1.00  0.00    -0.289 OA 
HETATM   11  C   UNL     1     -10.797   5.694  73.322  1.00  0.00    -0.282 A  
ENDBRANCH   3   4
ENDBRANCH   2   3
BRANCH   2  12
HETATM   12  N   UNL     1     -10.230   9.346  68.048  1.00  0.00    -0.192 NA 
HETATM   13  H   UNL     1     -11.243   9.461  68.050  1.00  0.00     0.000 HD 
BRANCH  12  14
HETATM   14  C   UNL     1      -9.576  10.584  67.612  1.00  0.00    -0.157 C  
BRANCH  14  15
HETATM   15  C   UNL     1      -9.829  10.878  66.110  1.00  0.00    -0.222 C  
HETATM   16  H   UNL     1     -10.498   9.891  64.536  1.00  0.00     0.000 HD 
HETATM   17  O   UNL     1     -10.343   9.711  65.455  1.00  0.00    -0.130 OA 
BRANCH  15  18
HETATM   18  C   UNL     1     -10.801  12.028  65.923  1.00  0.00    -0.329 A  
HETATM   19  O   UNL     1     -12.584  13.802  63.234  1.00  0.00    -1.005 OA 
HETATM   20  C   UNL     1     -12.129  13.447  64.469  1.00  0.00    -0.409 A  
HETATM   21  C   UNL     1     -11.267  12.362  64.642  1.00  0.00    -0.356 A  
HETATM   22  C   UNL     1     -12.552  14.207  65.552  1.00  0.00    -0.501 A  
HETATM   23  H   UNL     1     -13.170  14.540  63.116  1.00  0.00     0.000 HD 
HETATM   24  C   UNL     1     -12.099  13.876  66.822  1.00  0.00    -0.439 A  
HETATM   25  O   UNL     1     -12.474  14.587  67.923  1.00  0.00    -0.599 OA 
HETATM   26  C   UNL     1     -11.237  12.801  67.015  1.00  0.00    -0.336 A  
HETATM   27  H   UNL     1     -12.164  14.361  68.792  1.00  0.00     0.000 HD 
ENDBRANCH  15  18
ENDBRANCH  14  15
ENDBRANCH  12  14
ENDBRANCH   2  12
TORSDOF 6
ENDMDL
MODEL      149
REMARK 921   NORMALIZED FREE ENERGY PREDICTED BY IDOCK:   -5.52 KCAL/MOL
REMARK 922        TOTAL FREE ENERGY PREDICTED BY IDOCK:   -8.07 KCAL/MOL
REMARK 923 INTER-LIGAND FREE ENERGY PREDICTED BY IDOCK:   -7.76 KCAL/MOL
REMARK 924 INTRA-LIGAND FREE ENERGY PREDICTED BY IDOCK:   -0.30 KCAL/MOL
REMARK 927      BINDING AFFINITY PREDICTED BY RF-SCORE:    0.00 PKD
ROOT
HETATM    1  C   UNL     1     -10.798  19.680  67.197  1.00  0.00    -0.526 C  
HETATM    2  C   UNL     1     -10.365  18.217  67.031  1.00  0.00    -0.380 C  
ENDROOT
BRANCH   2   3
HETATM    3  C   UNL     1      -8.895  18.199  66.531  1.00  0.00    -0.286 C  
BRANCH   3   4
HETATM    4  C   UNL     1      -7.921  18.977  67.386  1.00  0.00    -0.272 A  
HETATM    5  C   UNL     1      -6.561  20.960  67.737  1.00  0.00    -0.392 A  
HETATM    6  H   UNL     1      -5.014  22.075  69.414  1.00  0.00     0.000 HD 
HETATM    7  C   UNL     1      -7.491  18.482  68.626  1.00  0.00    -0.323 A  
HETATM    8  C   UNL     1      -7.441  20.220  66.947  1.00  0.00    -0.337 A  
HETATM    9  C   UNL     1      -6.607  19.222  69.417  1.00  0.00    -0.348 A  
HETATM   10  O   UNL     1      -5.320  21.229  69.720  1.00  0.00    -0.456 OA 
HETATM   11  C   UNL     1      -6.159  20.460  68.968  1.00  0.00    -0.341 A  
ENDBRANCH   3   4
ENDBRANCH   2   3
BRANCH   2  12
HETATM   12  N   UNL     1     -10.511  17.455  68.280  1.00  0.00    -0.372 NA 
HETATM   13  H   UNL     1     -10.837  18.063  69.032  1.00  0.00     0.000 HD 
BRANCH  12  14
HETATM   14  C   UNL     1     -11.372  16.272  68.169  1.00  0.00    -0.248 C  
BRANCH  14  15
HETATM   15  C   UNL     1     -10.864  15.098  69.046  1.00  0.00    -0.242 C  
HETATM   16  H   UNL     1     -11.389  14.224  70.737  1.00  0.00     0.000 HD 
HETATM   17  O   UNL     1     -11.700  14.943  70.200  1.00  0.00    -0.260 OA 
BRANCH  15  18
HETATM   18  C   UNL     1     -10.833  13.795  68.269  1.00  0.00    -0.266 A  
HETATM   19  O   UNL     1      -9.619  12.456  65.061  1.00  0.00    -0.456 OA 
HETATM   20  C   UNL     1     -10.212  12.541  66.286  1.00  0.00    -0.248 A  
HETATM   21  C   UNL     1     -10.202  13.731  67.017  1.00  0.00    -0.254 A  
HETATM   22  C   UNL     1     -10.830  11.400  66.781  1.00  0.00    -0.336 A  
HETATM   23  H   UNL     1      -9.625  11.647  64.564  1.00  0.00     0.000 HD 
HETATM   24  C   UNL     1     -11.450  11.457  68.022  1.00  0.00    -0.307 A  
HETATM   25  O   UNL     1     -12.077  10.372  68.558  1.00  0.00    -0.767 OA 
HETATM   26  C   UNL     1     -11.454  12.634  68.764  1.00  0.00    -0.349 A  
HETATM   27  H   UNL     1     -12.502  10.412  69.407  1.00  0.00     0.000 HD 
ENDBRANCH  15  18
ENDBRANCH  14  15
ENDBRANCH  12  14
ENDBRANCH   2  12
TORSDOF 6
ENDMDL
MODEL      150
REMARK 921   NORMALIZED FREE ENERGY PREDICTED BY IDOCK:   -5.51 KCAL/MOL
REMARK 922        TOTAL FREE ENERGY PREDICTED BY IDOCK:   -8.05 KCAL/MOL
REMARK 923 INTER-LIGAND FREE ENERGY PREDICTED BY IDOCK:   -7.85 KCAL/MOL
REMARK 924 INTRA-LIGAND FREE ENERGY PREDICTED BY IDOCK:   -0.20 KCAL/MOL
REMARK 927      BINDING AFFINITY PREDICTED BY RF-SCORE:    0.00 PKD
ROOT
HETATM    1  C   UNL     1     -12.942  14.667  71.464  1.00  0.00    -0.410 C  
HETATM    2  C   UNL     1     -11.838  14.235  70.489  1.00  0.00    -0.294 C  
ENDROOT
BRANCH   2   3
HETATM    3  C   UNL     1     -12.340  12.992  69.706  1.00  0.00    -0.141 C  
BRANCH   3   4
HETATM    4  C   UNL     1     -12.130  11.669  70.405  1.00  0.00    -0.462 A  
HETATM    5  C   UNL     1     -10.823   9.643  70.707  1.00  0.00    -0.400 A  
HETATM    6  H   UNL     1     -10.673   7.529  72.106  1.00  0.00     0.000 HD 
HETATM    7  C   UNL     1     -13.002  11.239  71.416  1.00  0.00    -0.482 A  
HETATM    8  C   UNL     1     -11.043  10.855  70.053  1.00  0.00    -0.285 A  
HETATM    9  C   UNL     1     -12.783  10.023  72.070  1.00  0.00    -0.439 A  
HETATM   10  O   UNL     1     -11.420   8.063  72.348  1.00  0.00    -0.334 OA 
HETATM   11  C   UNL     1     -11.688   9.241  71.716  1.00  0.00    -0.386 A  
ENDBRANCH   3   4
ENDBRANCH   2   3
BRANCH   2  12
HETATM   12  N   UNL     1     -11.457  15.322  69.574  1.00  0.00    -0.282 NA 
HETATM   13  H   UNL     1     -11.732  16.225  69.960  1.00  0.00     0.000 HD 
BRANCH  12  14
HETATM   14  C   UNL     1     -10.036  15.333  69.209  1.00  0.00    -0.252 C  
BRANCH  14  15
HETATM   15  C   UNL     1      -9.813  15.834  67.758  1.00  0.00    -0.224 C  
HETATM   16  H   UNL     1     -10.766  15.739  66.031  1.00  0.00     0.000 HD 
HETATM   17  O   UNL     1     -10.903  15.431  66.919  1.00  0.00    -0.313 OA 
BRANCH  15  18
HETATM   18  C   UNL     1      -9.670  17.344  67.706  1.00  0.00    -0.268 A  
HETATM   19  O   UNL     1     -10.641  20.334  69.623  1.00  0.00    -0.524 OA 
HETATM   20  C   UNL     1     -10.113  19.534  68.653  1.00  0.00    -0.442 A  
HETATM   21  C   UNL     1     -10.209  18.143  68.726  1.00  0.00    -0.353 A  
HETATM   22  C   UNL     1      -9.476  20.154  67.586  1.00  0.00    -0.514 A  
HETATM   23  H   UNL     1     -10.575  21.280  69.574  1.00  0.00     0.000 HD 
HETATM   24  C   UNL     1      -8.936  19.368  66.578  1.00  0.00    -0.356 A  
HETATM   25  O   UNL     1      -8.304  19.918  65.502  1.00  0.00    -0.406 OA 
HETATM   26  C   UNL     1      -9.025  17.980  66.630  1.00  0.00    -0.285 A  
HETATM   27  H   UNL     1      -7.935  19.380  64.812  1.00  0.00     0.000 HD 
ENDBRANCH  15  18
ENDBRANCH  14  15
ENDBRANCH  12  14
ENDBRANCH   2  12
TORSDOF 6
ENDMDL
MODEL      151
REMARK 921   NORMALIZED FREE ENERGY PREDICTED BY IDOCK:   -5.50 KCAL/MOL
REMARK 922        TOTAL FREE ENERGY PREDICTED BY IDOCK:   -8.04 KCAL/MOL
REMARK 923 INTER-LIGAND FREE ENERGY PREDICTED BY IDOCK:   -7.54 KCAL/MOL
REMARK 924 INTRA-LIGAND FREE ENERGY PREDICTED BY IDOCK:   -0.50 KCAL/MOL
REMARK 927      BINDING AFFINITY PREDICTED BY RF-SCORE:    0.00 PKD
ROOT
HETATM    1  C   UNL     1      -9.226   6.673  72.915  1.00  0.00    -0.147 C  
HETATM    2  C   UNL     1     -10.221   6.822  71.755  1.00  0.00    -0.190 C  
ENDROOT
BRANCH   2   3
HETATM    3  C   UNL     1     -10.518   5.409  71.185  1.00  0.00    -0.295 C  
BRANCH   3   4
HETATM    4  C   UNL     1     -10.407   5.289  69.683  1.00  0.00    -0.348 A  
HETATM    5  C   UNL     1      -9.563   4.113  67.732  1.00  0.00    -0.208 A  
HETATM    6  H   UNL     1      -9.627   4.111  65.193  1.00  0.00     0.000 HD 
HETATM    7  C   UNL     1     -11.054   6.200  68.835  1.00  0.00    -0.417 A  
HETATM    8  C   UNL     1      -9.655   4.250  69.116  1.00  0.00    -0.249 A  
HETATM    9  C   UNL     1     -10.961   6.065  67.447  1.00  0.00    -0.344 A  
HETATM   10  O   UNL     1     -10.130   4.828  65.560  1.00  0.00    -0.183 OA 
HETATM   11  C   UNL     1     -10.223   5.015  66.908  1.00  0.00    -0.229 A  
ENDBRANCH   3   4
ENDBRANCH   2   3
BRANCH   2  12
HETATM   12  N   UNL     1     -11.458   7.497  72.175  1.00  0.00    -0.278 NA 
HETATM   13  H   UNL     1     -11.681   7.263  73.143  1.00  0.00     0.000 HD 
BRANCH  12  14
HETATM   14  C   UNL     1     -11.445   8.952  71.991  1.00  0.00    -0.361 C  
BRANCH  14  15
HETATM   15  C   UNL     1     -12.792   9.481  71.432  1.00  0.00    -0.358 C  
HETATM   16  H   UNL     1     -14.684   9.503  71.999  1.00  0.00     0.000 HD 
HETATM   17  O   UNL     1     -13.859   9.179  72.341  1.00  0.00    -0.469 OA 
BRANCH  15  18
HETATM   18  C   UNL     1     -12.746  10.978  71.191  1.00  0.00    -0.521 A  
HETATM   19  O   UNL     1     -11.277  13.410  68.849  1.00  0.00    -0.252 OA 
HETATM   20  C   UNL     1     -11.967  12.878  69.898  1.00  0.00    -0.307 A  
HETATM   21  C   UNL     1     -12.042  11.498  70.094  1.00  0.00    -0.432 A  
HETATM   22  C   UNL     1     -12.591  13.762  70.769  1.00  0.00    -0.410 A  
HETATM   23  H   UNL     1     -11.226  14.349  68.716  1.00  0.00     0.000 HD 
HETATM   24  C   UNL     1     -13.295  13.251  71.852  1.00  0.00    -0.451 A  
HETATM   25  O   UNL     1     -13.924  14.067  72.745  1.00  0.00    -0.669 OA 
HETATM   26  C   UNL     1     -13.378  11.879  72.066  1.00  0.00    -0.425 A  
HETATM   27  H   UNL     1     -14.405  13.718  73.486  1.00  0.00     0.000 HD 
ENDBRANCH  15  18
ENDBRANCH  14  15
ENDBRANCH  12  14
ENDBRANCH   2  12
TORSDOF 6
ENDMDL
MODEL      152
REMARK 921   NORMALIZED FREE ENERGY PREDICTED BY IDOCK:   -5.50 KCAL/MOL
REMARK 922        TOTAL FREE ENERGY PREDICTED BY IDOCK:   -8.03 KCAL/MOL
REMARK 923 INTER-LIGAND FREE ENERGY PREDICTED BY IDOCK:   -7.07 KCAL/MOL
REMARK 924 INTRA-LIGAND FREE ENERGY PREDICTED BY IDOCK:   -0.96 KCAL/MOL
REMARK 927      BINDING AFFINITY PREDICTED BY RF-SCORE:    0.00 PKD
ROOT
HETATM    1  C   UNL     1     -10.687  18.438  67.585  1.00  0.00    -0.390 C  
HETATM    2  C   UNL     1     -10.397  17.401  68.680  1.00  0.00    -0.364 C  
ENDROOT
BRANCH   2   3
HETATM    3  C   UNL     1     -11.477  16.290  68.596  1.00  0.00    -0.288 C  
BRANCH   3   4
HETATM    4  C   UNL     1     -11.891  15.700  69.925  1.00  0.00    -0.374 A  
HETATM    5  C   UNL     1     -12.758  13.828  71.206  1.00  0.00    -0.450 A  
HETATM    6  H   UNL     1     -13.284  13.074  73.574  1.00  0.00     0.000 HD 
HETATM    7  C   UNL     1     -11.770  16.437  71.112  1.00  0.00    -0.203 A  
HETATM    8  C   UNL     1     -12.396  14.393  69.985  1.00  0.00    -0.391 A  
HETATM    9  C   UNL     1     -12.135  15.871  72.337  1.00  0.00    -0.605 A  
HETATM   10  O   UNL     1     -12.956  13.965  73.549  1.00  0.00    -0.292 OA 
HETATM   11  C   UNL     1     -12.616  14.566  72.373  1.00  0.00    -0.305 A  
ENDBRANCH   3   4
ENDBRANCH   2   3
BRANCH   2  12
HETATM   12  N   UNL     1      -9.043  16.837  68.558  1.00  0.00    -0.233 NA 
HETATM   13  H   UNL     1      -9.085  15.820  68.498  1.00  0.00     0.000 HD 
BRANCH  12  14
HETATM   14  C   UNL     1      -8.260  17.383  67.444  1.00  0.00    -0.201 C  
BRANCH  14  15
HETATM   15  C   UNL     1      -7.911  16.298  66.391  1.00  0.00    -0.264 C  
HETATM   16  H   UNL     1      -6.589  14.845  66.197  1.00  0.00     0.000 HD 
HETATM   17  O   UNL     1      -6.802  15.509  66.841  1.00  0.00    -0.230 OA 
BRANCH  15  18
HETATM   18  C   UNL     1      -9.094  15.390  66.113  1.00  0.00    -0.339 A  
HETATM   19  O   UNL     1     -12.371  15.466  64.435  1.00  0.00    -0.386 OA 
HETATM   20  C   UNL     1     -11.291  15.032  65.146  1.00  0.00    -0.372 A  
HETATM   21  C   UNL     1     -10.186  15.857  65.364  1.00  0.00    -0.354 A  
HETATM   22  C   UNL     1     -11.332  13.739  65.650  1.00  0.00    -0.311 A  
HETATM   23  H   UNL     1     -13.122  14.905  64.286  1.00  0.00     0.000 HD 
HETATM   24  C   UNL     1     -10.252  13.271  66.386  1.00  0.00    -0.292 A  
HETATM   25  O   UNL     1     -10.235  12.012  66.910  1.00  0.00    -0.206 OA 
HETATM   26  C   UNL     1      -9.143  14.078  66.617  1.00  0.00    -0.221 A  
HETATM   27  H   UNL     1      -9.496  11.692  67.414  1.00  0.00     0.000 HD 
ENDBRANCH  15  18
ENDBRANCH  14  15
ENDBRANCH  12  14
ENDBRANCH   2  12
TORSDOF 6
ENDMDL
MODEL      153
REMARK 921   NORMALIZED FREE ENERGY PREDICTED BY IDOCK:   -5.47 KCAL/MOL
REMARK 922        TOTAL FREE ENERGY PREDICTED BY IDOCK:   -8.00 KCAL/MOL
REMARK 923 INTER-LIGAND FREE ENERGY PREDICTED BY IDOCK:   -7.31 KCAL/MOL
REMARK 924 INTRA-LIGAND FREE ENERGY PREDICTED BY IDOCK:   -0.68 KCAL/MOL
REMARK 927      BINDING AFFINITY PREDICTED BY RF-SCORE:    0.00 PKD
ROOT
HETATM    1  C   UNL     1      -9.060  13.912  67.764  1.00  0.00    -0.191 C  
HETATM    2  C   UNL     1      -9.901  13.552  66.532  1.00  0.00    -0.291 C  
ENDROOT
BRANCH   2   3
HETATM    3  C   UNL     1     -11.345  13.232  67.004  1.00  0.00    -0.346 C  
BRANCH   3   4
HETATM    4  C   UNL     1     -11.436  12.321  68.207  1.00  0.00    -0.367 A  
HETATM    5  C   UNL     1     -11.085  10.137  69.211  1.00  0.00    -0.270 A  
HETATM    6  H   UNL     1     -11.267   8.873  71.406  1.00  0.00     0.000 HD 
HETATM    7  C   UNL     1     -11.914  12.793  69.437  1.00  0.00    -0.321 A  
HETATM    8  C   UNL     1     -11.030  10.982  68.103  1.00  0.00    -0.301 A  
HETATM    9  C   UNL     1     -11.971  11.946  70.547  1.00  0.00    -0.360 A  
HETATM   10  O   UNL     1     -11.558   9.773  71.489  1.00  0.00    -0.380 OA 
HETATM   11  C   UNL     1     -11.546  10.626  70.425  1.00  0.00    -0.351 A  
ENDBRANCH   3   4
ENDBRANCH   2   3
BRANCH   2  12
HETATM   12  N   UNL     1      -9.895  14.628  65.529  1.00  0.00    -0.473 NA 
HETATM   13  H   UNL     1     -10.081  14.251  64.600  1.00  0.00     0.000 HD 
BRANCH  12  14
HETATM   14  C   UNL     1     -10.813  15.734  65.826  1.00  0.00    -0.280 C  
BRANCH  14  15
HETATM   15  C   UNL     1     -10.234  17.104  65.388  1.00  0.00     0.066 C  
HETATM   16  H   UNL     1     -10.930  18.804  64.661  1.00  0.00     0.000 HD 
HETATM   17  O   UNL     1     -11.285  17.964  64.928  1.00  0.00    -0.660 OA 
BRANCH  15  18
HETATM   18  C   UNL     1      -9.490  17.783  66.523  1.00  0.00    -0.300 A  
HETATM   19  O   UNL     1      -6.046  18.325  67.708  1.00  0.00    -0.176 OA 
HETATM   20  C   UNL     1      -7.408  18.348  67.634  1.00  0.00    -0.215 A  
HETATM   21  C   UNL     1      -8.088  17.759  66.567  1.00  0.00    -0.305 A  
HETATM   22  C   UNL     1      -8.096  18.977  68.664  1.00  0.00    -0.397 A  
HETATM   23  H   UNL     1      -5.584  18.727  68.434  1.00  0.00     0.000 HD 
HETATM   24  C   UNL     1      -9.483  19.009  68.622  1.00  0.00    -0.405 A  
HETATM   25  O   UNL     1     -10.214  19.607  69.605  1.00  0.00    -0.595 OA 
HETATM   26  C   UNL     1     -10.179  18.425  67.568  1.00  0.00    -0.393 A  
HETATM   27  H   UNL     1     -11.164  19.628  69.577  1.00  0.00     0.000 HD 
ENDBRANCH  15  18
ENDBRANCH  14  15
ENDBRANCH  12  14
ENDBRANCH   2  12
TORSDOF 6
ENDMDL
MODEL      154
REMARK 921   NORMALIZED FREE ENERGY PREDICTED BY IDOCK:   -5.47 KCAL/MOL
REMARK 922        TOTAL FREE ENERGY PREDICTED BY IDOCK:   -8.00 KCAL/MOL
REMARK 923 INTER-LIGAND FREE ENERGY PREDICTED BY IDOCK:   -7.45 KCAL/MOL
REMARK 924 INTRA-LIGAND FREE ENERGY PREDICTED BY IDOCK:   -0.54 KCAL/MOL
REMARK 927      BINDING AFFINITY PREDICTED BY RF-SCORE:    0.00 PKD
ROOT
HETATM    1  C   UNL     1     -10.088  20.061  69.435  1.00  0.00    -0.138 C  
HETATM    2  C   UNL     1      -9.804  19.265  68.154  1.00  0.00    -0.379 C  
ENDROOT
BRANCH   2   3
HETATM    3  C   UNL     1      -8.342  18.748  68.216  1.00  0.00    -0.360 C  
BRANCH   3   4
HETATM    4  C   UNL     1      -7.464  19.177  67.063  1.00  0.00    -0.228 A  
HETATM    5  C   UNL     1      -6.169  18.602  65.089  1.00  0.00    -0.285 A  
HETATM    6  H   UNL     1      -4.803  19.619  63.205  1.00  0.00     0.000 HD 
HETATM    7  C   UNL     1      -7.148  20.528  66.858  1.00  0.00    -0.344 A  
HETATM    8  C   UNL     1      -6.960  18.218  66.171  1.00  0.00    -0.301 A  
HETATM    9  C   UNL     1      -6.353  20.913  65.774  1.00  0.00    -0.247 A  
HETATM   10  O   UNL     1      -5.126  20.280  63.807  1.00  0.00    -0.165 OA 
HETATM   11  C   UNL     1      -5.879  19.946  64.893  1.00  0.00    -0.216 A  
ENDBRANCH   3   4
ENDBRANCH   2   3
BRANCH   2  12
HETATM   12  N   UNL     1     -10.753  18.155  67.976  1.00  0.00    -0.338 NA 
HETATM   13  H   UNL     1     -11.630  18.495  67.582  1.00  0.00     0.000 HD 
BRANCH  12  14
HETATM   14  C   UNL     1     -10.233  17.038  67.179  1.00  0.00    -0.306 C  
BRANCH  14  15
HETATM   15  C   UNL     1     -10.427  15.674  67.892  1.00  0.00    -0.267 C  
HETATM   16  H   UNL     1     -11.399  14.993  69.471  1.00  0.00     0.000 HD 
HETATM   17  O   UNL     1     -11.280  15.828  69.034  1.00  0.00    -0.274 OA 
BRANCH  15  18
HETATM   18  C   UNL     1     -11.021  14.636  66.958  1.00  0.00    -0.317 A  
HETATM   19  O   UNL     1     -11.754  11.029  66.856  1.00  0.00    -0.336 OA 
HETATM   20  C   UNL     1     -11.645  12.339  66.490  1.00  0.00    -0.377 A  
HETATM   21  C   UNL     1     -11.137  13.299  67.366  1.00  0.00    -0.300 A  
HETATM   22  C   UNL     1     -12.055  12.682  65.208  1.00  0.00    -0.519 A  
HETATM   23  H   UNL     1     -12.100  10.376  66.259  1.00  0.00     0.000 HD 
HETATM   24  C   UNL     1     -11.948  14.006  64.801  1.00  0.00    -0.417 A  
HETATM   25  O   UNL     1     -12.328  14.404  63.555  1.00  0.00    -1.091 OA 
HETATM   26  C   UNL     1     -11.441  14.977  65.660  1.00  0.00    -0.248 A  
HETATM   27  H   UNL     1     -12.254  15.309  63.276  1.00  0.00     0.000 HD 
ENDBRANCH  15  18
ENDBRANCH  14  15
ENDBRANCH  12  14
ENDBRANCH   2  12
TORSDOF 6
ENDMDL
MODEL      155
REMARK 921   NORMALIZED FREE ENERGY PREDICTED BY IDOCK:   -5.46 KCAL/MOL
REMARK 922        TOTAL FREE ENERGY PREDICTED BY IDOCK:   -7.99 KCAL/MOL
REMARK 923 INTER-LIGAND FREE ENERGY PREDICTED BY IDOCK:   -7.11 KCAL/MOL
REMARK 924 INTRA-LIGAND FREE ENERGY PREDICTED BY IDOCK:   -0.88 KCAL/MOL
REMARK 927      BINDING AFFINITY PREDICTED BY RF-SCORE:    0.00 PKD
ROOT
HETATM    1  C   UNL     1     -10.298  10.480  68.660  1.00  0.00    -0.201 C  
HETATM    2  C   UNL     1     -11.453  11.369  69.142  1.00  0.00    -0.299 C  
ENDROOT
BRANCH   2   3
HETATM    3  C   UNL     1     -11.954  12.209  67.936  1.00  0.00    -0.218 C  
BRANCH   3   4
HETATM    4  C   UNL     1     -11.662  13.690  68.025  1.00  0.00    -0.387 A  
HETATM    5  C   UNL     1     -11.687  15.757  69.300  1.00  0.00    -0.384 A  
HETATM    6  H   UNL     1     -11.004  18.201  69.195  1.00  0.00     0.000 HD 
HETATM    7  C   UNL     1     -11.070  14.375  66.954  1.00  0.00    -0.325 A  
HETATM    8  C   UNL     1     -11.973  14.397  69.195  1.00  0.00    -0.357 A  
HETATM    9  C   UNL     1     -10.784  15.739  67.057  1.00  0.00    -0.306 A  
HETATM   10  O   UNL     1     -10.798  17.740  68.390  1.00  0.00    -0.260 OA 
HETATM   11  C   UNL     1     -11.086  16.416  68.235  1.00  0.00    -0.337 A  
ENDBRANCH   3   4
ENDBRANCH   2   3
BRANCH   2  12
HETATM   12  N   UNL     1     -12.545  10.579  69.730  1.00  0.00    -0.546 NA 
HETATM   13  H   UNL     1     -12.411   9.587  69.538  1.00  0.00     0.000 HD 
BRANCH  12  14
HETATM   14  C   UNL     1     -12.743  10.800  71.167  1.00  0.00    -0.431 C  
BRANCH  14  15
HETATM   15  C   UNL     1     -12.806   9.467  71.957  1.00  0.00    -0.414 C  
HETATM   16  H   UNL     1     -14.014   7.908  72.071  1.00  0.00     0.000 HD 
HETATM   17  O   UNL     1     -13.976   8.725  71.587  1.00  0.00    -0.399 OA 
BRANCH  15  18
HETATM   18  C   UNL     1     -11.574   8.616  71.714  1.00  0.00    -0.403 A  
HETATM   19  O   UNL     1     -10.654   5.294  70.419  1.00  0.00    -0.268 OA 
HETATM   20  C   UNL     1     -10.563   6.543  70.959  1.00  0.00    -0.231 A  
HETATM   21  C   UNL     1     -11.694   7.340  71.142  1.00  0.00    -0.334 A  
HETATM   22  C   UNL     1      -9.301   6.994  71.323  1.00  0.00    -0.160 A  
HETATM   23  H   UNL     1      -9.884   4.752  70.294  1.00  0.00     0.000 HD 
HETATM   24  C   UNL     1      -9.176   8.258  71.883  1.00  0.00    -0.208 A  
HETATM   25  O   UNL     1      -7.965   8.754  72.266  1.00  0.00    -0.350 OA 
HETATM   26  C   UNL     1     -10.292   9.066  72.078  1.00  0.00    -0.287 A  
HETATM   27  H   UNL     1      -7.879   9.619  72.650  1.00  0.00     0.000 HD 
ENDBRANCH  15  18
ENDBRANCH  14  15
ENDBRANCH  12  14
ENDBRANCH   2  12
TORSDOF 6
ENDMDL
MODEL      156
REMARK 921   NORMALIZED FREE ENERGY PREDICTED BY IDOCK:   -5.46 KCAL/MOL
REMARK 922        TOTAL FREE ENERGY PREDICTED BY IDOCK:   -7.99 KCAL/MOL
REMARK 923 INTER-LIGAND FREE ENERGY PREDICTED BY IDOCK:   -5.73 KCAL/MOL
REMARK 924 INTRA-LIGAND FREE ENERGY PREDICTED BY IDOCK:   -2.26 KCAL/MOL
REMARK 927      BINDING AFFINITY PREDICTED BY RF-SCORE:    0.00 PKD
ROOT
HETATM    1  C   UNL     1      -9.756   3.291  71.502  1.00  0.00    -0.233 C  
HETATM    2  C   UNL     1      -9.611   4.810  71.328  1.00  0.00    -0.168 C  
ENDROOT
BRANCH   2   3
HETATM    3  C   UNL     1     -10.651   5.280  70.276  1.00  0.00    -0.288 C  
BRANCH   3   4
HETATM    4  C   UNL     1     -10.067   5.981  69.070  1.00  0.00    -0.223 A  
HETATM    5  C   UNL     1     -10.392   7.234  67.014  1.00  0.00    -0.376 A  
HETATM    6  H   UNL     1      -9.135   8.414  65.150  1.00  0.00     0.000 HD 
HETATM    7  C   UNL     1      -8.680   6.069  68.886  1.00  0.00    -0.122 A  
HETATM    8  C   UNL     1     -10.917   6.564  68.119  1.00  0.00    -0.365 A  
HETATM    9  C   UNL     1      -8.153   6.739  67.779  1.00  0.00    -0.113 A  
HETATM   10  O   UNL     1      -8.545   8.013  65.779  1.00  0.00    -0.143 OA 
HETATM   11  C   UNL     1      -9.016   7.325  66.857  1.00  0.00    -0.135 A  
ENDBRANCH   3   4
ENDBRANCH   2   3
BRANCH   2  12
HETATM   12  N   UNL     1      -9.779   5.528  72.601  1.00  0.00    -0.150 NA 
HETATM   13  H   UNL     1      -8.921   6.018  72.850  1.00  0.00     0.000 HD 
BRANCH  12  14
HETATM   14  C   UNL     1     -10.921   6.448  72.627  1.00  0.00    -0.253 C  
BRANCH  14  15
HETATM   15  C   UNL     1     -10.482   7.911  72.899  1.00  0.00    -0.355 C  
HETATM   16  H   UNL     1      -9.018   8.829  73.855  1.00  0.00     0.000 HD 
HETATM   17  O   UNL     1      -9.286   7.933  73.689  1.00  0.00    -0.278 OA 
BRANCH  15  18
HETATM   18  C   UNL     1     -10.244   8.671  71.607  1.00  0.00    -0.366 A  
HETATM   19  O   UNL     1      -7.461   9.908  69.538  1.00  0.00    -0.085 OA 
HETATM   20  C   UNL     1      -8.721   9.647  69.989  1.00  0.00    -0.231 A  
HETATM   21  C   UNL     1      -8.937   8.912  71.156  1.00  0.00    -0.305 A  
HETATM   22  C   UNL     1      -9.785  10.143  69.247  1.00  0.00    -0.238 A  
HETATM   23  H   UNL     1      -7.315  10.408  68.744  1.00  0.00     0.000 HD 
HETATM   24  C   UNL     1     -11.080   9.902  69.685  1.00  0.00    -0.241 A  
HETATM   25  O   UNL     1     -12.164  10.367  69.002  1.00  0.00    -0.701 OA 
HETATM   26  C   UNL     1     -11.316   9.174  70.847  1.00  0.00    -0.359 A  
HETATM   27  H   UNL     1     -13.051  10.202  69.302  1.00  0.00     0.000 HD 
ENDBRANCH  15  18
ENDBRANCH  14  15
ENDBRANCH  12  14
ENDBRANCH   2  12
TORSDOF 6
ENDMDL
MODEL      157
REMARK 921   NORMALIZED FREE ENERGY PREDICTED BY IDOCK:   -5.46 KCAL/MOL
REMARK 922        TOTAL FREE ENERGY PREDICTED BY IDOCK:   -7.99 KCAL/MOL
REMARK 923 INTER-LIGAND FREE ENERGY PREDICTED BY IDOCK:   -7.52 KCAL/MOL
REMARK 924 INTRA-LIGAND FREE ENERGY PREDICTED BY IDOCK:   -0.46 KCAL/MOL
REMARK 927      BINDING AFFINITY PREDICTED BY RF-SCORE:    0.00 PKD
ROOT
HETATM    1  C   UNL     1      -9.422  13.350  67.728  1.00  0.00    -0.210 C  
HETATM    2  C   UNL     1     -10.771  12.984  68.364  1.00  0.00    -0.256 C  
ENDROOT
BRANCH   2   3
HETATM    3  C   UNL     1     -11.731  12.521  67.235  1.00  0.00    -0.431 C  
BRANCH   3   4
HETATM    4  C   UNL     1     -11.056  11.868  66.051  1.00  0.00    -0.369 A  
HETATM    5  C   UNL     1      -9.801  10.009  65.117  1.00  0.00    -0.388 A  
HETATM    6  H   UNL     1      -8.837   9.114  62.945  1.00  0.00     0.000 HD 
HETATM    7  C   UNL     1     -11.074  12.472  64.785  1.00  0.00    -0.338 A  
HETATM    8  C   UNL     1     -10.407  10.635  66.206  1.00  0.00    -0.296 A  
HETATM    9  C   UNL     1     -10.465  11.846  63.693  1.00  0.00    -0.493 A  
HETATM   10  O   UNL     1      -9.262   9.955  62.825  1.00  0.00    -0.269 OA 
HETATM   11  C   UNL     1      -9.842  10.614  63.868  1.00  0.00    -0.338 A  
ENDBRANCH   3   4
ENDBRANCH   2   3
BRANCH   2  12
HETATM   12  N   UNL     1     -10.628  11.948  69.398  1.00  0.00    -0.444 NA 
HETATM   13  H   UNL     1     -10.284  12.358  70.267  1.00  0.00     0.000 HD 
BRANCH  12  14
HETATM   14  C   UNL     1     -11.846  11.170  69.646  1.00  0.00    -0.348 C  
BRANCH  14  15
HETATM   15  C   UNL     1     -11.822  10.478  71.034  1.00  0.00    -0.340 C  
HETATM   16  H   UNL     1     -13.028  10.316  72.590  1.00  0.00     0.000 HD 
HETATM   17  O   UNL     1     -13.042  10.740  71.741  1.00  0.00    -0.458 OA 
BRANCH  15  18
HETATM   18  C   UNL     1     -11.627   8.979  70.906  1.00  0.00    -0.344 A  
HETATM   19  O   UNL     1     -10.046   6.525  68.662  1.00  0.00    -0.148 OA 
HETATM   20  C   UNL     1     -10.747   7.067  69.700  1.00  0.00    -0.241 A  
HETATM   21  C   UNL     1     -10.889   8.448  69.838  1.00  0.00    -0.207 A  
HETATM   22  C   UNL     1     -11.318   6.192  70.615  1.00  0.00    -0.368 A  
HETATM   23  H   UNL     1      -9.950   5.584  68.569  1.00  0.00     0.000 HD 
HETATM   24  C   UNL     1     -12.044   6.712  71.677  1.00  0.00    -0.355 A  
HETATM   25  O   UNL     1     -12.633   5.904  72.605  1.00  0.00    -0.530 OA 
HETATM   26  C   UNL     1     -12.200   8.086  71.830  1.00  0.00    -0.352 A  
HETATM   27  H   UNL     1     -13.131   6.261  73.331  1.00  0.00     0.000 HD 
ENDBRANCH  15  18
ENDBRANCH  14  15
ENDBRANCH  12  14
ENDBRANCH   2  12
TORSDOF 6
ENDMDL
MODEL      158
REMARK 921   NORMALIZED FREE ENERGY PREDICTED BY IDOCK:   -5.46 KCAL/MOL
REMARK 922        TOTAL FREE ENERGY PREDICTED BY IDOCK:   -7.99 KCAL/MOL
REMARK 923 INTER-LIGAND FREE ENERGY PREDICTED BY IDOCK:   -6.96 KCAL/MOL
REMARK 924 INTRA-LIGAND FREE ENERGY PREDICTED BY IDOCK:   -1.03 KCAL/MOL
REMARK 927      BINDING AFFINITY PREDICTED BY RF-SCORE:    0.00 PKD
ROOT
HETATM    1  C   UNL     1      -7.705  10.517  66.159  1.00  0.00    -0.142 C  
HETATM    2  C   UNL     1      -9.125  11.076  66.325  1.00  0.00    -0.182 C  
ENDROOT
BRANCH   2   3
HETATM    3  C   UNL     1      -9.795  11.126  64.926  1.00  0.00    -0.316 C  
BRANCH   3   4
HETATM    4  C   UNL     1     -10.589  12.380  64.643  1.00  0.00    -0.339 A  
HETATM    5  C   UNL     1     -12.497  13.459  63.595  1.00  0.00    -0.316 A  
HETATM    6  H   UNL     1     -13.673  15.698  63.365  1.00  0.00     0.000 HD 
HETATM    7  C   UNL     1     -10.200  13.618  65.174  1.00  0.00    -0.349 A  
HETATM    8  C   UNL     1     -11.741  12.314  63.845  1.00  0.00    -0.536 A  
HETATM    9  C   UNL     1     -10.957  14.766  64.923  1.00  0.00    -0.425 A  
HETATM   10  O   UNL     1     -12.889  15.762  63.897  1.00  0.00    -0.589 OA 
HETATM   11  C   UNL     1     -12.105  14.673  64.143  1.00  0.00    -0.320 A  
ENDBRANCH   3   4
ENDBRANCH   2   3
BRANCH   2  12
HETATM   12  N   UNL     1      -9.922  10.278  67.269  1.00  0.00    -0.182 NA 
HETATM   13  H   UNL     1      -9.396  10.109  68.126  1.00  0.00     0.000 HD 
BRANCH  12  14
HETATM   14  C   UNL     1     -11.238  10.847  67.579  1.00  0.00    -0.293 C  
BRANCH  14  15
HETATM   15  C   UNL     1     -11.323  11.352  69.043  1.00  0.00    -0.280 C  
HETATM   16  H   UNL     1     -10.279  11.148  70.707  1.00  0.00     0.000 HD 
HETATM   17  O   UNL     1     -10.227  10.838  69.811  1.00  0.00    -0.144 OA 
BRANCH  15  18
HETATM   18  C   UNL     1     -11.317  12.868  69.110  1.00  0.00    -0.329 A  
HETATM   19  O   UNL     1      -9.180  15.720  68.183  1.00  0.00    -0.187 OA 
HETATM   20  C   UNL     1     -10.219  14.989  68.679  1.00  0.00    -0.231 A  
HETATM   21  C   UNL     1     -10.242  13.597  68.578  1.00  0.00    -0.234 A  
HETATM   22  C   UNL     1     -11.255  15.681  69.292  1.00  0.00    -0.320 A  
HETATM   23  H   UNL     1      -9.165  16.667  68.251  1.00  0.00     0.000 HD 
HETATM   24  C   UNL     1     -12.323  14.965  69.815  1.00  0.00    -0.244 A  
HETATM   25  O   UNL     1     -13.367  15.587  70.433  1.00  0.00    -0.751 OA 
HETATM   26  C   UNL     1     -12.363  13.577  69.727  1.00  0.00    -0.249 A  
HETATM   27  H   UNL     1     -14.098  15.097  70.791  1.00  0.00     0.000 HD 
ENDBRANCH  15  18
ENDBRANCH  14  15
ENDBRANCH  12  14
ENDBRANCH   2  12
TORSDOF 6
ENDMDL
MODEL      159
REMARK 921   NORMALIZED FREE ENERGY PREDICTED BY IDOCK:   -5.46 KCAL/MOL
REMARK 922        TOTAL FREE ENERGY PREDICTED BY IDOCK:   -7.98 KCAL/MOL
REMARK 923 INTER-LIGAND FREE ENERGY PREDICTED BY IDOCK:   -7.40 KCAL/MOL
REMARK 924 INTRA-LIGAND FREE ENERGY PREDICTED BY IDOCK:   -0.58 KCAL/MOL
REMARK 927      BINDING AFFINITY PREDICTED BY RF-SCORE:    0.00 PKD
ROOT
HETATM    1  C   UNL     1     -10.399  10.719  69.071  1.00  0.00    -0.235 C  
HETATM    2  C   UNL     1     -11.461  11.015  70.139  1.00  0.00    -0.296 C  
ENDROOT
BRANCH   2   3
HETATM    3  C   UNL     1     -12.219  12.306  69.726  1.00  0.00    -0.201 C  
BRANCH   3   4
HETATM    4  C   UNL     1     -12.314  13.362  70.803  1.00  0.00    -0.433 A  
HETATM    5  C   UNL     1     -13.319  14.169  72.862  1.00  0.00    -0.532 A  
HETATM    6  H   UNL     1     -13.194  16.047  74.568  1.00  0.00     0.000 HD 
HETATM    7  C   UNL     1     -11.483  14.491  70.784  1.00  0.00    -0.188 A  
HETATM    8  C   UNL     1     -13.238  13.215  71.849  1.00  0.00    -0.526 A  
HETATM    9  C   UNL     1     -11.566  15.449  71.798  1.00  0.00    -0.501 A  
HETATM   10  O   UNL     1     -12.572  16.167  73.860  1.00  0.00    -0.527 OA 
HETATM   11  C   UNL     1     -12.478  15.273  72.835  1.00  0.00    -0.406 A  
ENDBRANCH   3   4
ENDBRANCH   2   3
BRANCH   2  12
HETATM   12  N   UNL     1     -12.389   9.888  70.318  1.00  0.00    -0.497 NA 
HETATM   13  H   UNL     1     -11.998   9.037  69.914  1.00  0.00     0.000 HD 
BRANCH  12  14
HETATM   14  C   UNL     1     -12.795   9.655  71.708  1.00  0.00    -0.421 C  
BRANCH  14  15
HETATM   15  C   UNL     1     -12.914   8.143  72.035  1.00  0.00    -0.305 C  
HETATM   16  H   UNL     1     -13.697   6.539  71.190  1.00  0.00     0.000 HD 
HETATM   17  O   UNL     1     -13.624   7.465  70.991  1.00  0.00    -0.236 OA 
BRANCH  15  18
HETATM   18  C   UNL     1     -11.550   7.503  72.213  1.00  0.00    -0.354 A  
HETATM   19  O   UNL     1     -10.007   4.164  72.385  1.00  0.00    -0.153 OA 
HETATM   20  C   UNL     1     -10.164   5.518  72.392  1.00  0.00    -0.196 A  
HETATM   21  C   UNL     1     -11.414   6.106  72.186  1.00  0.00    -0.361 A  
HETATM   22  C   UNL     1      -9.035   6.294  72.616  1.00  0.00    -0.129 A  
HETATM   23  H   UNL     1      -9.157   3.764  72.525  1.00  0.00     0.000 HD 
HETATM   24  C   UNL     1      -9.163   7.677  72.638  1.00  0.00    -0.164 A  
HETATM   25  O   UNL     1      -8.093   8.491  72.858  1.00  0.00    -0.341 OA 
HETATM   26  C   UNL     1     -10.401   8.281  72.438  1.00  0.00    -0.402 A  
HETATM   27  H   UNL     1      -8.181   9.437  72.874  1.00  0.00     0.000 HD 
ENDBRANCH  15  18
ENDBRANCH  14  15
ENDBRANCH  12  14
ENDBRANCH   2  12
TORSDOF 6
ENDMDL
MODEL      160
REMARK 921   NORMALIZED FREE ENERGY PREDICTED BY IDOCK:   -5.46 KCAL/MOL
REMARK 922        TOTAL FREE ENERGY PREDICTED BY IDOCK:   -7.98 KCAL/MOL
REMARK 923 INTER-LIGAND FREE ENERGY PREDICTED BY IDOCK:   -7.04 KCAL/MOL
REMARK 924 INTRA-LIGAND FREE ENERGY PREDICTED BY IDOCK:   -0.94 KCAL/MOL
REMARK 927      BINDING AFFINITY PREDICTED BY RF-SCORE:    0.00 PKD
ROOT
HETATM    1  C   UNL     1     -10.109  15.615  69.715  1.00  0.00    -0.291 C  
HETATM    2  C   UNL     1     -11.213  16.127  68.778  1.00  0.00    -0.365 C  
ENDROOT
BRANCH   2   3
HETATM    3  C   UNL     1     -10.570  16.463  67.406  1.00  0.00    -0.306 C  
BRANCH   3   4
HETATM    4  C   UNL     1      -9.839  17.784  67.350  1.00  0.00    -0.311 A  
HETATM    5  C   UNL     1      -7.771  19.023  67.045  1.00  0.00    -0.245 A  
HETATM    6  H   UNL     1      -6.831  21.378  66.914  1.00  0.00     0.000 HD 
HETATM    7  C   UNL     1     -10.523  18.997  67.513  1.00  0.00    -0.537 A  
HETATM    8  C   UNL     1      -8.455  17.810  67.123  1.00  0.00    -0.239 A  
HETATM    9  C   UNL     1      -9.838  20.213  67.437  1.00  0.00    -0.573 A  
HETATM   10  O   UNL     1      -7.766  21.378  67.081  1.00  0.00    -0.299 OA 
HETATM   11  C   UNL     1      -8.468  20.214  67.193  1.00  0.00    -0.342 A  
ENDBRANCH   3   4
ENDBRANCH   2   3
BRANCH   2  12
HETATM   12  N   UNL     1     -12.304  15.150  68.630  1.00  0.00    -0.579 NA 
HETATM   13  H   UNL     1     -12.822  15.323  67.769  1.00  0.00     0.000 HD 
BRANCH  12  14
HETATM   14  C   UNL     1     -11.873  13.750  68.695  1.00  0.00    -0.374 C  
BRANCH  14  15
HETATM   15  C   UNL     1     -12.078  13.014  67.345  1.00  0.00    -0.233 C  
HETATM   16  H   UNL     1     -12.632  13.488  65.509  1.00  0.00     0.000 HD 
HETATM   17  O   UNL     1     -12.506  13.939  66.336  1.00  0.00    -0.441 OA 
BRANCH  15  18
HETATM   18  C   UNL     1     -10.806  12.325  66.887  1.00  0.00    -0.290 A  
HETATM   19  O   UNL     1      -9.734   9.514  64.763  1.00  0.00    -0.441 OA 
HETATM   20  C   UNL     1      -9.700  10.581  65.613  1.00  0.00    -0.234 A  
HETATM   21  C   UNL     1     -10.869  11.240  65.999  1.00  0.00    -0.273 A  
HETATM   22  C   UNL     1      -8.458  10.986  66.084  1.00  0.00    -0.168 A  
HETATM   23  H   UNL     1      -8.939   9.066  64.500  1.00  0.00     0.000 HD 
HETATM   24  C   UNL     1      -8.391  12.063  66.958  1.00  0.00    -0.178 A  
HETATM   25  O   UNL     1      -7.202  12.505  67.458  1.00  0.00    -0.122 OA 
HETATM   26  C   UNL     1      -9.545  12.731  67.357  1.00  0.00    -0.199 A  
HETATM   27  H   UNL     1      -7.157  13.242  68.056  1.00  0.00     0.000 HD 
ENDBRANCH  15  18
ENDBRANCH  14  15
ENDBRANCH  12  14
ENDBRANCH   2  12
TORSDOF 6
ENDMDL
MODEL      161
REMARK 921   NORMALIZED FREE ENERGY PREDICTED BY IDOCK:   -5.45 KCAL/MOL
REMARK 922        TOTAL FREE ENERGY PREDICTED BY IDOCK:   -7.97 KCAL/MOL
REMARK 923 INTER-LIGAND FREE ENERGY PREDICTED BY IDOCK:   -7.47 KCAL/MOL
REMARK 924 INTRA-LIGAND FREE ENERGY PREDICTED BY IDOCK:   -0.50 KCAL/MOL
REMARK 927      BINDING AFFINITY PREDICTED BY RF-SCORE:    0.00 PKD
ROOT
HETATM    1  C   UNL     1     -11.687  12.812  68.678  1.00  0.00    -0.360 C  
HETATM    2  C   UNL     1     -10.860  11.577  68.295  1.00  0.00    -0.216 C  
ENDROOT
BRANCH   2   3
HETATM    3  C   UNL     1     -10.817  11.482  66.746  1.00  0.00    -0.330 C  
BRANCH   3   4
HETATM    4  C   UNL     1     -11.062  12.785  66.019  1.00  0.00    -0.315 A  
HETATM    5  C   UNL     1     -10.239  14.929  65.227  1.00  0.00    -0.404 A  
HETATM    6  H   UNL     1     -10.909  16.975  63.880  1.00  0.00     0.000 HD 
HETATM    7  C   UNL     1     -12.306  13.063  65.434  1.00  0.00    -0.538 A  
HETATM    8  C   UNL     1     -10.034  13.733  65.915  1.00  0.00    -0.308 A  
HETATM    9  C   UNL     1     -12.512  14.262  64.746  1.00  0.00    -0.390 A  
HETATM   10  O   UNL     1     -11.620  16.349  63.953  1.00  0.00    -1.100 OA 
HETATM   11  C   UNL     1     -11.472  15.180  64.640  1.00  0.00    -0.362 A  
ENDBRANCH   3   4
ENDBRANCH   2   3
BRANCH   2  12
HETATM   12  N   UNL     1      -9.504  11.627  68.862  1.00  0.00    -0.407 NA 
HETATM   13  H   UNL     1      -9.540  11.545  69.878  1.00  0.00     0.000 HD 
BRANCH  12  14
HETATM   14  C   UNL     1      -8.578  10.636  68.302  1.00  0.00    -0.128 C  
BRANCH  14  15
HETATM   15  C   UNL     1      -7.980   9.714  69.396  1.00  0.00    -0.111 C  
HETATM   16  H   UNL     1      -7.005   9.934  71.099  1.00  0.00     0.000 HD 
HETATM   17  O   UNL     1      -7.371  10.499  70.429  1.00  0.00    -0.205 OA 
BRANCH  15  18
HETATM   18  C   UNL     1      -9.039   8.815  70.007  1.00  0.00    -0.164 A  
HETATM   19  O   UNL     1     -10.322   7.816  73.310  1.00  0.00    -0.334 OA 
HETATM   20  C   UNL     1     -10.151   7.900  71.960  1.00  0.00    -0.202 A  
HETATM   21  C   UNL     1      -9.205   8.759  71.399  1.00  0.00    -0.325 A  
HETATM   22  C   UNL     1     -10.952   7.095  71.160  1.00  0.00    -0.272 A  
HETATM   23  H   UNL     1     -10.966   7.231  73.692  1.00  0.00     0.000 HD 
HETATM   24  C   UNL     1     -10.796   7.151  69.782  1.00  0.00    -0.240 A  
HETATM   25  O   UNL     1     -11.549   6.382  68.945  1.00  0.00    -0.576 OA 
HETATM   26  C   UNL     1      -9.856   7.999  69.204  1.00  0.00    -0.178 A  
HETATM   27  H   UNL     1     -11.442   6.420  68.002  1.00  0.00     0.000 HD 
ENDBRANCH  15  18
ENDBRANCH  14  15
ENDBRANCH  12  14
ENDBRANCH   2  12
TORSDOF 6
ENDMDL
MODEL      162
REMARK 921   NORMALIZED FREE ENERGY PREDICTED BY IDOCK:   -5.43 KCAL/MOL
REMARK 922        TOTAL FREE ENERGY PREDICTED BY IDOCK:   -7.94 KCAL/MOL
REMARK 923 INTER-LIGAND FREE ENERGY PREDICTED BY IDOCK:   -6.64 KCAL/MOL
REMARK 924 INTRA-LIGAND FREE ENERGY PREDICTED BY IDOCK:   -1.30 KCAL/MOL
REMARK 927      BINDING AFFINITY PREDICTED BY RF-SCORE:    0.00 PKD
ROOT
HETATM    1  C   UNL     1      -8.455  10.271  65.335  1.00  0.00    -0.166 C  
HETATM    2  C   UNL     1      -9.577   9.906  66.317  1.00  0.00    -0.209 C  
ENDROOT
BRANCH   2   3
HETATM    3  C   UNL     1     -10.763  10.882  66.086  1.00  0.00    -0.225 C  
BRANCH   3   4
HETATM    4  C   UNL     1     -11.233  11.619  67.319  1.00  0.00    -0.365 A  
HETATM    5  C   UNL     1     -11.835  11.594  69.672  1.00  0.00    -0.419 A  
HETATM    6  H   UNL     1     -12.539  13.102  71.591  1.00  0.00     0.000 HD 
HETATM    7  C   UNL     1     -11.474  13.000  67.287  1.00  0.00    -0.380 A  
HETATM    8  C   UNL     1     -11.425  10.923  68.521  1.00  0.00    -0.380 A  
HETATM    9  C   UNL     1     -11.886  13.674  68.440  1.00  0.00    -0.407 A  
HETATM   10  O   UNL     1     -12.426  13.586  70.781  1.00  0.00    -0.351 OA 
HETATM   11  C   UNL     1     -12.053  12.965  69.626  1.00  0.00    -0.226 A  
ENDBRANCH   3   4
ENDBRANCH   2   3
BRANCH   2  12
HETATM   12  N   UNL     1     -10.004   8.506  66.168  1.00  0.00    -0.468 NA 
HETATM   13  H   UNL     1      -9.720   8.142  65.259  1.00  0.00     0.000 HD 
BRANCH  12  14
HETATM   14  C   UNL     1      -9.545   7.618  67.242  1.00  0.00    -0.157 C  
BRANCH  14  15
HETATM   15  C   UNL     1     -10.704   7.193  68.181  1.00  0.00    -0.160 C  
HETATM   16  H   UNL     1     -11.581   5.509  68.726  1.00  0.00     0.000 HD 
HETATM   17  O   UNL     1     -10.871   5.770  68.151  1.00  0.00    -0.241 OA 
BRANCH  15  18
HETATM   18  C   UNL     1     -10.456   7.640  69.610  1.00  0.00    -0.235 A  
HETATM   19  O   UNL     1     -12.172   7.745  72.866  1.00  0.00    -0.590 OA 
HETATM   20  C   UNL     1     -11.226   7.902  71.896  1.00  0.00    -0.271 A  
HETATM   21  C   UNL     1     -11.441   7.452  70.592  1.00  0.00    -0.307 A  
HETATM   22  C   UNL     1     -10.040   8.530  72.252  1.00  0.00    -0.386 A  
HETATM   23  H   UNL     1     -12.026   8.051  73.753  1.00  0.00     0.000 HD 
HETATM   24  C   UNL     1      -9.060   8.712  71.285  1.00  0.00    -0.212 A  
HETATM   25  O   UNL     1      -7.878   9.326  71.573  1.00  0.00    -0.336 OA 
HETATM   26  C   UNL     1      -9.257   8.274  69.979  1.00  0.00    -0.151 A  
HETATM   27  H   UNL     1      -7.208   9.451  70.911  1.00  0.00     0.000 HD 
ENDBRANCH  15  18
ENDBRANCH  14  15
ENDBRANCH  12  14
ENDBRANCH   2  12
TORSDOF 6
ENDMDL
MODEL      163
REMARK 921   NORMALIZED FREE ENERGY PREDICTED BY IDOCK:   -5.42 KCAL/MOL
REMARK 922        TOTAL FREE ENERGY PREDICTED BY IDOCK:   -7.93 KCAL/MOL
REMARK 923 INTER-LIGAND FREE ENERGY PREDICTED BY IDOCK:   -6.55 KCAL/MOL
REMARK 924 INTRA-LIGAND FREE ENERGY PREDICTED BY IDOCK:   -1.38 KCAL/MOL
REMARK 927      BINDING AFFINITY PREDICTED BY RF-SCORE:    0.00 PKD
ROOT
HETATM    1  C   UNL     1      -8.898  10.588  65.515  1.00  0.00    -0.200 C  
HETATM    2  C   UNL     1      -9.948  10.203  66.567  1.00  0.00    -0.224 C  
ENDROOT
BRANCH   2   3
HETATM    3  C   UNL     1     -11.085  11.259  66.528  1.00  0.00    -0.280 C  
BRANCH   3   4
HETATM    4  C   UNL     1     -11.483  11.820  67.875  1.00  0.00    -0.387 A  
HETATM    5  C   UNL     1     -12.032  13.733  69.268  1.00  0.00    -0.399 A  
HETATM    6  H   UNL     1     -12.788  14.376  71.606  1.00  0.00     0.000 HD 
HETATM    7  C   UNL     1     -11.707  10.976  68.972  1.00  0.00    -0.402 A  
HETATM    8  C   UNL     1     -11.642  13.204  68.038  1.00  0.00    -0.371 A  
HETATM    9  C   UNL     1     -12.096  11.506  70.205  1.00  0.00    -0.444 A  
HETATM   10  O   UNL     1     -12.672  13.437  71.515  1.00  0.00    -0.340 OA 
HETATM   11  C   UNL     1     -12.265  12.881  70.338  1.00  0.00    -0.304 A  
ENDBRANCH   3   4
ENDBRANCH   2   3
BRANCH   2  12
HETATM   12  N   UNL     1     -10.474   8.847  66.349  1.00  0.00    -0.236 NA 
HETATM   13  H   UNL     1     -10.524   8.641  65.351  1.00  0.00     0.000 HD 
BRANCH  12  14
HETATM   14  C   UNL     1      -9.736   7.793  67.053  1.00  0.00    -0.197 C  
BRANCH  14  15
HETATM   15  C   UNL     1     -10.626   7.049  68.084  1.00  0.00    -0.204 C  
HETATM   16  H   UNL     1     -10.871   5.192  68.709  1.00  0.00     0.000 HD 
HETATM   17  O   UNL     1     -10.327   5.647  68.078  1.00  0.00    -0.184 OA 
BRANCH  15  18
HETATM   18  C   UNL     1     -10.435   7.599  69.485  1.00  0.00    -0.227 A  
HETATM   19  O   UNL     1      -7.922   9.399  71.486  1.00  0.00    -0.298 OA 
HETATM   20  C   UNL     1      -9.065   8.747  71.126  1.00  0.00    -0.225 A  
HETATM   21  C   UNL     1      -9.256   8.280  69.825  1.00  0.00    -0.154 A  
HETATM   22  C   UNL     1     -10.034   8.562  72.104  1.00  0.00    -0.387 A  
HETATM   23  H   UNL     1      -7.793   9.717  72.372  1.00  0.00     0.000 HD 
HETATM   24  C   UNL     1     -11.205   7.895  71.771  1.00  0.00    -0.260 A  
HETATM   25  O   UNL     1     -12.190   7.678  72.688  1.00  0.00    -0.549 OA 
HETATM   26  C   UNL     1     -11.412   7.418  70.480  1.00  0.00    -0.281 A  
HETATM   27  H   UNL     1     -12.991   7.221  72.460  1.00  0.00     0.000 HD 
ENDBRANCH  15  18
ENDBRANCH  14  15
ENDBRANCH  12  14
ENDBRANCH   2  12
TORSDOF 6
ENDMDL
MODEL      164
REMARK 921   NORMALIZED FREE ENERGY PREDICTED BY IDOCK:   -5.41 KCAL/MOL
REMARK 922        TOTAL FREE ENERGY PREDICTED BY IDOCK:   -7.92 KCAL/MOL
REMARK 923 INTER-LIGAND FREE ENERGY PREDICTED BY IDOCK:   -7.42 KCAL/MOL
REMARK 924 INTRA-LIGAND FREE ENERGY PREDICTED BY IDOCK:   -0.50 KCAL/MOL
REMARK 927      BINDING AFFINITY PREDICTED BY RF-SCORE:    0.00 PKD
ROOT
HETATM    1  C   UNL     1      -9.988   9.957  70.215  1.00  0.00    -0.261 C  
HETATM    2  C   UNL     1     -11.393  10.356  70.689  1.00  0.00    -0.325 C  
ENDROOT
BRANCH   2   3
HETATM    3  C   UNL     1     -11.877  11.551  69.824  1.00  0.00    -0.429 C  
BRANCH   3   4
HETATM    4  C   UNL     1     -12.394  12.737  70.607  1.00  0.00    -0.381 A  
HETATM    5  C   UNL     1     -13.648  13.616  72.493  1.00  0.00    -0.675 A  
HETATM    6  H   UNL     1     -14.296  15.781  73.651  1.00  0.00     0.000 HD 
HETATM    7  C   UNL     1     -12.088  14.049  70.218  1.00  0.00    -0.425 A  
HETATM    8  C   UNL     1     -13.184  12.533  71.747  1.00  0.00    -0.444 A  
HETATM    9  C   UNL     1     -12.554  15.135  70.963  1.00  0.00    -0.441 A  
HETATM   10  O   UNL     1     -13.772  15.937  72.874  1.00  0.00    -0.591 OA 
HETATM   11  C   UNL     1     -13.322  14.908  72.101  1.00  0.00    -0.375 A  
ENDBRANCH   3   4
ENDBRANCH   2   3
BRANCH   2  12
HETATM   12  N   UNL     1     -12.337   9.230  70.616  1.00  0.00    -0.491 NA 
HETATM   13  H   UNL     1     -12.941   9.324  69.800  1.00  0.00     0.000 HD 
BRANCH  12  14
HETATM   14  C   UNL     1     -11.702   7.908  70.634  1.00  0.00    -0.157 C  
BRANCH  14  15
HETATM   15  C   UNL     1     -12.069   7.104  71.909  1.00  0.00    -0.321 C  
HETATM   16  H   UNL     1     -13.702   6.351  72.725  1.00  0.00     0.000 HD 
HETATM   17  O   UNL     1     -13.478   6.844  71.945  1.00  0.00    -0.288 OA 
BRANCH  15  18
HETATM   18  C   UNL     1     -11.313   5.790  71.976  1.00  0.00    -0.289 A  
HETATM   19  O   UNL     1     -10.763   2.970  74.279  1.00  0.00    -0.178 OA 
HETATM   20  C   UNL     1     -10.690   3.780  73.184  1.00  0.00    -0.176 A  
HETATM   21  C   UNL     1     -11.419   4.968  73.109  1.00  0.00    -0.362 A  
HETATM   22  C   UNL     1      -9.859   3.380  72.146  1.00  0.00    -0.236 A  
HETATM   23  H   UNL     1     -10.268   2.162  74.331  1.00  0.00     0.000 HD 
HETATM   24  C   UNL     1      -9.756   4.187  71.020  1.00  0.00    -0.190 A  
HETATM   25  O   UNL     1      -8.953   3.852  69.971  1.00  0.00    -0.082 OA 
HETATM   26  C   UNL     1     -10.472   5.377  70.928  1.00  0.00    -0.307 A  
HETATM   27  H   UNL     1      -8.882   4.404  69.201  1.00  0.00     0.000 HD 
ENDBRANCH  15  18
ENDBRANCH  14  15
ENDBRANCH  12  14
ENDBRANCH   2  12
TORSDOF 6
ENDMDL
MODEL      165
REMARK 921   NORMALIZED FREE ENERGY PREDICTED BY IDOCK:   -5.41 KCAL/MOL
REMARK 922        TOTAL FREE ENERGY PREDICTED BY IDOCK:   -7.92 KCAL/MOL
REMARK 923 INTER-LIGAND FREE ENERGY PREDICTED BY IDOCK:   -7.26 KCAL/MOL
REMARK 924 INTRA-LIGAND FREE ENERGY PREDICTED BY IDOCK:   -0.66 KCAL/MOL
REMARK 927      BINDING AFFINITY PREDICTED BY RF-SCORE:    0.00 PKD
ROOT
HETATM    1  C   UNL     1     -11.864  12.639  69.645  1.00  0.00    -0.379 C  
HETATM    2  C   UNL     1     -11.420  11.204  69.327  1.00  0.00    -0.294 C  
ENDROOT
BRANCH   2   3
HETATM    3  C   UNL     1     -12.121  10.246  70.328  1.00  0.00    -0.330 C  
BRANCH   3   4
HETATM    4  C   UNL     1     -11.186   9.407  71.169  1.00  0.00    -0.427 A  
HETATM    5  C   UNL     1      -8.937   8.631  71.660  1.00  0.00    -0.305 A  
HETATM    6  H   UNL     1      -7.603   7.210  73.288  1.00  0.00     0.000 HD 
HETATM    7  C   UNL     1     -11.666   8.653  72.249  1.00  0.00    -0.428 A  
HETATM    8  C   UNL     1      -9.814   9.382  70.878  1.00  0.00    -0.338 A  
HETATM    9  C   UNL     1     -10.787   7.899  73.033  1.00  0.00    -0.408 A  
HETATM   10  O   UNL     1      -8.531   7.207  73.491  1.00  0.00    -0.117 OA 
HETATM   11  C   UNL     1      -9.427   7.904  72.736  1.00  0.00    -0.241 A  
ENDBRANCH   3   4
ENDBRANCH   2   3
BRANCH   2  12
HETATM   12  N   UNL     1     -11.719  10.832  67.936  1.00  0.00    -0.716 NA 
HETATM   13  H   UNL     1     -12.502  10.179  67.902  1.00  0.00     0.000 HD 
BRANCH  12  14
HETATM   14  C   UNL     1     -11.965  11.971  67.046  1.00  0.00    -0.023 C  
BRANCH  14  15
HETATM   15  C   UNL     1     -10.826  12.156  66.009  1.00  0.00    -0.282 C  
HETATM   16  H   UNL     1     -10.614  12.011  64.051  1.00  0.00     0.000 HD 
HETATM   17  O   UNL     1     -11.311  11.898  64.686  1.00  0.00    -0.317 OA 
BRANCH  15  18
HETATM   18  C   UNL     1     -10.242  13.556  66.066  1.00  0.00    -0.308 A  
HETATM   19  O   UNL     1     -10.970  16.962  64.873  1.00  0.00    -0.663 OA 
HETATM   20  C   UNL     1     -10.349  15.906  65.473  1.00  0.00    -0.400 A  
HETATM   21  C   UNL     1     -10.910  14.628  65.454  1.00  0.00    -0.365 A  
HETATM   22  C   UNL     1      -9.134  16.148  66.101  1.00  0.00    -0.382 A  
HETATM   23  H   UNL     1     -10.588  17.832  64.886  1.00  0.00     0.000 HD 
HETATM   24  C   UNL     1      -8.473  15.092  66.713  1.00  0.00    -0.204 A  
HETATM   25  O   UNL     1      -7.276  15.265  67.341  1.00  0.00    -0.185 OA 
HETATM   26  C   UNL     1      -9.014  13.810  66.703  1.00  0.00    -0.149 A  
HETATM   27  H   UNL     1      -6.823  14.542  67.759  1.00  0.00     0.000 HD 
ENDBRANCH  15  18
ENDBRANCH  14  15
ENDBRANCH  12  14
ENDBRANCH   2  12
TORSDOF 6
ENDMDL
MODEL      166
REMARK 921   NORMALIZED FREE ENERGY PREDICTED BY IDOCK:   -5.39 KCAL/MOL
REMARK 922        TOTAL FREE ENERGY PREDICTED BY IDOCK:   -7.89 KCAL/MOL
REMARK 923 INTER-LIGAND FREE ENERGY PREDICTED BY IDOCK:   -7.19 KCAL/MOL
REMARK 924 INTRA-LIGAND FREE ENERGY PREDICTED BY IDOCK:   -0.70 KCAL/MOL
REMARK 927      BINDING AFFINITY PREDICTED BY RF-SCORE:    0.00 PKD
ROOT
HETATM    1  C   UNL     1     -10.187   8.991  72.054  1.00  0.00    -0.270 C  
HETATM    2  C   UNL     1     -11.687   8.778  72.300  1.00  0.00    -0.328 C  
ENDROOT
BRANCH   2   3
HETATM    3  C   UNL     1     -12.465   9.344  71.082  1.00  0.00    -0.370 C  
BRANCH   3   4
HETATM    4  C   UNL     1     -12.470  10.852  70.973  1.00  0.00    -0.514 A  
HETATM    5  C   UNL     1     -11.883  12.865  69.747  1.00  0.00    -0.380 A  
HETATM    6  H   UNL     1     -12.123  15.393  69.785  1.00  0.00     0.000 HD 
HETATM    7  C   UNL     1     -13.082  11.646  71.954  1.00  0.00    -0.490 A  
HETATM    8  C   UNL     1     -11.865  11.477  69.873  1.00  0.00    -0.430 A  
HETATM    9  C   UNL     1     -13.099  13.038  71.829  1.00  0.00    -0.469 A  
HETATM   10  O   UNL     1     -12.527  14.986  70.543  1.00  0.00    -0.328 OA 
HETATM   11  C   UNL     1     -12.508  13.634  70.719  1.00  0.00    -0.359 A  
ENDBRANCH   3   4
ENDBRANCH   2   3
BRANCH   2  12
HETATM   12  N   UNL     1     -12.011   7.361  72.526  1.00  0.00    -0.513 NA 
HETATM   13  H   UNL     1     -12.879   7.273  73.053  1.00  0.00     0.000 HD 
BRANCH  12  14
HETATM   14  C   UNL     1     -12.071   6.554  71.303  1.00  0.00    -0.270 C  
BRANCH  14  15
HETATM   15  C   UNL     1     -10.689   5.957  70.930  1.00  0.00    -0.273 C  
HETATM   16  H   UNL     1      -9.684   4.296  71.292  1.00  0.00     0.000 HD 
HETATM   17  O   UNL     1     -10.531   4.661  71.521  1.00  0.00    -0.145 OA 
BRANCH  15  18
HETATM   18  C   UNL     1     -10.516   5.848  69.426  1.00  0.00    -0.343 A  
HETATM   19  O   UNL     1      -9.737   3.330  66.855  1.00  0.00    -0.399 OA 
HETATM   20  C   UNL     1     -10.030   4.520  67.455  1.00  0.00    -0.120 A  
HETATM   21  C   UNL     1     -10.230   4.609  68.833  1.00  0.00    -0.012 A  
HETATM   22  C   UNL     1     -10.120   5.643  66.642  1.00  0.00    -0.237 A  
HETATM   23  H   UNL     1      -9.601   3.270  65.917  1.00  0.00     0.000 HD 
HETATM   24  C   UNL     1     -10.408   6.870  67.224  1.00  0.00    -0.251 A  
HETATM   25  O   UNL     1     -10.503   8.009  66.480  1.00  0.00    -0.455 OA 
HETATM   26  C   UNL     1     -10.607   6.980  68.596  1.00  0.00    -0.238 A  
HETATM   27  H   UNL     1     -10.700   8.849  66.878  1.00  0.00     0.000 HD 
ENDBRANCH  15  18
ENDBRANCH  14  15
ENDBRANCH  12  14
ENDBRANCH   2  12
TORSDOF 6
ENDMDL
MODEL      167
REMARK 921   NORMALIZED FREE ENERGY PREDICTED BY IDOCK:   -5.37 KCAL/MOL
REMARK 922        TOTAL FREE ENERGY PREDICTED BY IDOCK:   -7.86 KCAL/MOL
REMARK 923 INTER-LIGAND FREE ENERGY PREDICTED BY IDOCK:   -7.24 KCAL/MOL
REMARK 924 INTRA-LIGAND FREE ENERGY PREDICTED BY IDOCK:   -0.62 KCAL/MOL
REMARK 927      BINDING AFFINITY PREDICTED BY RF-SCORE:    0.00 PKD
ROOT
HETATM    1  C   UNL     1     -11.701  10.277  70.239  1.00  0.00    -0.388 C  
HETATM    2  C   UNL     1     -10.371  10.449  69.490  1.00  0.00    -0.237 C  
ENDROOT
BRANCH   2   3
HETATM    3  C   UNL     1     -10.164   9.211  68.576  1.00  0.00    -0.223 C  
BRANCH   3   4
HETATM    4  C   UNL     1     -10.037   7.893  69.305  1.00  0.00    -0.197 A  
HETATM    5  C   UNL     1      -8.886   6.501  70.930  1.00  0.00    -0.147 A  
HETATM    6  H   UNL     1      -8.973   4.229  72.062  1.00  0.00     0.000 HD 
HETATM    7  C   UNL     1     -10.946   6.851  69.079  1.00  0.00    -0.225 A  
HETATM    8  C   UNL     1      -9.002   7.703  70.232  1.00  0.00    -0.146 A  
HETATM    9  C   UNL     1     -10.830   5.645  69.776  1.00  0.00    -0.370 A  
HETATM   10  O   UNL     1      -9.672   4.338  71.428  1.00  0.00    -0.161 OA 
HETATM   11  C   UNL     1      -9.805   5.486  70.704  1.00  0.00    -0.192 A  
ENDBRANCH   3   4
ENDBRANCH   2   3
BRANCH   2  12
HETATM   12  N   UNL     1     -10.336  11.697  68.712  1.00  0.00    -0.275 NA 
HETATM   13  H   UNL     1     -10.091  11.504  67.741  1.00  0.00     0.000 HD 
BRANCH  12  14
HETATM   14  C   UNL     1     -11.570  12.486  68.782  1.00  0.00    -0.322 C  
BRANCH  14  15
HETATM   15  C   UNL     1     -11.299  13.955  69.200  1.00  0.00    -0.286 C  
HETATM   16  H   UNL     1     -11.636  15.755  68.461  1.00  0.00     0.000 HD 
HETATM   17  O   UNL     1     -11.802  14.856  68.205  1.00  0.00    -0.330 OA 
BRANCH  15  18
HETATM   18  C   UNL     1     -11.933  14.280  70.539  1.00  0.00    -0.402 A  
HETATM   19  O   UNL     1     -11.819  16.866  73.158  1.00  0.00    -0.367 OA 
HETATM   20  C   UNL     1     -12.145  15.734  72.470  1.00  0.00    -0.489 A  
HETATM   21  C   UNL     1     -11.591  15.459  71.218  1.00  0.00    -0.440 A  
HETATM   22  C   UNL     1     -13.049  14.862  73.062  1.00  0.00    -0.605 A  
HETATM   23  H   UNL     1     -12.196  17.053  74.009  1.00  0.00     0.000 HD 
HETATM   24  C   UNL     1     -13.395  13.697  72.391  1.00  0.00    -0.540 A  
HETATM   25  O   UNL     1     -14.272  12.799  72.923  1.00  0.00    -0.525 OA 
HETATM   26  C   UNL     1     -12.851  13.403  71.145  1.00  0.00    -0.372 A  
HETATM   27  H   UNL     1     -14.508  12.001  72.464  1.00  0.00     0.000 HD 
ENDBRANCH  15  18
ENDBRANCH  14  15
ENDBRANCH  12  14
ENDBRANCH   2  12
TORSDOF 6
ENDMDL
MODEL      168
REMARK 921   NORMALIZED FREE ENERGY PREDICTED BY IDOCK:   -5.36 KCAL/MOL
REMARK 922        TOTAL FREE ENERGY PREDICTED BY IDOCK:   -7.85 KCAL/MOL
REMARK 923 INTER-LIGAND FREE ENERGY PREDICTED BY IDOCK:   -7.30 KCAL/MOL
REMARK 924 INTRA-LIGAND FREE ENERGY PREDICTED BY IDOCK:   -0.55 KCAL/MOL
REMARK 927      BINDING AFFINITY PREDICTED BY RF-SCORE:    0.00 PKD
ROOT
HETATM    1  C   UNL     1     -12.598  13.927  70.671  1.00  0.00    -0.405 C  
HETATM    2  C   UNL     1     -11.581  14.074  69.530  1.00  0.00    -0.295 C  
ENDROOT
BRANCH   2   3
HETATM    3  C   UNL     1     -10.553  15.166  69.932  1.00  0.00    -0.253 C  
BRANCH   3   4
HETATM    4  C   UNL     1      -9.883  15.868  68.774  1.00  0.00    -0.216 A  
HETATM    5  C   UNL     1     -10.011  16.814  66.540  1.00  0.00    -0.308 A  
HETATM    6  H   UNL     1      -8.655  18.078  64.803  1.00  0.00     0.000 HD 
HETATM    7  C   UNL     1      -8.539  16.262  68.847  1.00  0.00    -0.260 A  
HETATM    8  C   UNL     1     -10.609  16.145  67.607  1.00  0.00    -0.315 A  
HETATM    9  C   UNL     1      -7.937  16.931  67.778  1.00  0.00    -0.188 A  
HETATM   10  O   UNL     1      -8.145  17.887  65.582  1.00  0.00    -0.514 OA 
HETATM   11  C   UNL     1      -8.683  17.210  66.637  1.00  0.00    -0.252 A  
ENDBRANCH   3   4
ENDBRANCH   2   3
BRANCH   2  12
HETATM   12  N   UNL     1     -10.912  12.801  69.223  1.00  0.00    -0.443 NA 
HETATM   13  H   UNL     1     -10.097  12.673  69.822  1.00  0.00     0.000 HD 
BRANCH  12  14
HETATM   14  C   UNL     1     -11.788  11.626  69.293  1.00  0.00    -0.331 C  
BRANCH  14  15
HETATM   15  C   UNL     1     -10.993  10.299  69.174  1.00  0.00    -0.238 C  
HETATM   16  H   UNL     1      -9.109   9.724  69.317  1.00  0.00     0.000 HD 
HETATM   17  O   UNL     1      -9.596  10.537  69.389  1.00  0.00    -0.207 OA 
BRANCH  15  18
HETATM   18  C   UNL     1     -11.485   9.264  70.168  1.00  0.00    -0.138 A  
HETATM   19  O   UNL     1     -13.679   9.005  73.114  1.00  0.00    -1.013 OA 
HETATM   20  C   UNL     1     -12.811   8.678  72.115  1.00  0.00    -0.391 A  
HETATM   21  C   UNL     1     -12.392   9.624  71.177  1.00  0.00    -0.427 A  
HETATM   22  C   UNL     1     -12.353   7.368  72.066  1.00  0.00    -0.301 A  
HETATM   23  H   UNL     1     -13.964   8.362  73.752  1.00  0.00     0.000 HD 
HETATM   24  C   UNL     1     -11.461   7.005  71.066  1.00  0.00    -0.303 A  
HETATM   25  O   UNL     1     -10.973   5.736  70.968  1.00  0.00    -0.271 OA 
HETATM   26  C   UNL     1     -11.029   7.934  70.124  1.00  0.00    -0.235 A  
HETATM   27  H   UNL     1     -10.362   5.488  70.284  1.00  0.00     0.000 HD 
ENDBRANCH  15  18
ENDBRANCH  14  15
ENDBRANCH  12  14
ENDBRANCH   2  12
TORSDOF 6
ENDMDL
MODEL      169
REMARK 921   NORMALIZED FREE ENERGY PREDICTED BY IDOCK:   -5.34 KCAL/MOL
REMARK 922        TOTAL FREE ENERGY PREDICTED BY IDOCK:   -7.82 KCAL/MOL
REMARK 923 INTER-LIGAND FREE ENERGY PREDICTED BY IDOCK:   -7.32 KCAL/MOL
REMARK 924 INTRA-LIGAND FREE ENERGY PREDICTED BY IDOCK:   -0.50 KCAL/MOL
REMARK 927      BINDING AFFINITY PREDICTED BY RF-SCORE:    0.00 PKD
ROOT
HETATM    1  C   UNL     1     -11.232  15.783  64.600  1.00  0.00    -0.373 C  
HETATM    2  C   UNL     1     -10.064  15.585  65.576  1.00  0.00    -0.373 C  
ENDROOT
BRANCH   2   3
HETATM    3  C   UNL     1     -10.406  16.320  66.900  1.00  0.00    -0.299 C  
BRANCH   3   4
HETATM    4  C   UNL     1      -9.660  17.616  67.121  1.00  0.00    -0.278 A  
HETATM    5  C   UNL     1      -7.804  18.819  68.127  1.00  0.00    -0.314 A  
HETATM    6  H   UNL     1      -6.710  21.108  68.245  1.00  0.00     0.000 HD 
HETATM    7  C   UNL     1     -10.086  18.808  66.518  1.00  0.00    -0.437 A  
HETATM    8  C   UNL     1      -8.516  17.636  67.933  1.00  0.00    -0.233 A  
HETATM    9  C   UNL     1      -9.373  19.995  66.714  1.00  0.00    -0.510 A  
HETATM   10  O   UNL     1      -7.490  21.114  67.702  1.00  0.00    -0.306 OA 
HETATM   11  C   UNL     1      -8.231  19.986  67.509  1.00  0.00    -0.329 A  
ENDBRANCH   3   4
ENDBRANCH   2   3
BRANCH   2  12
HETATM   12  N   UNL     1      -9.784  14.161  65.816  1.00  0.00    -0.498 NA 
HETATM   13  H   UNL     1      -9.156  14.050  66.613  1.00  0.00     0.000 HD 
BRANCH  12  14
HETATM   14  C   UNL     1     -10.981  13.331  65.989  1.00  0.00    -0.279 C  
BRANCH  14  15
HETATM   15  C   UNL     1     -10.962  12.556  67.332  1.00  0.00    -0.259 C  
HETATM   16  H   UNL     1     -12.223  12.187  68.807  1.00  0.00     0.000 HD 
HETATM   17  O   UNL     1     -12.234  12.662  67.985  1.00  0.00    -0.268 OA 
BRANCH  15  18
HETATM   18  C   UNL     1     -10.625  11.091  67.126  1.00  0.00    -0.294 A  
HETATM   19  O   UNL     1      -9.198   8.862  64.565  1.00  0.00    -0.419 OA 
HETATM   20  C   UNL     1      -9.761   9.307  65.725  1.00  0.00    -0.269 A  
HETATM   21  C   UNL     1     -10.031  10.662  65.929  1.00  0.00    -0.312 A  
HETATM   22  C   UNL     1     -10.058   8.362  66.698  1.00  0.00    -0.358 A  
HETATM   23  H   UNL     1      -9.014   7.941  64.427  1.00  0.00     0.000 HD 
HETATM   24  C   UNL     1     -10.640   8.782  67.887  1.00  0.00    -0.174 A  
HETATM   25  O   UNL     1     -10.960   7.902  68.877  1.00  0.00    -0.423 OA 
HETATM   26  C   UNL     1     -10.920  10.127  68.107  1.00  0.00    -0.313 A  
HETATM   27  H   UNL     1     -11.358   8.190  69.690  1.00  0.00     0.000 HD 
ENDBRANCH  15  18
ENDBRANCH  14  15
ENDBRANCH  12  14
ENDBRANCH   2  12
TORSDOF 6
ENDMDL
MODEL      170
REMARK 921   NORMALIZED FREE ENERGY PREDICTED BY IDOCK:   -5.34 KCAL/MOL
REMARK 922        TOTAL FREE ENERGY PREDICTED BY IDOCK:   -7.82 KCAL/MOL
REMARK 923 INTER-LIGAND FREE ENERGY PREDICTED BY IDOCK:   -6.76 KCAL/MOL
REMARK 924 INTRA-LIGAND FREE ENERGY PREDICTED BY IDOCK:   -1.06 KCAL/MOL
REMARK 927      BINDING AFFINITY PREDICTED BY RF-SCORE:    0.00 PKD
ROOT
HETATM    1  C   UNL     1     -11.681  15.000  71.019  1.00  0.00    -0.379 C  
HETATM    2  C   UNL     1     -11.996  14.196  69.749  1.00  0.00    -0.339 C  
ENDROOT
BRANCH   2   3
HETATM    3  C   UNL     1     -11.816  15.133  68.525  1.00  0.00    -0.307 C  
BRANCH   3   4
HETATM    4  C   UNL     1     -11.588  14.427  67.208  1.00  0.00    -0.401 A  
HETATM    5  C   UNL     1     -10.070  13.696  65.458  1.00  0.00    -0.293 A  
HETATM    6  H   UNL     1      -9.974  12.374  63.292  1.00  0.00     0.000 HD 
HETATM    7  C   UNL     1     -12.648  13.816  66.522  1.00  0.00    -0.242 A  
HETATM    8  C   UNL     1     -10.299  14.366  66.660  1.00  0.00    -0.275 A  
HETATM    9  C   UNL     1     -12.419  13.147  65.317  1.00  0.00    -0.550 A  
HETATM   10  O   UNL     1     -10.855  12.416  63.644  1.00  0.00    -0.411 OA 
HETATM   11  C   UNL     1     -11.128  13.084  64.801  1.00  0.00    -0.322 A  
ENDBRANCH   3   4
ENDBRANCH   2   3
BRANCH   2  12
HETATM   12  N   UNL     1     -11.148  13.000  69.632  1.00  0.00    -0.468 NA 
HETATM   13  H   UNL     1     -10.536  12.916  70.444  1.00  0.00     0.000 HD 
BRANCH  12  14
HETATM   14  C   UNL     1     -11.890  11.753  69.418  1.00  0.00    -0.334 C  
BRANCH  14  15
HETATM   15  C   UNL     1     -11.092  10.512  69.897  1.00  0.00    -0.307 C  
HETATM   16  H   UNL     1     -11.433   8.910  71.001  1.00  0.00     0.000 HD 
HETATM   17  O   UNL     1     -11.922   9.670  70.709  1.00  0.00    -0.282 OA 
BRANCH  15  18
HETATM   18  C   UNL     1     -10.555   9.709  68.727  1.00  0.00    -0.242 A  
HETATM   19  O   UNL     1      -8.809   6.539  68.050  1.00  0.00    -0.117 OA 
HETATM   20  C   UNL     1      -9.417   7.746  67.867  1.00  0.00    -0.144 A  
HETATM   21  C   UNL     1      -9.948   8.462  68.941  1.00  0.00    -0.194 A  
HETATM   22  C   UNL     1      -9.487   8.239  66.571  1.00  0.00    -0.284 A  
HETATM   23  H   UNL     1      -8.448   6.051  67.319  1.00  0.00     0.000 HD 
HETATM   24  C   UNL     1     -10.093   9.469  66.353  1.00  0.00    -0.258 A  
HETATM   25  O   UNL     1     -10.187  10.009  65.104  1.00  0.00    -0.288 OA 
HETATM   26  C   UNL     1     -10.624  10.200  67.411  1.00  0.00    -0.329 A  
HETATM   27  H   UNL     1     -10.601  10.851  64.955  1.00  0.00     0.000 HD 
ENDBRANCH  15  18
ENDBRANCH  14  15
ENDBRANCH  12  14
ENDBRANCH   2  12
TORSDOF 6
ENDMDL
MODEL      171
REMARK 921   NORMALIZED FREE ENERGY PREDICTED BY IDOCK:   -5.34 KCAL/MOL
REMARK 922        TOTAL FREE ENERGY PREDICTED BY IDOCK:   -7.82 KCAL/MOL
REMARK 923 INTER-LIGAND FREE ENERGY PREDICTED BY IDOCK:   -7.43 KCAL/MOL
REMARK 924 INTRA-LIGAND FREE ENERGY PREDICTED BY IDOCK:   -0.38 KCAL/MOL
REMARK 927      BINDING AFFINITY PREDICTED BY RF-SCORE:    0.00 PKD
ROOT
HETATM    1  C   UNL     1      -9.292  14.089  67.396  1.00  0.00    -0.220 C  
HETATM    2  C   UNL     1     -10.707  14.124  67.991  1.00  0.00    -0.242 C  
ENDROOT
BRANCH   2   3
HETATM    3  C   UNL     1     -11.695  13.569  66.930  1.00  0.00    -0.424 C  
BRANCH   3   4
HETATM    4  C   UNL     1     -11.078  12.643  65.907  1.00  0.00    -0.323 A  
HETATM    5  C   UNL     1     -10.012  10.527  65.370  1.00  0.00    -0.353 A  
HETATM    6  H   UNL     1      -9.123   9.151  63.429  1.00  0.00     0.000 HD 
HETATM    7  C   UNL     1     -11.021  12.998  64.551  1.00  0.00    -0.381 A  
HETATM    8  C   UNL     1     -10.561  11.402  66.306  1.00  0.00    -0.312 A  
HETATM    9  C   UNL     1     -10.468  12.123  63.612  1.00  0.00    -0.495 A  
HETATM   10  O   UNL     1      -9.458   9.993  63.144  1.00  0.00    -0.299 OA 
HETATM   11  C   UNL     1      -9.978  10.889  64.030  1.00  0.00    -0.344 A  
ENDBRANCH   3   4
ENDBRANCH   2   3
BRANCH   2  12
HETATM   12  N   UNL     1     -10.794  13.362  69.247  1.00  0.00    -0.436 NA 
HETATM   13  H   UNL     1     -10.539  13.952  70.040  1.00  0.00     0.000 HD 
BRANCH  12  14
HETATM   14  C   UNL     1     -12.095  12.727  69.479  1.00  0.00    -0.205 C  
BRANCH  14  15
HETATM   15  C   UNL     1     -12.261  12.260  70.949  1.00  0.00    -0.197 C  
HETATM   16  H   UNL     1     -13.624  12.411  72.370  1.00  0.00     0.000 HD 
HETATM   17  O   UNL     1     -13.523  12.697  71.470  1.00  0.00    -0.220 OA 
BRANCH  15  18
HETATM   18  C   UNL     1     -12.163  10.751  71.069  1.00  0.00    -0.485 A  
HETATM   19  O   UNL     1     -14.186   7.874  72.158  1.00  0.00    -0.532 OA 
HETATM   20  C   UNL     1     -13.146   8.621  71.689  1.00  0.00    -0.346 A  
HETATM   21  C   UNL     1     -13.254  10.004  71.540  1.00  0.00    -0.497 A  
HETATM   22  C   UNL     1     -11.972   7.953  71.367  1.00  0.00    -0.331 A  
HETATM   23  H   UNL     1     -14.113   6.932  72.259  1.00  0.00     0.000 HD 
HETATM   24  C   UNL     1     -10.891   8.687  70.894  1.00  0.00    -0.239 A  
HETATM   25  O   UNL     1      -9.710   8.090  70.566  1.00  0.00    -0.177 OA 
HETATM   26  C   UNL     1     -10.978  10.067  70.742  1.00  0.00    -0.375 A  
HETATM   27  H   UNL     1      -8.971   8.592  70.244  1.00  0.00     0.000 HD 
ENDBRANCH  15  18
ENDBRANCH  14  15
ENDBRANCH  12  14
ENDBRANCH   2  12
TORSDOF 6
ENDMDL
MODEL      172
REMARK 921   NORMALIZED FREE ENERGY PREDICTED BY IDOCK:   -5.33 KCAL/MOL
REMARK 922        TOTAL FREE ENERGY PREDICTED BY IDOCK:   -7.81 KCAL/MOL
REMARK 923 INTER-LIGAND FREE ENERGY PREDICTED BY IDOCK:   -7.22 KCAL/MOL
REMARK 924 INTRA-LIGAND FREE ENERGY PREDICTED BY IDOCK:   -0.59 KCAL/MOL
REMARK 927      BINDING AFFINITY PREDICTED BY RF-SCORE:    0.00 PKD
ROOT
HETATM    1  C   UNL     1     -11.185  16.479  68.482  1.00  0.00    -0.296 C  
HETATM    2  C   UNL     1     -10.904  14.989  68.246  1.00  0.00    -0.259 C  
ENDROOT
BRANCH   2   3
HETATM    3  C   UNL     1     -11.882  14.164  69.125  1.00  0.00    -0.380 C  
BRANCH   3   4
HETATM    4  C   UNL     1     -12.271  14.817  70.432  1.00  0.00    -0.395 A  
HETATM    5  C   UNL     1     -13.998  15.611  71.945  1.00  0.00    -0.487 A  
HETATM    6  H   UNL     1     -14.352  16.639  74.239  1.00  0.00     0.000 HD 
HETATM    7  C   UNL     1     -11.297  15.206  71.363  1.00  0.00    -0.380 A  
HETATM    8  C   UNL     1     -13.624  15.032  70.732  1.00  0.00    -0.266 A  
HETATM    9  C   UNL     1     -11.671  15.787  72.578  1.00  0.00    -0.566 A  
HETATM   10  O   UNL     1     -13.431  16.511  74.046  1.00  0.00    -0.446 OA 
HETATM   11  C   UNL     1     -13.021  15.975  72.861  1.00  0.00    -0.463 A  
ENDBRANCH   3   4
ENDBRANCH   2   3
BRANCH   2  12
HETATM   12  N   UNL     1     -11.028  14.624  66.826  1.00  0.00    -0.316 NA 
HETATM   13  H   UNL     1     -10.121  14.354  66.446  1.00  0.00     0.000 HD 
BRANCH  12  14
HETATM   14  C   UNL     1     -12.027  13.584  66.555  1.00  0.00    -0.413 C  
BRANCH  14  15
HETATM   15  C   UNL     1     -11.431  12.402  65.747  1.00  0.00    -0.370 C  
HETATM   16  H   UNL     1     -10.213  12.168  64.210  1.00  0.00     0.000 HD 
HETATM   17  O   UNL     1     -10.578  12.892  64.705  1.00  0.00    -0.308 OA 
BRANCH  15  18
HETATM   18  C   UNL     1     -10.646  11.458  66.638  1.00  0.00    -0.302 A  
HETATM   19  O   UNL     1      -7.204  10.233  67.103  1.00  0.00    -0.088 OA 
HETATM   20  C   UNL     1      -8.548  10.408  67.259  1.00  0.00    -0.126 A  
HETATM   21  C   UNL     1      -9.261  11.309  66.466  1.00  0.00    -0.200 A  
HETATM   22  C   UNL     1      -9.184   9.653  68.236  1.00  0.00    -0.131 A  
HETATM   23  H   UNL     1      -6.719   9.621  67.643  1.00  0.00     0.000 HD 
HETATM   24  C   UNL     1     -10.553   9.801  68.414  1.00  0.00    -0.226 A  
HETATM   25  O   UNL     1     -11.234   9.085  69.352  1.00  0.00    -0.439 OA 
HETATM   26  C   UNL     1     -11.281  10.691  67.631  1.00  0.00    -0.361 A  
HETATM   27  H   UNL     1     -12.171   9.186  69.474  1.00  0.00     0.000 HD 
ENDBRANCH  15  18
ENDBRANCH  14  15
ENDBRANCH  12  14
ENDBRANCH   2  12
TORSDOF 6
ENDMDL
MODEL      173
REMARK 921   NORMALIZED FREE ENERGY PREDICTED BY IDOCK:   -5.32 KCAL/MOL
REMARK 922        TOTAL FREE ENERGY PREDICTED BY IDOCK:   -7.80 KCAL/MOL
REMARK 923 INTER-LIGAND FREE ENERGY PREDICTED BY IDOCK:   -7.01 KCAL/MOL
REMARK 924 INTRA-LIGAND FREE ENERGY PREDICTED BY IDOCK:   -0.78 KCAL/MOL
REMARK 927      BINDING AFFINITY PREDICTED BY RF-SCORE:    0.00 PKD
ROOT
HETATM    1  C   UNL     1      -8.612  14.875  68.186  1.00  0.00    -0.159 C  
HETATM    2  C   UNL     1      -9.244  15.669  67.035  1.00  0.00    -0.222 C  
ENDROOT
BRANCH   2   3
HETATM    3  C   UNL     1      -8.158  16.601  66.433  1.00  0.00    -0.359 C  
BRANCH   3   4
HETATM    4  C   UNL     1      -7.585  17.617  67.394  1.00  0.00    -0.213 A  
HETATM    5  C   UNL     1      -5.655  18.614  68.483  1.00  0.00    -0.192 A  
HETATM    6  H   UNL     1      -4.973  20.472  70.074  1.00  0.00     0.000 HD 
HETATM    7  C   UNL     1      -8.414  18.526  68.066  1.00  0.00    -0.302 A  
HETATM    8  C   UNL     1      -6.201  17.667  67.618  1.00  0.00    -0.172 A  
HETATM    9  C   UNL     1      -7.869  19.475  68.935  1.00  0.00    -0.349 A  
HETATM   10  O   UNL     1      -5.914  20.444  69.943  1.00  0.00    -0.345 OA 
HETATM   11  C   UNL     1      -6.491  19.516  69.127  1.00  0.00    -0.321 A  
ENDBRANCH   3   4
ENDBRANCH   2   3
BRANCH   2  12
HETATM   12  N   UNL     1      -9.815  14.786  66.007  1.00  0.00    -0.307 NA 
HETATM   13  H   UNL     1      -9.253  14.817  65.156  1.00  0.00     0.000 HD 
BRANCH  12  14
HETATM   14  C   UNL     1     -10.006  13.398  66.442  1.00  0.00    -0.293 C  
BRANCH  14  15
HETATM   15  C   UNL     1     -11.505  13.052  66.642  1.00  0.00    -0.336 C  
HETATM   16  H   UNL     1     -12.790  11.728  65.939  1.00  0.00     0.000 HD 
HETATM   17  O   UNL     1     -11.873  11.940  65.816  1.00  0.00    -0.435 OA 
BRANCH  15  18
HETATM   18  C   UNL     1     -11.813  12.724  68.092  1.00  0.00    -0.372 A  
HETATM   19  O   UNL     1     -12.382  14.429  71.305  1.00  0.00    -0.324 OA 
HETATM   20  C   UNL     1     -12.226  13.448  70.371  1.00  0.00    -0.345 A  
HETATM   21  C   UNL     1     -11.984  13.754  69.030  1.00  0.00    -0.399 A  
HETATM   22  C   UNL     1     -12.313  12.131  70.802  1.00  0.00    -0.391 A  
HETATM   23  H   UNL     1     -12.546  14.221  72.217  1.00  0.00     0.000 HD 
HETATM   24  C   UNL     1     -12.151  11.109  69.876  1.00  0.00    -0.344 A  
HETATM   25  O   UNL     1     -12.220   9.797  70.239  1.00  0.00    -0.468 OA 
HETATM   26  C   UNL     1     -11.906  11.393  68.536  1.00  0.00    -0.364 A  
HETATM   27  H   UNL     1     -12.108   9.098  69.606  1.00  0.00     0.000 HD 
ENDBRANCH  15  18
ENDBRANCH  14  15
ENDBRANCH  12  14
ENDBRANCH   2  12
TORSDOF 6
ENDMDL
MODEL      174
REMARK 921   NORMALIZED FREE ENERGY PREDICTED BY IDOCK:   -5.31 KCAL/MOL
REMARK 922        TOTAL FREE ENERGY PREDICTED BY IDOCK:   -7.78 KCAL/MOL
REMARK 923 INTER-LIGAND FREE ENERGY PREDICTED BY IDOCK:   -6.82 KCAL/MOL
REMARK 924 INTRA-LIGAND FREE ENERGY PREDICTED BY IDOCK:   -0.96 KCAL/MOL
REMARK 927      BINDING AFFINITY PREDICTED BY RF-SCORE:    0.00 PKD
ROOT
HETATM    1  C   UNL     1      -8.072   6.942  67.342  1.00  0.00    -0.115 C  
HETATM    2  C   UNL     1      -9.021   7.907  68.065  1.00  0.00    -0.127 C  
ENDROOT
BRANCH   2   3
HETATM    3  C   UNL     1     -10.258   8.144  67.158  1.00  0.00    -0.366 C  
BRANCH   3   4
HETATM    4  C   UNL     1     -10.478   9.580  66.740  1.00  0.00    -0.263 A  
HETATM    5  C   UNL     1     -11.329  11.800  67.240  1.00  0.00    -0.379 A  
HETATM    6  H   UNL     1     -11.475  14.161  66.315  1.00  0.00     0.000 HD 
HETATM    7  C   UNL     1     -10.019  10.051  65.502  1.00  0.00    -0.367 A  
HETATM    8  C   UNL     1     -11.141  10.466  67.602  1.00  0.00    -0.361 A  
HETATM    9  C   UNL     1     -10.209  11.388  65.138  1.00  0.00    -0.328 A  
HETATM   10  O   UNL     1     -11.035  13.570  65.715  1.00  0.00    -0.278 OA 
HETATM   11  C   UNL     1     -10.855  12.253  66.017  1.00  0.00    -0.275 A  
ENDBRANCH   3   4
ENDBRANCH   2   3
BRANCH   2  12
HETATM   12  N   UNL     1      -9.420   7.398  69.386  1.00  0.00    -0.155 NA 
HETATM   13  H   UNL     1      -9.411   6.379  69.393  1.00  0.00     0.000 HD 
BRANCH  12  14
HETATM   14  C   UNL     1      -8.625   7.925  70.501  1.00  0.00    -0.131 C  
BRANCH  14  15
HETATM   15  C   UNL     1      -9.391   7.850  71.848  1.00  0.00    -0.154 C  
HETATM   16  H   UNL     1      -9.173   8.561  73.678  1.00  0.00     0.000 HD 
HETATM   17  O   UNL     1      -8.704   8.607  72.853  1.00  0.00    -0.384 OA 
BRANCH  15  18
HETATM   18  C   UNL     1     -10.810   8.369  71.712  1.00  0.00    -0.353 A  
HETATM   19  O   UNL     1     -14.284   7.194  72.046  1.00  0.00    -0.574 OA 
HETATM   20  C   UNL     1     -13.206   7.996  71.810  1.00  0.00    -0.341 A  
HETATM   21  C   UNL     1     -11.902   7.528  71.977  1.00  0.00    -0.331 A  
HETATM   22  C   UNL     1     -13.454   9.297  71.393  1.00  0.00    -0.384 A  
HETATM   23  H   UNL     1     -15.171   7.513  71.933  1.00  0.00     0.000 HD 
HETATM   24  C   UNL     1     -12.377  10.136  71.135  1.00  0.00    -0.385 A  
HETATM   25  O   UNL     1     -12.556  11.421  70.718  1.00  0.00    -0.343 OA 
HETATM   26  C   UNL     1     -11.070   9.686  71.292  1.00  0.00    -0.426 A  
HETATM   27  H   UNL     1     -11.819  11.995  70.542  1.00  0.00     0.000 HD 
ENDBRANCH  15  18
ENDBRANCH  14  15
ENDBRANCH  12  14
ENDBRANCH   2  12
TORSDOF 6
ENDMDL
MODEL      175
REMARK 921   NORMALIZED FREE ENERGY PREDICTED BY IDOCK:   -5.31 KCAL/MOL
REMARK 922        TOTAL FREE ENERGY PREDICTED BY IDOCK:   -7.78 KCAL/MOL
REMARK 923 INTER-LIGAND FREE ENERGY PREDICTED BY IDOCK:   -7.61 KCAL/MOL
REMARK 924 INTRA-LIGAND FREE ENERGY PREDICTED BY IDOCK:   -0.17 KCAL/MOL
REMARK 927      BINDING AFFINITY PREDICTED BY RF-SCORE:    0.00 PKD
ROOT
HETATM    1  C   UNL     1     -10.978  19.007  67.591  1.00  0.00    -0.330 C  
HETATM    2  C   UNL     1     -10.648  17.522  67.385  1.00  0.00    -0.311 C  
ENDROOT
BRANCH   2   3
HETATM    3  C   UNL     1      -9.260  17.424  66.695  1.00  0.00    -0.278 C  
BRANCH   3   4
HETATM    4  C   UNL     1      -8.242  18.438  67.163  1.00  0.00    -0.248 A  
HETATM    5  C   UNL     1      -7.197  20.619  66.927  1.00  0.00    -0.350 A  
HETATM    6  H   UNL     1      -5.473  22.155  67.985  1.00  0.00     0.000 HD 
HETATM    7  C   UNL     1      -7.420  18.181  68.269  1.00  0.00    -0.280 A  
HETATM    8  C   UNL     1      -8.115  19.664  66.492  1.00  0.00    -0.338 A  
HETATM    9  C   UNL     1      -6.498  19.137  68.705  1.00  0.00    -0.284 A  
HETATM   10  O   UNL     1      -5.538  21.325  68.443  1.00  0.00    -0.322 OA 
HETATM   11  C   UNL     1      -6.403  20.353  68.034  1.00  0.00    -0.286 A  
ENDBRANCH   3   4
ENDBRANCH   2   3
BRANCH   2  12
HETATM   12  N   UNL     1     -10.666  16.775  68.652  1.00  0.00    -0.342 NA 
HETATM   13  H   UNL     1     -10.780  17.412  69.440  1.00  0.00     0.000 HD 
BRANCH  12  14
HETATM   14  C   UNL     1     -11.669  15.706  68.708  1.00  0.00    -0.370 C  
BRANCH  14  15
HETATM   15  C   UNL     1     -11.852  15.155  70.147  1.00  0.00    -0.313 C  
HETATM   16  H   UNL     1     -13.093  15.437  71.657  1.00  0.00     0.000 HD 
HETATM   17  O   UNL     1     -12.981  15.775  70.777  1.00  0.00    -0.479 OA 
BRANCH  15  18
HETATM   18  C   UNL     1     -12.041  13.650  70.147  1.00  0.00    -0.431 A  
HETATM   19  O   UNL     1     -11.402  10.730  67.996  1.00  0.00    -0.302 OA 
HETATM   20  C   UNL     1     -11.810  11.500  69.045  1.00  0.00    -0.343 A  
HETATM   21  C   UNL     1     -11.597  12.879  69.061  1.00  0.00    -0.372 A  
HETATM   22  C   UNL     1     -12.450  10.860  70.100  1.00  0.00    -0.356 A  
HETATM   23  H   UNL     1     -11.547   9.791  67.986  1.00  0.00     0.000 HD 
HETATM   24  C   UNL     1     -12.885  11.617  71.179  1.00  0.00    -0.294 A  
HETATM   25  O   UNL     1     -13.523  11.048  72.240  1.00  0.00    -0.603 OA 
HETATM   26  C   UNL     1     -12.685  12.994  71.211  1.00  0.00    -0.385 A  
HETATM   27  H   UNL     1     -13.822  11.567  72.979  1.00  0.00     0.000 HD 
ENDBRANCH  15  18
ENDBRANCH  14  15
ENDBRANCH  12  14
ENDBRANCH   2  12
TORSDOF 6
ENDMDL
MODEL      176
REMARK 921   NORMALIZED FREE ENERGY PREDICTED BY IDOCK:   -5.29 KCAL/MOL
REMARK 922        TOTAL FREE ENERGY PREDICTED BY IDOCK:   -7.76 KCAL/MOL
REMARK 923 INTER-LIGAND FREE ENERGY PREDICTED BY IDOCK:   -6.88 KCAL/MOL
REMARK 924 INTRA-LIGAND FREE ENERGY PREDICTED BY IDOCK:   -0.88 KCAL/MOL
REMARK 927      BINDING AFFINITY PREDICTED BY RF-SCORE:    0.00 PKD
ROOT
HETATM    1  C   UNL     1     -12.502  12.110  63.476  1.00  0.00    -0.666 C  
HETATM    2  C   UNL     1     -11.364  12.283  64.491  1.00  0.00    -0.329 C  
ENDROOT
BRANCH   2   3
HETATM    3  C   UNL     1     -11.992  12.491  65.895  1.00  0.00    -0.472 C  
BRANCH   3   4
HETATM    4  C   UNL     1     -11.630  13.794  66.570  1.00  0.00    -0.386 A  
HETATM    5  C   UNL     1     -10.525  15.957  66.492  1.00  0.00    -0.305 A  
HETATM    6  H   UNL     1     -10.152  18.081  67.833  1.00  0.00     0.000 HD 
HETATM    7  C   UNL     1     -12.074  14.084  67.868  1.00  0.00    -0.314 A  
HETATM    8  C   UNL     1     -10.846  14.740  65.892  1.00  0.00    -0.331 A  
HETATM    9  C   UNL     1     -11.751  15.303  68.471  1.00  0.00    -0.352 A  
HETATM   10  O   UNL     1     -10.673  17.446  68.311  1.00  0.00    -0.371 OA 
HETATM   11  C   UNL     1     -10.987  16.233  67.772  1.00  0.00    -0.281 A  
ENDBRANCH   3   4
ENDBRANCH   2   3
BRANCH   2  12
HETATM   12  N   UNL     1     -10.443  11.135  64.485  1.00  0.00    -0.338 NA 
HETATM   13  H   UNL     1      -9.731  11.254  63.765  1.00  0.00     0.000 HD 
BRANCH  12  14
HETATM   14  C   UNL     1      -9.818  10.856  65.782  1.00  0.00    -0.237 C  
BRANCH  14  15
HETATM   15  C   UNL     1     -10.109   9.412  66.269  1.00  0.00    -0.258 C  
HETATM   16  H   UNL     1      -9.289   7.626  66.072  1.00  0.00     0.000 HD 
HETATM   17  O   UNL     1      -9.111   8.510  65.774  1.00  0.00    -0.193 OA 
BRANCH  15  18
HETATM   18  C   UNL     1     -10.151   9.332  67.783  1.00  0.00    -0.253 A  
HETATM   19  O   UNL     1     -11.566  11.142  70.661  1.00  0.00    -0.412 OA 
HETATM   20  C   UNL     1     -10.881  10.226  69.918  1.00  0.00    -0.302 A  
HETATM   21  C   UNL     1     -10.878  10.278  68.523  1.00  0.00    -0.281 A  
HETATM   22  C   UNL     1     -10.180   9.240  70.601  1.00  0.00    -0.335 A  
HETATM   23  H   UNL     1     -11.568  11.106  71.610  1.00  0.00     0.000 HD 
HETATM   24  C   UNL     1      -9.465   8.299  69.873  1.00  0.00    -0.167 A  
HETATM   25  O   UNL     1      -8.754   7.311  70.487  1.00  0.00    -0.145 OA 
HETATM   26  C   UNL     1      -9.447   8.336  68.483  1.00  0.00    -0.149 A  
HETATM   27  H   UNL     1      -8.264   6.667  69.988  1.00  0.00     0.000 HD 
ENDBRANCH  15  18
ENDBRANCH  14  15
ENDBRANCH  12  14
ENDBRANCH   2  12
TORSDOF 6
ENDMDL
MODEL      177
REMARK 921   NORMALIZED FREE ENERGY PREDICTED BY IDOCK:   -5.28 KCAL/MOL
REMARK 922        TOTAL FREE ENERGY PREDICTED BY IDOCK:   -7.74 KCAL/MOL
REMARK 923 INTER-LIGAND FREE ENERGY PREDICTED BY IDOCK:   -7.15 KCAL/MOL
REMARK 924 INTRA-LIGAND FREE ENERGY PREDICTED BY IDOCK:   -0.59 KCAL/MOL
REMARK 927      BINDING AFFINITY PREDICTED BY RF-SCORE:    0.00 PKD
ROOT
HETATM    1  C   UNL     1      -8.129  13.336  68.452  1.00  0.00    -0.134 C  
HETATM    2  C   UNL     1      -8.844  14.101  67.329  1.00  0.00    -0.218 C  
ENDROOT
BRANCH   2   3
HETATM    3  C   UNL     1      -9.850  13.135  66.647  1.00  0.00    -0.261 C  
BRANCH   3   4
HETATM    4  C   UNL     1     -10.082  11.833  67.379  1.00  0.00    -0.212 A  
HETATM    5  C   UNL     1      -9.384   9.562  67.886  1.00  0.00    -0.145 A  
HETATM    6  H   UNL     1      -9.971   7.540  69.306  1.00  0.00     0.000 HD 
HETATM    7  C   UNL     1     -11.170  11.677  68.250  1.00  0.00    -0.320 A  
HETATM    8  C   UNL     1      -9.196  10.761  67.199  1.00  0.00    -0.160 A  
HETATM    9  C   UNL     1     -11.359  10.475  68.938  1.00  0.00    -0.313 A  
HETATM   10  O   UNL     1     -10.587   8.253  69.429  1.00  0.00    -0.224 OA 
HETATM   11  C   UNL     1     -10.457   9.431  68.756  1.00  0.00    -0.212 A  
ENDBRANCH   3   4
ENDBRANCH   2   3
BRANCH   2  12
HETATM   12  N   UNL     1      -9.521  15.306  67.831  1.00  0.00    -0.197 NA 
HETATM   13  H   UNL     1     -10.309  15.548  67.231  1.00  0.00     0.000 HD 
BRANCH  12  14
HETATM   14  C   UNL     1      -9.952  15.219  69.230  1.00  0.00    -0.251 C  
BRANCH  14  15
HETATM   15  C   UNL     1     -11.426  15.664  69.415  1.00  0.00    -0.348 C  
HETATM   16  H   UNL     1     -13.158  15.336  68.524  1.00  0.00     0.000 HD 
HETATM   17  O   UNL     1     -12.255  15.064  68.411  1.00  0.00    -0.166 OA 
BRANCH  15  18
HETATM   18  C   UNL     1     -11.953  15.293  70.788  1.00  0.00    -0.384 A  
HETATM   19  O   UNL     1     -13.749  12.554  72.472  1.00  0.00    -0.600 OA 
HETATM   20  C   UNL     1     -13.111  13.739  72.249  1.00  0.00    -0.405 A  
HETATM   21  C   UNL     1     -12.591  14.060  70.994  1.00  0.00    -0.437 A  
HETATM   22  C   UNL     1     -13.001  14.620  73.318  1.00  0.00    -0.569 A  
HETATM   23  H   UNL     1     -14.103  12.337  73.326  1.00  0.00     0.000 HD 
HETATM   24  C   UNL     1     -12.366  15.838  73.121  1.00  0.00    -0.483 A  
HETATM   25  O   UNL     1     -12.231  16.746  74.129  1.00  0.00    -0.508 OA 
HETATM   26  C   UNL     1     -11.843  16.177  71.876  1.00  0.00    -0.605 A  
HETATM   27  H   UNL     1     -11.797  17.580  73.994  1.00  0.00     0.000 HD 
ENDBRANCH  15  18
ENDBRANCH  14  15
ENDBRANCH  12  14
ENDBRANCH   2  12
TORSDOF 6
ENDMDL
MODEL      178
REMARK 921   NORMALIZED FREE ENERGY PREDICTED BY IDOCK:   -5.28 KCAL/MOL
REMARK 922        TOTAL FREE ENERGY PREDICTED BY IDOCK:   -7.74 KCAL/MOL
REMARK 923 INTER-LIGAND FREE ENERGY PREDICTED BY IDOCK:   -7.31 KCAL/MOL
REMARK 924 INTRA-LIGAND FREE ENERGY PREDICTED BY IDOCK:   -0.43 KCAL/MOL
REMARK 927      BINDING AFFINITY PREDICTED BY RF-SCORE:    0.00 PKD
ROOT
HETATM    1  C   UNL     1      -8.927  15.252  68.045  1.00  0.00    -0.171 C  
HETATM    2  C   UNL     1      -9.514  15.323  66.629  1.00  0.00    -0.259 C  
ENDROOT
BRANCH   2   3
HETATM    3  C   UNL     1     -11.033  15.015  66.716  1.00  0.00    -0.323 C  
BRANCH   3   4
HETATM    4  C   UNL     1     -11.428  14.058  67.817  1.00  0.00    -0.351 A  
HETATM    5  C   UNL     1     -11.667  11.780  68.628  1.00  0.00    -0.389 A  
HETATM    6  H   UNL     1     -12.312  10.425  70.676  1.00  0.00     0.000 HD 
HETATM    7  C   UNL     1     -11.887  14.531  69.055  1.00  0.00    -0.354 A  
HETATM    8  C   UNL     1     -11.329  12.674  67.612  1.00  0.00    -0.362 A  
HETATM    9  C   UNL     1     -12.227  13.635  70.073  1.00  0.00    -0.395 A  
HETATM   10  O   UNL     1     -12.397  11.359  70.827  1.00  0.00    -0.365 OA 
HETATM   11  C   UNL     1     -12.104  12.267  69.852  1.00  0.00    -0.249 A  
ENDBRANCH   3   4
ENDBRANCH   2   3
BRANCH   2  12
HETATM   12  N   UNL     1      -9.272  16.630  65.998  1.00  0.00    -0.465 NA 
HETATM   13  H   UNL     1      -8.868  16.509  65.070  1.00  0.00     0.000 HD 
BRANCH  12  14
HETATM   14  C   UNL     1     -10.454  17.497  65.933  1.00  0.00    -0.249 C  
BRANCH  14  15
HETATM   15  C   UNL     1     -10.458  18.562  67.060  1.00  0.00    -0.402 C  
HETATM   16  H   UNL     1     -10.878  18.625  68.989  1.00  0.00     0.000 HD 
HETATM   17  O   UNL     1     -10.876  17.973  68.299  1.00  0.00    -0.265 OA 
BRANCH  15  18
HETATM   18  C   UNL     1      -9.088  19.189  67.240  1.00  0.00    -0.334 A  
HETATM   19  O   UNL     1      -6.537  20.992  65.290  1.00  0.00    -0.472 OA 
HETATM   20  C   UNL     1      -7.179  20.373  66.322  1.00  0.00    -0.224 A  
HETATM   21  C   UNL     1      -8.457  19.834  66.165  1.00  0.00    -0.367 A  
HETATM   22  C   UNL     1      -6.511  20.294  67.538  1.00  0.00    -0.270 A  
HETATM   23  H   UNL     1      -5.668  21.359  65.398  1.00  0.00     0.000 HD 
HETATM   24  C   UNL     1      -7.134  19.662  68.606  1.00  0.00    -0.334 A  
HETATM   25  O   UNL     1      -6.528  19.549  69.822  1.00  0.00    -0.309 OA 
HETATM   26  C   UNL     1      -8.406  19.116  68.468  1.00  0.00    -0.399 A  
HETATM   27  H   UNL     1      -6.954  19.116  70.552  1.00  0.00     0.000 HD 
ENDBRANCH  15  18
ENDBRANCH  14  15
ENDBRANCH  12  14
ENDBRANCH   2  12
TORSDOF 6
ENDMDL
MODEL      179
REMARK 921   NORMALIZED FREE ENERGY PREDICTED BY IDOCK:   -5.27 KCAL/MOL
REMARK 922        TOTAL FREE ENERGY PREDICTED BY IDOCK:   -7.73 KCAL/MOL
REMARK 923 INTER-LIGAND FREE ENERGY PREDICTED BY IDOCK:   -7.45 KCAL/MOL
REMARK 924 INTRA-LIGAND FREE ENERGY PREDICTED BY IDOCK:   -0.28 KCAL/MOL
REMARK 927      BINDING AFFINITY PREDICTED BY RF-SCORE:    0.00 PKD
ROOT
HETATM    1  C   UNL     1      -9.613  15.831  69.395  1.00  0.00    -0.284 C  
HETATM    2  C   UNL     1     -10.065  15.386  67.997  1.00  0.00    -0.226 C  
ENDROOT
BRANCH   2   3
HETATM    3  C   UNL     1     -10.921  14.100  68.149  1.00  0.00    -0.264 C  
BRANCH   3   4
HETATM    4  C   UNL     1     -11.360  13.468  66.848  1.00  0.00    -0.350 A  
HETATM    5  C   UNL     1     -12.759  13.517  64.862  1.00  0.00    -0.342 A  
HETATM    6  H   UNL     1     -13.227  12.284  62.692  1.00  0.00     0.000 HD 
HETATM    7  C   UNL     1     -10.774  12.280  66.387  1.00  0.00    -0.284 A  
HETATM    8  C   UNL     1     -12.361  14.076  66.076  1.00  0.00    -0.504 A  
HETATM    9  C   UNL     1     -11.174  11.718  65.171  1.00  0.00    -0.311 A  
HETATM   10  O   UNL     1     -12.556  11.852  63.209  1.00  0.00    -0.586 OA 
HETATM   11  C   UNL     1     -12.157  12.349  64.414  1.00  0.00    -0.426 A  
ENDBRANCH   3   4
ENDBRANCH   2   3
BRANCH   2  12
HETATM   12  N   UNL     1     -10.812  16.443  67.299  1.00  0.00    -0.251 NA 
HETATM   13  H   UNL     1     -11.816  16.300  67.407  1.00  0.00     0.000 HD 
BRANCH  12  14
HETATM   14  C   UNL     1     -10.444  17.806  67.697  1.00  0.00    -0.388 C  
BRANCH  14  15
HETATM   15  C   UNL     1      -9.797  18.598  66.530  1.00  0.00    -0.364 C  
HETATM   16  H   UNL     1     -10.329  20.042  65.293  1.00  0.00     0.000 HD 
HETATM   17  O   UNL     1     -10.725  19.557  66.007  1.00  0.00    -0.467 OA 
BRANCH  15  18
HETATM   18  C   UNL     1      -8.533  19.311  66.974  1.00  0.00    -0.305 A  
HETATM   19  O   UNL     1      -5.681  21.144  65.538  1.00  0.00    -0.235 OA 
HETATM   20  C   UNL     1      -6.516  20.548  66.436  1.00  0.00    -0.237 A  
HETATM   21  C   UNL     1      -7.700  19.929  66.030  1.00  0.00    -0.337 A  
HETATM   22  C   UNL     1      -6.145  20.577  67.774  1.00  0.00    -0.300 A  
HETATM   23  H   UNL     1      -4.876  21.565  65.815  1.00  0.00     0.000 HD 
HETATM   24  C   UNL     1      -6.970  19.972  68.713  1.00  0.00    -0.274 A  
HETATM   25  O   UNL     1      -6.657  19.962  70.040  1.00  0.00    -0.351 OA 
HETATM   26  C   UNL     1      -8.151  19.347  68.327  1.00  0.00    -0.371 A  
HETATM   27  H   UNL     1      -7.221  19.548  70.682  1.00  0.00     0.000 HD 
ENDBRANCH  15  18
ENDBRANCH  14  15
ENDBRANCH  12  14
ENDBRANCH   2  12
TORSDOF 6
ENDMDL
MODEL      180
REMARK 921   NORMALIZED FREE ENERGY PREDICTED BY IDOCK:   -5.27 KCAL/MOL
REMARK 922        TOTAL FREE ENERGY PREDICTED BY IDOCK:   -7.72 KCAL/MOL
REMARK 923 INTER-LIGAND FREE ENERGY PREDICTED BY IDOCK:   -7.15 KCAL/MOL
REMARK 924 INTRA-LIGAND FREE ENERGY PREDICTED BY IDOCK:   -0.58 KCAL/MOL
REMARK 927      BINDING AFFINITY PREDICTED BY RF-SCORE:    0.00 PKD
ROOT
HETATM    1  C   UNL     1      -9.164  16.162  68.869  1.00  0.00    -0.234 C  
HETATM    2  C   UNL     1      -9.777  16.020  67.469  1.00  0.00    -0.228 C  
ENDROOT
BRANCH   2   3
HETATM    3  C   UNL     1      -8.629  16.094  66.426  1.00  0.00    -0.365 C  
BRANCH   3   4
HETATM    4  C   UNL     1      -7.973  17.449  66.293  1.00  0.00    -0.314 A  
HETATM    5  C   UNL     1      -8.170  19.867  66.157  1.00  0.00    -0.346 A  
HETATM    6  H   UNL     1      -6.797  21.998  66.018  1.00  0.00     0.000 HD 
HETATM    7  C   UNL     1      -6.579  17.574  66.215  1.00  0.00    -0.295 A  
HETATM    8  C   UNL     1      -8.762  18.608  66.255  1.00  0.00    -0.229 A  
HETATM    9  C   UNL     1      -5.985  18.835  66.115  1.00  0.00    -0.198 A  
HETATM   10  O   UNL     1      -6.248  21.223  66.030  1.00  0.00    -0.259 OA 
HETATM   11  C   UNL     1      -6.787  19.972  66.097  1.00  0.00    -0.239 A  
ENDBRANCH   3   4
ENDBRANCH   2   3
BRANCH   2  12
HETATM   12  N   UNL     1     -10.544  14.773  67.329  1.00  0.00    -0.269 NA 
HETATM   13  H   UNL     1     -10.407  14.373  66.400  1.00  0.00     0.000 HD 
BRANCH  12  14
HETATM   14  C   UNL     1     -10.262  13.772  68.363  1.00  0.00    -0.248 C  
BRANCH  14  15
HETATM   15  C   UNL     1     -11.381  12.702  68.457  1.00  0.00    -0.296 C  
HETATM   16  H   UNL     1     -11.509  10.732  68.389  1.00  0.00     0.000 HD 
HETATM   17  O   UNL     1     -10.824  11.387  68.331  1.00  0.00    -0.183 OA 
BRANCH  15  18
HETATM   18  C   UNL     1     -12.140  12.802  69.767  1.00  0.00    -0.305 A  
HETATM   19  O   UNL     1     -13.551  15.353  72.017  1.00  0.00    -0.410 OA 
HETATM   20  C   UNL     1     -13.182  14.147  71.498  1.00  0.00    -0.353 A  
HETATM   21  C   UNL     1     -12.522  14.055  70.271  1.00  0.00    -0.403 A  
HETATM   22  C   UNL     1     -13.486  13.010  72.236  1.00  0.00    -0.645 A  
HETATM   23  H   UNL     1     -14.001  15.415  72.851  1.00  0.00     0.000 HD 
HETATM   24  C   UNL     1     -13.116  11.768  71.738  1.00  0.00    -0.375 A  
HETATM   25  O   UNL     1     -13.381  10.617  72.419  1.00  0.00    -0.612 OA 
HETATM   26  C   UNL     1     -12.453  11.656  70.520  1.00  0.00    -0.344 A  
HETATM   27  H   UNL     1     -13.127   9.767  72.078  1.00  0.00     0.000 HD 
ENDBRANCH  15  18
ENDBRANCH  14  15
ENDBRANCH  12  14
ENDBRANCH   2  12
TORSDOF 6
ENDMDL
MODEL      181
REMARK 921   NORMALIZED FREE ENERGY PREDICTED BY IDOCK:   -5.27 KCAL/MOL
REMARK 922        TOTAL FREE ENERGY PREDICTED BY IDOCK:   -7.72 KCAL/MOL
REMARK 923 INTER-LIGAND FREE ENERGY PREDICTED BY IDOCK:   -6.67 KCAL/MOL
REMARK 924 INTRA-LIGAND FREE ENERGY PREDICTED BY IDOCK:   -1.05 KCAL/MOL
REMARK 927      BINDING AFFINITY PREDICTED BY RF-SCORE:    0.00 PKD
ROOT
HETATM    1  C   UNL     1      -6.714  15.081  69.215  1.00  0.00    -0.141 C  
HETATM    2  C   UNL     1      -6.501  14.600  67.773  1.00  0.00    -0.164 C  
ENDROOT
BRANCH   2   3
HETATM    3  C   UNL     1      -6.042  13.118  67.817  1.00  0.00    -0.154 C  
BRANCH   3   4
HETATM    4  C   UNL     1      -7.138  12.104  67.580  1.00  0.00    -0.135 A  
HETATM    5  C   UNL     1      -8.156  10.414  66.162  1.00  0.00    -0.139 A  
HETATM    6  H   UNL     1     -10.051   8.726  66.078  1.00  0.00     0.000 HD 
HETATM    7  C   UNL     1      -8.130  11.872  68.543  1.00  0.00    -0.130 A  
HETATM    8  C   UNL     1      -7.166  11.370  66.384  1.00  0.00     0.001 A  
HETATM    9  C   UNL     1      -9.124  10.915  68.320  1.00  0.00    -0.158 A  
HETATM   10  O   UNL     1     -10.054   9.223  66.888  1.00  0.00    -0.216 OA 
HETATM   11  C   UNL     1      -9.121  10.187  67.134  1.00  0.00    -0.135 A  
ENDBRANCH   3   4
ENDBRANCH   2   3
BRANCH   2  12
HETATM   12  N   UNL     1      -7.715  14.757  66.957  1.00  0.00    -0.318 NA 
HETATM   13  H   UNL     1      -8.044  13.849  66.629  1.00  0.00     0.000 HD 
BRANCH  12  14
HETATM   14  C   UNL     1      -8.801  15.485  67.624  1.00  0.00    -0.179 C  
BRANCH  14  15
HETATM   15  C   UNL     1      -9.862  15.998  66.616  1.00  0.00    -0.260 C  
HETATM   16  H   UNL     1      -9.874  16.955  64.889  1.00  0.00     0.000 HD 
HETATM   17  O   UNL     1      -9.224  16.642  65.506  1.00  0.00    -0.438 OA 
BRANCH  15  18
HETATM   18  C   UNL     1     -10.738  14.868  66.106  1.00  0.00    -0.317 A  
HETATM   19  O   UNL     1     -12.062  11.613  67.205  1.00  0.00    -0.595 OA 
HETATM   20  C   UNL     1     -11.788  12.706  66.436  1.00  0.00    -0.402 A  
HETATM   21  C   UNL     1     -11.017  13.762  66.924  1.00  0.00    -0.296 A  
HETATM   22  C   UNL     1     -12.303  12.728  65.146  1.00  0.00    -0.555 A  
HETATM   23  H   UNL     1     -12.586  10.894  66.873  1.00  0.00     0.000 HD 
HETATM   24  C   UNL     1     -12.034  13.823  64.336  1.00  0.00    -0.445 A  
HETATM   25  O   UNL     1     -12.507  13.900  63.060  1.00  0.00    -1.099 OA 
HETATM   26  C   UNL     1     -11.265  14.884  64.802  1.00  0.00    -0.393 A  
HETATM   27  H   UNL     1     -12.323  14.649  62.505  1.00  0.00     0.000 HD 
ENDBRANCH  15  18
ENDBRANCH  14  15
ENDBRANCH  12  14
ENDBRANCH   2  12
TORSDOF 6
ENDMDL
MODEL      182
REMARK 921   NORMALIZED FREE ENERGY PREDICTED BY IDOCK:   -5.25 KCAL/MOL
REMARK 922        TOTAL FREE ENERGY PREDICTED BY IDOCK:   -7.71 KCAL/MOL
REMARK 923 INTER-LIGAND FREE ENERGY PREDICTED BY IDOCK:   -6.68 KCAL/MOL
REMARK 924 INTRA-LIGAND FREE ENERGY PREDICTED BY IDOCK:   -1.03 KCAL/MOL
REMARK 927      BINDING AFFINITY PREDICTED BY RF-SCORE:    0.00 PKD
ROOT
HETATM    1  C   UNL     1      -8.141  10.993  68.618  1.00  0.00    -0.149 C  
HETATM    2  C   UNL     1      -9.643  11.211  68.388  1.00  0.00    -0.192 C  
ENDROOT
BRANCH   2   3
HETATM    3  C   UNL     1     -10.050  10.457  67.093  1.00  0.00    -0.254 C  
BRANCH   3   4
HETATM    4  C   UNL     1     -10.710  11.314  66.037  1.00  0.00    -0.301 A  
HETATM    5  C   UNL     1     -11.074  11.838  63.693  1.00  0.00    -0.518 A  
HETATM    6  H   UNL     1     -12.385  13.370  62.148  1.00  0.00     0.000 HD 
HETATM    7  C   UNL     1     -11.588  12.348  66.389  1.00  0.00    -0.442 A  
HETATM    8  C   UNL     1     -10.454  11.072  64.679  1.00  0.00    -0.398 A  
HETATM    9  C   UNL     1     -12.209  13.118  65.401  1.00  0.00    -0.510 A  
HETATM   10  O   UNL     1     -12.559  13.554  63.064  1.00  0.00    -0.716 OA 
HETATM   11  C   UNL     1     -11.953  12.848  64.060  1.00  0.00    -0.451 A  
ENDBRANCH   3   4
ENDBRANCH   2   3
BRANCH   2  12
HETATM   12  N   UNL     1     -10.445  10.767  69.537  1.00  0.00    -0.354 NA 
HETATM   13  H   UNL     1     -11.076  11.509  69.840  1.00  0.00     0.000 HD 
BRANCH  12  14
HETATM   14  C   UNL     1     -11.190   9.523  69.309  1.00  0.00    -0.000 C  
BRANCH  14  15
HETATM   15  C   UNL     1     -10.479   8.296  69.937  1.00  0.00    -0.223 C  
HETATM   16  H   UNL     1     -10.924   6.873  71.232  1.00  0.00     0.000 HD 
HETATM   17  O   UNL     1     -11.360   7.624  70.848  1.00  0.00    -0.268 OA 
BRANCH  15  18
HETATM   18  C   UNL     1     -10.014   7.317  68.875  1.00  0.00    -0.166 A  
HETATM   19  O   UNL     1      -6.913   5.757  67.646  1.00  0.00    -0.062 OA 
HETATM   20  C   UNL     1      -8.227   6.101  67.772  1.00  0.00    -0.117 A  
HETATM   21  C   UNL     1      -8.658   6.969  68.777  1.00  0.00    -0.125 A  
HETATM   22  C   UNL     1      -9.123   5.557  66.860  1.00  0.00    -0.115 A  
HETATM   23  H   UNL     1      -6.621   5.167  66.962  1.00  0.00     0.000 HD 
HETATM   24  C   UNL     1     -10.466   5.894  66.957  1.00  0.00    -0.278 A  
HETATM   25  O   UNL     1     -11.393   5.398  66.089  1.00  0.00    -0.735 OA 
HETATM   26  C   UNL     1     -10.915   6.760  67.950  1.00  0.00    -0.309 A  
HETATM   27  H   UNL     1     -12.312   5.629  66.155  1.00  0.00     0.000 HD 
ENDBRANCH  15  18
ENDBRANCH  14  15
ENDBRANCH  12  14
ENDBRANCH   2  12
TORSDOF 6
ENDMDL
MODEL      183
REMARK 921   NORMALIZED FREE ENERGY PREDICTED BY IDOCK:   -5.25 KCAL/MOL
REMARK 922        TOTAL FREE ENERGY PREDICTED BY IDOCK:   -7.70 KCAL/MOL
REMARK 923 INTER-LIGAND FREE ENERGY PREDICTED BY IDOCK:   -5.69 KCAL/MOL
REMARK 924 INTRA-LIGAND FREE ENERGY PREDICTED BY IDOCK:   -2.01 KCAL/MOL
REMARK 927      BINDING AFFINITY PREDICTED BY RF-SCORE:    0.00 PKD
ROOT
HETATM    1  C   UNL     1      -7.422  16.277  69.567  1.00  0.00    -0.039 C  
HETATM    2  C   UNL     1      -8.231  15.084  69.039  1.00  0.00    -0.187 C  
ENDROOT
BRANCH   2   3
HETATM    3  C   UNL     1      -8.219  15.137  67.487  1.00  0.00    -0.196 C  
BRANCH   3   4
HETATM    4  C   UNL     1      -9.558  14.887  66.830  1.00  0.00    -0.256 A  
HETATM    5  C   UNL     1     -11.882  14.202  67.005  1.00  0.00    -0.458 A  
HETATM    6  H   UNL     1     -14.021  13.962  65.658  1.00  0.00     0.000 HD 
HETATM    7  C   UNL     1      -9.748  15.131  65.463  1.00  0.00    -0.303 A  
HETATM    8  C   UNL     1     -10.635  14.414  67.593  1.00  0.00    -0.260 A  
HETATM    9  C   UNL     1     -10.997  14.918  64.872  1.00  0.00    -0.422 A  
HETATM   10  O   UNL     1     -13.298  14.271  65.124  1.00  0.00    -0.626 OA 
HETATM   11  C   UNL     1     -12.056  14.465  65.653  1.00  0.00    -0.354 A  
ENDBRANCH   3   4
ENDBRANCH   2   3
BRANCH   2  12
HETATM   12  N   UNL     1      -7.704  13.802  69.531  1.00  0.00    -0.206 NA 
HETATM   13  H   UNL     1      -8.455  13.234  69.923  1.00  0.00     0.000 HD 
BRANCH  12  14
HETATM   14  C   UNL     1      -6.951  13.035  68.532  1.00  0.00    -0.102 C  
BRANCH  14  15
HETATM   15  C   UNL     1      -7.344  11.534  68.533  1.00  0.00    -0.104 C  
HETATM   16  H   UNL     1      -7.776  10.153  69.877  1.00  0.00     0.000 HD 
HETATM   17  O   UNL     1      -7.535  11.072  69.876  1.00  0.00     0.008 OA 
BRANCH  15  18
HETATM   18  C   UNL     1      -8.609  11.289  67.732  1.00  0.00    -0.126 A  
HETATM   19  O   UNL     1      -9.791  11.344  64.245  1.00  0.00    -0.239 OA 
HETATM   20  C   UNL     1      -9.772  11.221  65.603  1.00  0.00    -0.230 A  
HETATM   21  C   UNL     1      -8.597  11.406  66.334  1.00  0.00    -0.174 A  
HETATM   22  C   UNL     1     -10.968  10.907  66.236  1.00  0.00    -0.130 A  
HETATM   23  H   UNL     1     -10.591  11.217  63.749  1.00  0.00     0.000 HD 
HETATM   24  C   UNL     1     -10.984  10.783  67.619  1.00  0.00    -0.306 A  
HETATM   25  O   UNL     1     -12.127  10.482  68.297  1.00  0.00    -0.797 OA 
HETATM   26  C   UNL     1      -9.823  10.968  68.364  1.00  0.00    -0.186 A  
HETATM   27  H   UNL     1     -12.138  10.398  69.243  1.00  0.00     0.000 HD 
ENDBRANCH  15  18
ENDBRANCH  14  15
ENDBRANCH  12  14
ENDBRANCH   2  12
TORSDOF 6
ENDMDL
MODEL      184
REMARK 921   NORMALIZED FREE ENERGY PREDICTED BY IDOCK:   -5.25 KCAL/MOL
REMARK 922        TOTAL FREE ENERGY PREDICTED BY IDOCK:   -7.70 KCAL/MOL
REMARK 923 INTER-LIGAND FREE ENERGY PREDICTED BY IDOCK:   -6.51 KCAL/MOL
REMARK 924 INTRA-LIGAND FREE ENERGY PREDICTED BY IDOCK:   -1.19 KCAL/MOL
REMARK 927      BINDING AFFINITY PREDICTED BY RF-SCORE:    0.00 PKD
ROOT
HETATM    1  C   UNL     1      -9.903   4.436  69.487  1.00  0.00    -0.258 C  
HETATM    2  C   UNL     1     -10.162   5.922  69.775  1.00  0.00    -0.218 C  
ENDROOT
BRANCH   2   3
HETATM    3  C   UNL     1     -10.812   6.554  68.515  1.00  0.00    -0.353 C  
BRANCH   3   4
HETATM    4  C   UNL     1     -10.049   7.714  67.917  1.00  0.00    -0.231 A  
HETATM    5  C   UNL     1      -8.353   9.440  68.133  1.00  0.00    -0.119 A  
HETATM    6  H   UNL     1      -7.172  11.281  66.843  1.00  0.00     0.000 HD 
HETATM    7  C   UNL     1     -10.283   8.130  66.598  1.00  0.00    -0.329 A  
HETATM    8  C   UNL     1      -9.082   8.384  68.680  1.00  0.00    -0.140 A  
HETATM    9  C   UNL     1      -9.554   9.189  66.050  1.00  0.00    -0.342 A  
HETATM   10  O   UNL     1      -7.833  10.845  66.316  1.00  0.00    -0.155 OA 
HETATM   11  C   UNL     1      -8.587   9.828  66.821  1.00  0.00    -0.128 A  
ENDBRANCH   3   4
ENDBRANCH   2   3
BRANCH   2  12
HETATM   12  N   UNL     1     -11.009   6.112  70.963  1.00  0.00    -0.280 NA 
HETATM   13  H   UNL     1     -10.459   6.489  71.735  1.00  0.00     0.000 HD 
BRANCH  12  14
HETATM   14  C   UNL     1     -12.199   6.937  70.730  1.00  0.00    -0.312 C  
BRANCH  14  15
HETATM   15  C   UNL     1     -12.490   7.887  71.921  1.00  0.00    -0.321 C  
HETATM   16  H   UNL     1     -11.677   8.302  73.673  1.00  0.00     0.000 HD 
HETATM   17  O   UNL     1     -11.498   7.720  72.944  1.00  0.00    -0.378 OA 
BRANCH  15  18
HETATM   18  C   UNL     1     -12.519   9.339  71.482  1.00  0.00    -0.435 A  
HETATM   19  O   UNL     1     -11.011  11.548  68.951  1.00  0.00    -0.205 OA 
HETATM   20  C   UNL     1     -11.754  11.107  70.007  1.00  0.00    -0.356 A  
HETATM   21  C   UNL     1     -11.757   9.763  70.382  1.00  0.00    -0.301 A  
HETATM   22  C   UNL     1     -12.507  12.047  70.698  1.00  0.00    -0.335 A  
HETATM   23  H   UNL     1     -11.009  12.463  68.696  1.00  0.00     0.000 HD 
HETATM   24  C   UNL     1     -13.267  11.632  71.783  1.00  0.00    -0.333 A  
HETATM   25  O   UNL     1     -14.022  12.508  72.505  1.00  0.00    -0.535 OA 
HETATM   26  C   UNL     1     -13.281  10.297  72.175  1.00  0.00    -0.443 A  
HETATM   27  H   UNL     1     -14.542  12.224  73.247  1.00  0.00     0.000 HD 
ENDBRANCH  15  18
ENDBRANCH  14  15
ENDBRANCH  12  14
ENDBRANCH   2  12
TORSDOF 6
ENDMDL
MODEL      185
REMARK 921   NORMALIZED FREE ENERGY PREDICTED BY IDOCK:   -5.24 KCAL/MOL
REMARK 922        TOTAL FREE ENERGY PREDICTED BY IDOCK:   -7.69 KCAL/MOL
REMARK 923 INTER-LIGAND FREE ENERGY PREDICTED BY IDOCK:   -6.62 KCAL/MOL
REMARK 924 INTRA-LIGAND FREE ENERGY PREDICTED BY IDOCK:   -1.07 KCAL/MOL
REMARK 927      BINDING AFFINITY PREDICTED BY RF-SCORE:    0.00 PKD
ROOT
HETATM    1  C   UNL     1     -10.634   5.887  67.046  1.00  0.00    -0.376 C  
HETATM    2  C   UNL     1     -10.315   7.109  67.919  1.00  0.00    -0.198 C  
ENDROOT
BRANCH   2   3
HETATM    3  C   UNL     1     -10.561   8.388  67.074  1.00  0.00    -0.316 C  
BRANCH   3   4
HETATM    4  C   UNL     1      -9.397   9.350  67.019  1.00  0.00    -0.185 A  
HETATM    5  C   UNL     1      -8.548  11.590  66.612  1.00  0.00    -0.176 A  
HETATM    6  H   UNL     1      -6.432  12.992  66.694  1.00  0.00     0.000 HD 
HETATM    7  C   UNL     1      -8.099   8.935  67.349  1.00  0.00    -0.108 A  
HETATM    8  C   UNL     1      -9.608  10.685  66.643  1.00  0.00    -0.209 A  
HETATM    9  C   UNL     1      -7.035   9.841  67.315  1.00  0.00    -0.084 A  
HETATM   10  O   UNL     1      -6.270  12.088  66.939  1.00  0.00    -0.153 OA 
HETATM   11  C   UNL     1      -7.272  11.165  66.956  1.00  0.00    -0.128 A  
ENDBRANCH   3   4
ENDBRANCH   2   3
BRANCH   2  12
HETATM   12  N   UNL     1     -11.113   7.125  69.154  1.00  0.00    -0.449 NA 
HETATM   13  H   UNL     1     -11.114   6.203  69.590  1.00  0.00     0.000 HD 
BRANCH  12  14
HETATM   14  C   UNL     1     -10.706   8.149  70.122  1.00  0.00    -0.243 C  
BRANCH  14  15
HETATM   15  C   UNL     1     -11.886   8.599  71.024  1.00  0.00    -0.265 C  
HETATM   16  H   UNL     1     -12.390   8.450  72.927  1.00  0.00     0.000 HD 
HETATM   17  O   UNL     1     -11.668   8.174  72.375  1.00  0.00    -0.353 OA 
BRANCH  15  18
HETATM   18  C   UNL     1     -12.068  10.105  70.993  1.00  0.00    -0.476 A  
HETATM   19  O   UNL     1     -14.022  12.741  72.665  1.00  0.00    -0.702 OA 
HETATM   20  C   UNL     1     -13.153  12.111  71.823  1.00  0.00    -0.352 A  
HETATM   21  C   UNL     1     -12.957  10.730  71.882  1.00  0.00    -0.524 A  
HETATM   22  C   UNL     1     -12.471  12.894  70.901  1.00  0.00    -0.383 A  
HETATM   23  H   UNL     1     -14.155  13.680  72.625  1.00  0.00     0.000 HD 
HETATM   24  C   UNL     1     -11.586  12.281  70.025  1.00  0.00    -0.157 A  
HETATM   25  O   UNL     1     -10.891  12.996  69.094  1.00  0.00    -0.394 OA 
HETATM   26  C   UNL     1     -11.379  10.906  70.065  1.00  0.00    -0.386 A  
HETATM   27  H   UNL     1     -10.285  12.576  68.494  1.00  0.00     0.000 HD 
ENDBRANCH  15  18
ENDBRANCH  14  15
ENDBRANCH  12  14
ENDBRANCH   2  12
TORSDOF 6
ENDMDL
MODEL      186
REMARK 921   NORMALIZED FREE ENERGY PREDICTED BY IDOCK:   -5.24 KCAL/MOL
REMARK 922        TOTAL FREE ENERGY PREDICTED BY IDOCK:   -7.69 KCAL/MOL
REMARK 923 INTER-LIGAND FREE ENERGY PREDICTED BY IDOCK:   -6.42 KCAL/MOL
REMARK 924 INTRA-LIGAND FREE ENERGY PREDICTED BY IDOCK:   -1.26 KCAL/MOL
REMARK 927      BINDING AFFINITY PREDICTED BY RF-SCORE:    0.00 PKD
ROOT
HETATM    1  C   UNL     1      -6.614  19.918  69.621  1.00  0.00    -0.373 C  
HETATM    2  C   UNL     1      -6.401  19.287  68.237  1.00  0.00    -0.229 C  
ENDROOT
BRANCH   2   3
HETATM    3  C   UNL     1      -5.466  18.059  68.402  1.00  0.00    -0.161 C  
BRANCH   3   4
HETATM    4  C   UNL     1      -6.171  16.724  68.471  1.00  0.00    -0.144 A  
HETATM    5  C   UNL     1      -7.156  14.814  67.337  1.00  0.00    -0.173 A  
HETATM    6  H   UNL     1      -8.245  12.559  67.759  1.00  0.00     0.000 HD 
HETATM    7  C   UNL     1      -6.472  16.128  69.704  1.00  0.00    -0.190 A  
HETATM    8  C   UNL     1      -6.527  16.058  67.289  1.00  0.00    -0.200 A  
HETATM    9  C   UNL     1      -7.104  14.883  69.753  1.00  0.00    -0.156 A  
HETATM   10  O   UNL     1      -8.022  13.003  68.568  1.00  0.00    -0.138 OA 
HETATM   11  C   UNL     1      -7.431  14.232  68.567  1.00  0.00    -0.121 A  
ENDBRANCH   3   4
ENDBRANCH   2   3
BRANCH   2  12
HETATM   12  N   UNL     1      -7.673  18.906  67.606  1.00  0.00    -0.237 NA 
HETATM   13  H   UNL     1      -7.657  17.922  67.337  1.00  0.00     0.000 HD 
BRANCH  12  14
HETATM   14  C   UNL     1      -8.861  19.195  68.417  1.00  0.00    -0.347 C  
BRANCH  14  15
HETATM   15  C   UNL     1     -10.154  19.238  67.561  1.00  0.00    -0.389 C  
HETATM   16  H   UNL     1     -10.801  20.207  65.966  1.00  0.00     0.000 HD 
HETATM   17  O   UNL     1     -10.009  20.180  66.490  1.00  0.00    -0.432 OA 
BRANCH  15  18
HETATM   18  C   UNL     1     -10.489  17.874  66.989  1.00  0.00    -0.345 A  
HETATM   19  O   UNL     1     -10.702  14.352  68.041  1.00  0.00    -0.237 OA 
HETATM   20  C   UNL     1     -10.733  15.476  67.270  1.00  0.00    -0.308 A  
HETATM   21  C   UNL     1     -10.465  16.735  67.809  1.00  0.00    -0.335 A  
HETATM   22  C   UNL     1     -11.039  15.322  65.924  1.00  0.00    -0.287 A  
HETATM   23  H   UNL     1     -10.884  13.495  67.674  1.00  0.00     0.000 HD 
HETATM   24  C   UNL     1     -11.071  16.446  65.110  1.00  0.00    -0.170 A  
HETATM   25  O   UNL     1     -11.360  16.359  63.780  1.00  0.00    -1.487 OA 
HETATM   26  C   UNL     1     -10.803  17.710  65.628  1.00  0.00     0.035 A  
HETATM   27  H   UNL     1     -11.381  17.128  63.223  1.00  0.00     0.000 HD 
ENDBRANCH  15  18
ENDBRANCH  14  15
ENDBRANCH  12  14
ENDBRANCH   2  12
TORSDOF 6
ENDMDL
MODEL      187
REMARK 921   NORMALIZED FREE ENERGY PREDICTED BY IDOCK:   -5.23 KCAL/MOL
REMARK 922        TOTAL FREE ENERGY PREDICTED BY IDOCK:   -7.68 KCAL/MOL
REMARK 923 INTER-LIGAND FREE ENERGY PREDICTED BY IDOCK:   -7.14 KCAL/MOL
REMARK 924 INTRA-LIGAND FREE ENERGY PREDICTED BY IDOCK:   -0.54 KCAL/MOL
REMARK 927      BINDING AFFINITY PREDICTED BY RF-SCORE:    0.00 PKD
ROOT
HETATM    1  C   UNL     1     -10.580  15.014  67.240  1.00  0.00    -0.279 C  
HETATM    2  C   UNL     1     -10.459  14.146  68.500  1.00  0.00    -0.252 C  
ENDROOT
BRANCH   2   3
HETATM    3  C   UNL     1     -11.886  13.899  69.059  1.00  0.00    -0.397 C  
BRANCH   3   4
HETATM    4  C   UNL     1     -12.076  14.275  70.511  1.00  0.00    -0.413 A  
HETATM    5  C   UNL     1     -11.503  15.691  72.400  1.00  0.00    -0.434 A  
HETATM    6  H   UNL     1     -12.098  16.157  74.825  1.00  0.00     0.000 HD 
HETATM    7  C   UNL     1     -13.008  13.604  71.315  1.00  0.00    -0.399 A  
HETATM    8  C   UNL     1     -11.321  15.317  71.070  1.00  0.00    -0.393 A  
HETATM    9  C   UNL     1     -13.190  13.977  72.650  1.00  0.00    -0.606 A  
HETATM   10  O   UNL     1     -12.608  15.442  74.465  1.00  0.00    -0.541 OA 
HETATM   11  C   UNL     1     -12.442  15.026  73.178  1.00  0.00    -0.435 A  
ENDBRANCH   3   4
ENDBRANCH   2   3
BRANCH   2  12
HETATM   12  N   UNL     1      -9.768  12.876  68.228  1.00  0.00    -0.223 NA 
HETATM   13  H   UNL     1      -9.363  12.499  69.085  1.00  0.00     0.000 HD 
BRANCH  12  14
HETATM   14  C   UNL     1     -10.601  11.865  67.568  1.00  0.00    -0.219 C  
BRANCH  14  15
HETATM   15  C   UNL     1      -9.904  10.480  67.516  1.00  0.00    -0.168 C  
HETATM   16  H   UNL     1     -10.347   8.619  68.005  1.00  0.00     0.000 HD 
HETATM   17  O   UNL     1     -10.773   9.466  68.037  1.00  0.00    -0.234 OA 
BRANCH  15  18
HETATM   18  C   UNL     1      -9.495  10.114  66.102  1.00  0.00    -0.238 A  
HETATM   19  O   UNL     1      -7.141   7.904  64.332  1.00  0.00    -0.069 OA 
HETATM   20  C   UNL     1      -8.107   8.835  64.576  1.00  0.00    -0.156 A  
HETATM   21  C   UNL     1      -8.510   9.140  65.878  1.00  0.00    -0.150 A  
HETATM   22  C   UNL     1      -8.675   9.474  63.481  1.00  0.00    -0.235 A  
HETATM   23  H   UNL     1      -6.867   7.696  63.446  1.00  0.00     0.000 HD 
HETATM   24  C   UNL     1      -9.654  10.433  63.697  1.00  0.00    -0.310 A  
HETATM   25  O   UNL     1     -10.245  11.098  62.664  1.00  0.00    -0.613 OA 
HETATM   26  C   UNL     1     -10.067  10.753  64.987  1.00  0.00    -0.377 A  
HETATM   27  H   UNL     1     -10.915  11.755  62.812  1.00  0.00     0.000 HD 
ENDBRANCH  15  18
ENDBRANCH  14  15
ENDBRANCH  12  14
ENDBRANCH   2  12
TORSDOF 6
ENDMDL
MODEL      188
REMARK 921   NORMALIZED FREE ENERGY PREDICTED BY IDOCK:   -5.22 KCAL/MOL
REMARK 922        TOTAL FREE ENERGY PREDICTED BY IDOCK:   -7.66 KCAL/MOL
REMARK 923 INTER-LIGAND FREE ENERGY PREDICTED BY IDOCK:   -7.01 KCAL/MOL
REMARK 924 INTRA-LIGAND FREE ENERGY PREDICTED BY IDOCK:   -0.65 KCAL/MOL
REMARK 927      BINDING AFFINITY PREDICTED BY RF-SCORE:    0.00 PKD
ROOT
HETATM    1  C   UNL     1     -12.326  11.834  69.942  1.00  0.00    -0.200 C  
HETATM    2  C   UNL     1     -11.672  11.840  68.553  1.00  0.00    -0.330 C  
ENDROOT
BRANCH   2   3
HETATM    3  C   UNL     1     -10.672  13.026  68.492  1.00  0.00    -0.275 C  
BRANCH   3   4
HETATM    4  C   UNL     1     -10.831  13.933  67.293  1.00  0.00    -0.292 A  
HETATM    5  C   UNL     1     -12.198  14.775  65.470  1.00  0.00    -0.101 A  
HETATM    6  H   UNL     1     -12.211  16.460  63.570  1.00  0.00     0.000 HD 
HETATM    7  C   UNL     1      -9.799  14.796  66.898  1.00  0.00    -0.248 A  
HETATM    8  C   UNL     1     -12.029  13.926  66.563  1.00  0.00    -0.470 A  
HETATM    9  C   UNL     1      -9.967  15.646  65.801  1.00  0.00    -0.390 A  
HETATM   10  O   UNL     1     -11.389  16.467  64.046  1.00  0.00    -1.064 OA 
HETATM   11  C   UNL     1     -11.171  15.635  65.103  1.00  0.00    -0.282 A  
ENDBRANCH   3   4
ENDBRANCH   2   3
BRANCH   2  12
HETATM   12  N   UNL     1     -11.003  10.564  68.256  1.00  0.00    -0.243 NA 
HETATM   13  H   UNL     1     -10.000  10.707  68.138  1.00  0.00     0.000 HD 
BRANCH  12  14
HETATM   14  C   UNL     1     -11.257   9.505  69.239  1.00  0.00    -0.000 C  
BRANCH  14  15
HETATM   15  C   UNL     1      -9.944   8.962  69.861  1.00  0.00    -0.188 C  
HETATM   16  H   UNL     1      -8.213   9.701  70.459  1.00  0.00     0.000 HD 
HETATM   17  O   UNL     1      -9.016  10.033  70.078  1.00  0.00    -0.195 OA 
BRANCH  15  18
HETATM   18  C   UNL     1     -10.204   8.249  71.176  1.00  0.00    -0.244 A  
HETATM   19  O   UNL     1      -8.726   7.898  74.530  1.00  0.00    -0.437 OA 
HETATM   20  C   UNL     1      -9.558   7.746  73.460  1.00  0.00    -0.270 A  
HETATM   21  C   UNL     1      -9.340   8.436  72.266  1.00  0.00    -0.356 A  
HETATM   22  C   UNL     1     -10.632   6.876  73.601  1.00  0.00    -0.371 A  
HETATM   23  H   UNL     1      -8.875   7.429  75.342  1.00  0.00     0.000 HD 
HETATM   24  C   UNL     1     -11.492   6.693  72.527  1.00  0.00    -0.231 A  
HETATM   25  O   UNL     1     -12.560   5.849  72.602  1.00  0.00    -0.530 OA 
HETATM   26  C   UNL     1     -11.290   7.369  71.327  1.00  0.00    -0.289 A  
HETATM   27  H   UNL     1     -13.149   5.724  71.867  1.00  0.00     0.000 HD 
ENDBRANCH  15  18
ENDBRANCH  14  15
ENDBRANCH  12  14
ENDBRANCH   2  12
TORSDOF 6
ENDMDL
MODEL      189
REMARK 921   NORMALIZED FREE ENERGY PREDICTED BY IDOCK:   -5.21 KCAL/MOL
REMARK 922        TOTAL FREE ENERGY PREDICTED BY IDOCK:   -7.65 KCAL/MOL
REMARK 923 INTER-LIGAND FREE ENERGY PREDICTED BY IDOCK:   -7.01 KCAL/MOL
REMARK 924 INTRA-LIGAND FREE ENERGY PREDICTED BY IDOCK:   -0.64 KCAL/MOL
REMARK 927      BINDING AFFINITY PREDICTED BY RF-SCORE:    0.00 PKD
ROOT
HETATM    1  C   UNL     1     -12.213  14.032  66.541  1.00  0.00    -0.485 C  
HETATM    2  C   UNL     1     -11.207  13.797  67.677  1.00  0.00    -0.293 C  
ENDROOT
BRANCH   2   3
HETATM    3  C   UNL     1     -11.907  12.959  68.781  1.00  0.00    -0.353 C  
BRANCH   3   4
HETATM    4  C   UNL     1     -12.269  13.726  70.032  1.00  0.00    -0.407 A  
HETATM    5  C   UNL     1     -12.356  15.827  71.250  1.00  0.00    -0.493 A  
HETATM    6  H   UNL     1     -13.148  16.865  73.428  1.00  0.00     0.000 HD 
HETATM    7  C   UNL     1     -12.876  13.087  71.122  1.00  0.00    -0.331 A  
HETATM    8  C   UNL     1     -12.006  15.102  70.111  1.00  0.00    -0.374 A  
HETATM    9  C   UNL     1     -13.225  13.812  72.265  1.00  0.00    -0.563 A  
HETATM   10  O   UNL     1     -13.321  15.931  73.395  1.00  0.00    -0.567 OA 
HETATM   11  C   UNL     1     -12.970  15.180  72.313  1.00  0.00    -0.354 A  
ENDBRANCH   3   4
ENDBRANCH   2   3
BRANCH   2  12
HETATM   12  N   UNL     1      -9.985  13.133  67.200  1.00  0.00    -0.233 NA 
HETATM   13  H   UNL     1      -9.159  13.569  67.611  1.00  0.00     0.000 HD 
BRANCH  12  14
HETATM   14  C   UNL     1      -9.961  11.683  67.420  1.00  0.00    -0.183 C  
BRANCH  14  15
HETATM   15  C   UNL     1     -10.278  10.893  66.124  1.00  0.00    -0.249 C  
HETATM   16  H   UNL     1      -9.724  10.940  64.228  1.00  0.00     0.000 HD 
HETATM   17  O   UNL     1      -9.530  11.424  65.022  1.00  0.00    -0.226 OA 
BRANCH  15  18
HETATM   18  C   UNL     1      -9.964   9.416  66.279  1.00  0.00    -0.353 A  
HETATM   19  O   UNL     1     -11.291   6.415  67.949  1.00  0.00    -0.569 OA 
HETATM   20  C   UNL     1     -10.495   7.239  67.209  1.00  0.00    -0.310 A  
HETATM   21  C   UNL     1     -10.809   8.587  67.033  1.00  0.00    -0.030 A  
HETATM   22  C   UNL     1      -9.355   6.687  66.638  1.00  0.00    -0.192 A  
HETATM   23  H   UNL     1     -11.077   5.497  68.068  1.00  0.00     0.000 HD 
HETATM   24  C   UNL     1      -8.520   7.502  65.887  1.00  0.00    -0.147 A  
HETATM   25  O   UNL     1      -7.384   7.020  65.306  1.00  0.00    -0.070 OA 
HETATM   26  C   UNL     1      -8.814   8.850  65.702  1.00  0.00    -0.230 A  
HETATM   27  H   UNL     1      -6.812   7.578  64.792  1.00  0.00     0.000 HD 
ENDBRANCH  15  18
ENDBRANCH  14  15
ENDBRANCH  12  14
ENDBRANCH   2  12
TORSDOF 6
ENDMDL
MODEL      190
REMARK 921   NORMALIZED FREE ENERGY PREDICTED BY IDOCK:   -5.21 KCAL/MOL
REMARK 922        TOTAL FREE ENERGY PREDICTED BY IDOCK:   -7.65 KCAL/MOL
REMARK 923 INTER-LIGAND FREE ENERGY PREDICTED BY IDOCK:   -7.05 KCAL/MOL
REMARK 924 INTRA-LIGAND FREE ENERGY PREDICTED BY IDOCK:   -0.60 KCAL/MOL
REMARK 927      BINDING AFFINITY PREDICTED BY RF-SCORE:    0.00 PKD
ROOT
HETATM    1  C   UNL     1      -6.707  15.808  67.402  1.00  0.00    -0.228 C  
HETATM    2  C   UNL     1      -8.188  15.434  67.553  1.00  0.00    -0.169 C  
ENDROOT
BRANCH   2   3
HETATM    3  C   UNL     1      -8.341  13.921  67.242  1.00  0.00    -0.199 C  
BRANCH   3   4
HETATM    4  C   UNL     1      -9.600  13.548  66.492  1.00  0.00    -0.284 A  
HETATM    5  C   UNL     1     -11.496  12.059  66.192  1.00  0.00    -0.401 A  
HETATM    6  H   UNL     1     -13.608  11.733  64.819  1.00  0.00     0.000 HD 
HETATM    7  C   UNL     1     -10.071  14.337  65.433  1.00  0.00    -0.379 A  
HETATM    8  C   UNL     1     -10.320  12.402  66.859  1.00  0.00    -0.240 A  
HETATM    9  C   UNL     1     -11.249  13.994  64.763  1.00  0.00    -0.375 A  
HETATM   10  O   UNL     1     -13.125  12.506  64.550  1.00  0.00    -0.816 OA 
HETATM   11  C   UNL     1     -11.956  12.862  65.156  1.00  0.00    -0.414 A  
ENDBRANCH   3   4
ENDBRANCH   2   3
BRANCH   2  12
HETATM   12  N   UNL     1      -8.701  15.755  68.894  1.00  0.00    -0.200 NA 
HETATM   13  H   UNL     1      -7.965  15.651  69.592  1.00  0.00     0.000 HD 
BRANCH  12  14
HETATM   14  C   UNL     1      -9.324  17.079  69.000  1.00  0.00    -0.167 C  
BRANCH  14  15
HETATM   15  C   UNL     1      -9.409  17.794  67.626  1.00  0.00    -0.250 C  
HETATM   16  H   UNL     1     -10.776  18.766  66.583  1.00  0.00     0.000 HD 
HETATM   17  O   UNL     1     -10.724  18.328  67.424  1.00  0.00    -0.412 OA 
BRANCH  15  18
HETATM   18  C   UNL     1      -8.390  18.913  67.516  1.00  0.00    -0.294 A  
HETATM   19  O   UNL     1      -6.201  20.952  69.663  1.00  0.00    -0.233 OA 
HETATM   20  C   UNL     1      -6.835  20.454  68.563  1.00  0.00    -0.196 A  
HETATM   21  C   UNL     1      -7.740  19.396  68.662  1.00  0.00    -0.394 A  
HETATM   22  C   UNL     1      -6.548  21.041  67.337  1.00  0.00    -0.439 A  
HETATM   23  H   UNL     1      -5.585  21.671  69.595  1.00  0.00     0.000 HD 
HETATM   24  C   UNL     1      -7.184  20.562  66.199  1.00  0.00    -0.150 A  
HETATM   25  O   UNL     1      -6.949  21.101  64.969  1.00  0.00    -0.469 OA 
HETATM   26  C   UNL     1      -8.092  19.511  66.278  1.00  0.00    -0.344 A  
HETATM   27  H   UNL     1      -7.384  20.773  64.190  1.00  0.00     0.000 HD 
ENDBRANCH  15  18
ENDBRANCH  14  15
ENDBRANCH  12  14
ENDBRANCH   2  12
TORSDOF 6
ENDMDL
MODEL      191
REMARK 921   NORMALIZED FREE ENERGY PREDICTED BY IDOCK:   -5.20 KCAL/MOL
REMARK 922        TOTAL FREE ENERGY PREDICTED BY IDOCK:   -7.64 KCAL/MOL
REMARK 923 INTER-LIGAND FREE ENERGY PREDICTED BY IDOCK:   -6.49 KCAL/MOL
REMARK 924 INTRA-LIGAND FREE ENERGY PREDICTED BY IDOCK:   -1.15 KCAL/MOL
REMARK 927      BINDING AFFINITY PREDICTED BY RF-SCORE:    0.00 PKD
ROOT
HETATM    1  C   UNL     1      -6.699  15.110  69.217  1.00  0.00    -0.146 C  
HETATM    2  C   UNL     1      -6.484  14.610  67.781  1.00  0.00    -0.164 C  
ENDROOT
BRANCH   2   3
HETATM    3  C   UNL     1      -5.962  13.150  67.848  1.00  0.00    -0.134 C  
BRANCH   3   4
HETATM    4  C   UNL     1      -7.022  12.085  67.684  1.00  0.00    -0.118 A  
HETATM    5  C   UNL     1      -8.928  10.872  68.576  1.00  0.00    -0.157 A  
HETATM    6  H   UNL     1     -10.645   9.096  67.987  1.00  0.00     0.000 HD 
HETATM    7  C   UNL     1      -7.122  11.341  66.499  1.00  0.00    -0.097 A  
HETATM    8  C   UNL     1      -7.930  11.835  68.723  1.00  0.00    -0.063 A  
HETATM    9  C   UNL     1      -8.121  10.375  66.352  1.00  0.00    -0.129 A  
HETATM   10  O   UNL     1     -10.030   9.245  67.278  1.00  0.00    -0.179 OA 
HETATM   11  C   UNL     1      -9.022  10.156  67.390  1.00  0.00    -0.134 A  
ENDBRANCH   3   4
ENDBRANCH   2   3
BRANCH   2  12
HETATM   12  N   UNL     1      -7.714  14.699  66.979  1.00  0.00    -0.323 NA 
HETATM   13  H   UNL     1      -7.985  13.777  66.638  1.00  0.00     0.000 HD 
BRANCH  12  14
HETATM   14  C   UNL     1      -8.839  15.340  67.669  1.00  0.00    -0.175 C  
BRANCH  14  15
HETATM   15  C   UNL     1      -9.921  15.840  66.676  1.00  0.00    -0.257 C  
HETATM   16  H   UNL     1      -9.981  16.926  65.027  1.00  0.00     0.000 HD 
HETATM   17  O   UNL     1      -9.318  16.620  65.635  1.00  0.00    -0.502 OA 
BRANCH  15  18
HETATM   18  C   UNL     1     -10.687  14.685  66.058  1.00  0.00    -0.313 A  
HETATM   19  O   UNL     1     -12.420  13.806  62.931  1.00  0.00    -1.009 OA 
HETATM   20  C   UNL     1     -11.919  13.733  64.197  1.00  0.00    -0.432 A  
HETATM   21  C   UNL     1     -11.178  14.781  64.747  1.00  0.00    -0.392 A  
HETATM   22  C   UNL     1     -12.175  12.576  64.922  1.00  0.00    -0.534 A  
HETATM   23  H   UNL     1     -12.924  13.093  62.556  1.00  0.00     0.000 HD 
HETATM   24  C   UNL     1     -11.686  12.475  66.218  1.00  0.00    -0.404 A  
HETATM   25  O   UNL     1     -11.909  11.368  66.982  1.00  0.00    -0.530 OA 
HETATM   26  C   UNL     1     -10.949  13.510  66.785  1.00  0.00    -0.297 A  
HETATM   27  H   UNL     1     -11.574  11.299  67.868  1.00  0.00     0.000 HD 
ENDBRANCH  15  18
ENDBRANCH  14  15
ENDBRANCH  12  14
ENDBRANCH   2  12
TORSDOF 6
ENDMDL
MODEL      192
REMARK 921   NORMALIZED FREE ENERGY PREDICTED BY IDOCK:   -5.20 KCAL/MOL
REMARK 922        TOTAL FREE ENERGY PREDICTED BY IDOCK:   -7.63 KCAL/MOL
REMARK 923 INTER-LIGAND FREE ENERGY PREDICTED BY IDOCK:   -6.43 KCAL/MOL
REMARK 924 INTRA-LIGAND FREE ENERGY PREDICTED BY IDOCK:   -1.20 KCAL/MOL
REMARK 927      BINDING AFFINITY PREDICTED BY RF-SCORE:    0.00 PKD
ROOT
HETATM    1  C   UNL     1      -7.698   9.889  66.315  1.00  0.00    -0.105 C  
HETATM    2  C   UNL     1      -9.072  10.346  66.825  1.00  0.00    -0.143 C  
ENDROOT
BRANCH   2   3
HETATM    3  C   UNL     1      -8.996  10.486  68.370  1.00  0.00    -0.141 C  
BRANCH   3   4
HETATM    4  C   UNL     1      -9.642   9.361  69.145  1.00  0.00    -0.163 A  
HETATM    5  C   UNL     1     -10.460   8.469  71.251  1.00  0.00    -0.289 A  
HETATM    6  H   UNL     1     -11.643   6.466  72.270  1.00  0.00     0.000 HD 
HETATM    7  C   UNL     1     -10.058   8.186  68.503  1.00  0.00    -0.220 A  
HETATM    8  C   UNL     1      -9.843   9.488  70.527  1.00  0.00    -0.331 A  
HETATM    9  C   UNL     1     -10.675   7.163  69.228  1.00  0.00    -0.231 A  
HETATM   10  O   UNL     1     -11.503   6.359  71.337  1.00  0.00    -0.287 OA 
HETATM   11  C   UNL     1     -10.879   7.319  70.596  1.00  0.00    -0.242 A  
ENDBRANCH   3   4
ENDBRANCH   2   3
BRANCH   2  12
HETATM   12  N   UNL     1      -9.500  11.606  66.198  1.00  0.00    -0.219 NA 
HETATM   13  H   UNL     1     -10.326  11.454  65.620  1.00  0.00     0.000 HD 
BRANCH  12  14
HETATM   14  C   UNL     1      -9.732  12.703  67.144  1.00  0.00    -0.211 C  
BRANCH  14  15
HETATM   15  C   UNL     1     -11.214  13.162  67.150  1.00  0.00    -0.294 C  
HETATM   16  H   UNL     1     -12.942  12.483  66.476  1.00  0.00     0.000 HD 
HETATM   17  O   UNL     1     -12.034  12.202  66.472  1.00  0.00    -0.618 OA 
BRANCH  15  18
HETATM   18  C   UNL     1     -11.731  13.357  68.563  1.00  0.00    -0.392 A  
HETATM   19  O   UNL     1     -12.412  16.063  70.965  1.00  0.00    -0.532 OA 
HETATM   20  C   UNL     1     -12.294  14.821  70.414  1.00  0.00    -0.344 A  
HETATM   21  C   UNL     1     -11.858  14.648  69.100  1.00  0.00    -0.347 A  
HETATM   22  C   UNL     1     -12.623  13.732  71.211  1.00  0.00    -0.444 A  
HETATM   23  H   UNL     1     -12.709  16.181  71.860  1.00  0.00     0.000 HD 
HETATM   24  C   UNL     1     -12.505  12.454  70.682  1.00  0.00    -0.234 A  
HETATM   25  O   UNL     1     -12.807  11.345  71.416  1.00  0.00    -0.413 OA 
HETATM   26  C   UNL     1     -12.068  12.260  69.375  1.00  0.00    -0.234 A  
HETATM   27  H   UNL     1     -12.726  10.471  71.054  1.00  0.00     0.000 HD 
ENDBRANCH  15  18
ENDBRANCH  14  15
ENDBRANCH  12  14
ENDBRANCH   2  12
TORSDOF 6
ENDMDL
MODEL      193
REMARK 921   NORMALIZED FREE ENERGY PREDICTED BY IDOCK:   -5.19 KCAL/MOL
REMARK 922        TOTAL FREE ENERGY PREDICTED BY IDOCK:   -7.62 KCAL/MOL
REMARK 923 INTER-LIGAND FREE ENERGY PREDICTED BY IDOCK:   -6.38 KCAL/MOL
REMARK 924 INTRA-LIGAND FREE ENERGY PREDICTED BY IDOCK:   -1.25 KCAL/MOL
REMARK 927      BINDING AFFINITY PREDICTED BY RF-SCORE:    0.00 PKD
ROOT
HETATM    1  C   UNL     1      -8.180  13.980  67.714  1.00  0.00    -0.169 C  
HETATM    2  C   UNL     1      -8.414  12.625  67.031  1.00  0.00    -0.150 C  
ENDROOT
BRANCH   2   3
HETATM    3  C   UNL     1      -8.751  11.580  68.128  1.00  0.00    -0.157 C  
BRANCH   3   4
HETATM    4  C   UNL     1      -8.981  10.174  67.622  1.00  0.00    -0.134 A  
HETATM    5  C   UNL     1     -10.317   8.145  67.607  1.00  0.00    -0.313 A  
HETATM    6  H   UNL     1     -10.500   5.858  66.519  1.00  0.00     0.000 HD 
HETATM    7  C   UNL     1      -8.116   9.594  66.683  1.00  0.00    -0.119 A  
HETATM    8  C   UNL     1     -10.078   9.434  68.084  1.00  0.00    -0.215 A  
HETATM    9  C   UNL     1      -8.354   8.301  66.205  1.00  0.00    -0.124 A  
HETATM   10  O   UNL     1      -9.745   6.341  66.205  1.00  0.00    -0.136 OA 
HETATM   11  C   UNL     1      -9.459   7.593  66.666  1.00  0.00    -0.198 A  
ENDBRANCH   3   4
ENDBRANCH   2   3
BRANCH   2  12
HETATM   12  N   UNL     1      -9.478  12.696  66.019  1.00  0.00    -0.411 NA 
HETATM   13  H   UNL     1     -10.103  11.894  66.101  1.00  0.00     0.000 HD 
BRANCH  12  14
HETATM   14  C   UNL     1     -10.246  13.946  66.037  1.00  0.00    -0.310 C  
BRANCH  14  15
HETATM   15  C   UNL     1     -11.711  13.722  66.495  1.00  0.00    -0.385 C  
HETATM   16  H   UNL     1     -13.069  12.295  66.355  1.00  0.00     0.000 HD 
HETATM   17  O   UNL     1     -12.172  12.431  66.074  1.00  0.00    -0.636 OA 
BRANCH  15  18
HETATM   18  C   UNL     1     -11.848  13.838  68.001  1.00  0.00    -0.408 A  
HETATM   19  O   UNL     1     -11.765  16.395  70.649  1.00  0.00    -0.516 OA 
HETATM   20  C   UNL     1     -11.854  15.191  70.016  1.00  0.00    -0.325 A  
HETATM   21  C   UNL     1     -11.769  15.092  68.626  1.00  0.00    -0.364 A  
HETATM   22  C   UNL     1     -12.028  14.062  70.806  1.00  0.00    -0.364 A  
HETATM   23  H   UNL     1     -11.823  16.462  71.595  1.00  0.00     0.000 HD 
HETATM   24  C   UNL     1     -12.113  12.819  70.192  1.00  0.00    -0.298 A  
HETATM   25  O   UNL     1     -12.278  11.675  70.914  1.00  0.00    -0.364 OA 
HETATM   26  C   UNL     1     -12.027  12.700  68.808  1.00  0.00    -0.279 A  
HETATM   27  H   UNL     1     -12.336  10.824  70.493  1.00  0.00     0.000 HD 
ENDBRANCH  15  18
ENDBRANCH  14  15
ENDBRANCH  12  14
ENDBRANCH   2  12
TORSDOF 6
ENDMDL
MODEL      194
REMARK 921   NORMALIZED FREE ENERGY PREDICTED BY IDOCK:   -5.19 KCAL/MOL
REMARK 922        TOTAL FREE ENERGY PREDICTED BY IDOCK:   -7.62 KCAL/MOL
REMARK 923 INTER-LIGAND FREE ENERGY PREDICTED BY IDOCK:   -7.09 KCAL/MOL
REMARK 924 INTRA-LIGAND FREE ENERGY PREDICTED BY IDOCK:   -0.52 KCAL/MOL
REMARK 927      BINDING AFFINITY PREDICTED BY RF-SCORE:    0.00 PKD
ROOT
HETATM    1  C   UNL     1     -10.468   9.557  67.666  1.00  0.00    -0.321 C  
HETATM    2  C   UNL     1     -11.094  10.779  68.354  1.00  0.00    -0.266 C  
ENDROOT
BRANCH   2   3
HETATM    3  C   UNL     1     -11.625  11.736  67.254  1.00  0.00    -0.344 C  
BRANCH   3   4
HETATM    4  C   UNL     1     -11.439  13.208  67.544  1.00  0.00    -0.371 A  
HETATM    5  C   UNL     1     -10.618  15.390  66.860  1.00  0.00    -0.309 A  
HETATM    6  H   UNL     1     -10.530  17.826  67.571  1.00  0.00     0.000 HD 
HETATM    7  C   UNL     1     -11.927  13.780  68.727  1.00  0.00    -0.400 A  
HETATM    8  C   UNL     1     -10.776  14.026  66.617  1.00  0.00    -0.281 A  
HETATM    9  C   UNL     1     -11.767  15.146  68.972  1.00  0.00    -0.358 A  
HETATM   10  O   UNL     1     -10.970  17.284  68.215  1.00  0.00    -0.336 OA 
HETATM   11  C   UNL     1     -11.122  15.941  68.030  1.00  0.00    -0.334 A  
ENDBRANCH   3   4
ENDBRANCH   2   3
BRANCH   2  12
HETATM   12  N   UNL     1     -12.164  10.396  69.288  1.00  0.00    -0.653 NA 
HETATM   13  H   UNL     1     -12.565   9.497  69.021  1.00  0.00     0.000 HD 
BRANCH  12  14
HETATM   14  C   UNL     1     -11.757  10.376  70.697  1.00  0.00    -0.351 C  
BRANCH  14  15
HETATM   15  C   UNL     1     -12.573   9.348  71.524  1.00  0.00    -0.362 C  
HETATM   16  H   UNL     1     -14.360   8.511  71.435  1.00  0.00     0.000 HD 
HETATM   17  O   UNL     1     -13.860   9.141  70.929  1.00  0.00    -0.105 OA 
BRANCH  15  18
HETATM   18  C   UNL     1     -11.849   8.018  71.630  1.00  0.00    -0.329 A  
HETATM   19  O   UNL     1     -10.203   5.901  74.153  1.00  0.00    -0.235 OA 
HETATM   20  C   UNL     1     -10.680   6.359  72.960  1.00  0.00    -0.259 A  
HETATM   21  C   UNL     1     -11.382   7.563  72.872  1.00  0.00    -0.355 A  
HETATM   22  C   UNL     1     -10.439   5.585  71.832  1.00  0.00    -0.282 A  
HETATM   23  H   UNL     1      -9.725   5.082  74.212  1.00  0.00     0.000 HD 
HETATM   24  C   UNL     1     -10.905   6.029  70.602  1.00  0.00    -0.297 A  
HETATM   25  O   UNL     1     -10.696   5.316  69.459  1.00  0.00    -0.252 OA 
HETATM   26  C   UNL     1     -11.604   7.227  70.494  1.00  0.00    -0.292 A  
HETATM   27  H   UNL     1     -11.014   5.620  68.617  1.00  0.00     0.000 HD 
ENDBRANCH  15  18
ENDBRANCH  14  15
ENDBRANCH  12  14
ENDBRANCH   2  12
TORSDOF 6
ENDMDL
MODEL      195
REMARK 921   NORMALIZED FREE ENERGY PREDICTED BY IDOCK:   -5.19 KCAL/MOL
REMARK 922        TOTAL FREE ENERGY PREDICTED BY IDOCK:   -7.61 KCAL/MOL
REMARK 923 INTER-LIGAND FREE ENERGY PREDICTED BY IDOCK:   -6.54 KCAL/MOL
REMARK 924 INTRA-LIGAND FREE ENERGY PREDICTED BY IDOCK:   -1.07 KCAL/MOL
REMARK 927      BINDING AFFINITY PREDICTED BY RF-SCORE:    0.00 PKD
ROOT
HETATM    1  C   UNL     1      -8.037   6.900  66.170  1.00  0.00    -0.115 C  
HETATM    2  C   UNL     1      -8.500   8.011  67.123  1.00  0.00    -0.124 C  
ENDROOT
BRANCH   2   3
HETATM    3  C   UNL     1      -9.936   8.436  66.713  1.00  0.00    -0.354 C  
BRANCH   3   4
HETATM    4  C   UNL     1     -10.047   9.820  66.117  1.00  0.00    -0.315 A  
HETATM    5  C   UNL     1     -10.476  12.195  66.400  1.00  0.00    -0.261 A  
HETATM    6  H   UNL     1     -10.498  14.404  65.149  1.00  0.00     0.000 HD 
HETATM    7  C   UNL     1      -9.797  10.043  64.755  1.00  0.00    -0.325 A  
HETATM    8  C   UNL     1     -10.394  10.908  66.932  1.00  0.00    -0.285 A  
HETATM    9  C   UNL     1      -9.881  11.333  64.222  1.00  0.00    -0.319 A  
HETATM   10  O   UNL     1     -10.274  13.676  64.581  1.00  0.00    -0.404 OA 
HETATM   11  C   UNL     1     -10.210  12.399  65.053  1.00  0.00    -0.283 A  
ENDBRANCH   3   4
ENDBRANCH   2   3
BRANCH   2  12
HETATM   12  N   UNL     1      -8.453   7.583  68.530  1.00  0.00    -0.129 NA 
HETATM   13  H   UNL     1      -8.175   8.360  69.129  1.00  0.00     0.000 HD 
BRANCH  12  14
HETATM   14  C   UNL     1      -9.698   6.980  69.019  1.00  0.00    -0.145 C  
BRANCH  14  15
HETATM   15  C   UNL     1      -9.917   7.244  70.531  1.00  0.00    -0.190 C  
HETATM   16  H   UNL     1      -8.823   7.812  72.074  1.00  0.00     0.000 HD 
HETATM   17  O   UNL     1      -8.689   7.650  71.148  1.00  0.00    -0.132 OA 
BRANCH  15  18
HETATM   18  C   UNL     1     -10.972   8.311  70.763  1.00  0.00    -0.266 A  
HETATM   19  O   UNL     1     -11.504  11.913  70.215  1.00  0.00    -0.515 OA 
HETATM   20  C   UNL     1     -11.703  10.619  70.597  1.00  0.00    -0.356 A  
HETATM   21  C   UNL     1     -10.748   9.631  70.345  1.00  0.00    -0.356 A  
HETATM   22  C   UNL     1     -12.890  10.318  71.251  1.00  0.00    -0.522 A  
HETATM   23  H   UNL     1     -12.153  12.584  70.386  1.00  0.00     0.000 HD 
HETATM   24  C   UNL     1     -13.118   9.011  71.662  1.00  0.00    -0.365 A  
HETATM   25  O   UNL     1     -14.262   8.656  72.313  1.00  0.00    -0.451 OA 
HETATM   26  C   UNL     1     -12.178   8.014  71.422  1.00  0.00    -0.335 A  
HETATM   27  H   UNL     1     -14.418   7.762  72.594  1.00  0.00     0.000 HD 
ENDBRANCH  15  18
ENDBRANCH  14  15
ENDBRANCH  12  14
ENDBRANCH   2  12
TORSDOF 6
ENDMDL
MODEL      196
REMARK 921   NORMALIZED FREE ENERGY PREDICTED BY IDOCK:   -5.18 KCAL/MOL
REMARK 922        TOTAL FREE ENERGY PREDICTED BY IDOCK:   -7.61 KCAL/MOL
REMARK 923 INTER-LIGAND FREE ENERGY PREDICTED BY IDOCK:   -7.03 KCAL/MOL
REMARK 924 INTRA-LIGAND FREE ENERGY PREDICTED BY IDOCK:   -0.58 KCAL/MOL
REMARK 927      BINDING AFFINITY PREDICTED BY RF-SCORE:    0.00 PKD
ROOT
HETATM    1  C   UNL     1      -8.379  12.236  67.806  1.00  0.00    -0.162 C  
HETATM    2  C   UNL     1      -9.660  11.666  68.430  1.00  0.00    -0.195 C  
ENDROOT
BRANCH   2   3
HETATM    3  C   UNL     1     -10.422  10.869  67.337  1.00  0.00    -0.263 C  
BRANCH   3   4
HETATM    4  C   UNL     1     -10.965  11.705  66.201  1.00  0.00    -0.339 A  
HETATM    5  C   UNL     1     -10.963  12.288  63.842  1.00  0.00    -0.464 A  
HETATM    6  H   UNL     1     -12.124  13.756  62.126  1.00  0.00     0.000 HD 
HETATM    7  C   UNL     1     -11.987  12.640  66.416  1.00  0.00    -0.425 A  
HETATM    8  C   UNL     1     -10.454  11.542  64.905  1.00  0.00    -0.345 A  
HETATM    9  C   UNL     1     -12.496  13.390  65.351  1.00  0.00    -0.543 A  
HETATM   10  O   UNL     1     -12.472  13.888  63.000  1.00  0.00    -0.689 OA 
HETATM   11  C   UNL     1     -11.985  13.199  64.071  1.00  0.00    -0.460 A  
ENDBRANCH   3   4
ENDBRANCH   2   3
BRANCH   2  12
HETATM   12  N   UNL     1      -9.372  10.822  69.600  1.00  0.00    -0.384 NA 
HETATM   13  H   UNL     1      -9.260  11.396  70.435  1.00  0.00     0.000 HD 
BRANCH  12  14
HETATM   14  C   UNL     1     -10.358   9.761  69.836  1.00  0.00    -0.254 C  
BRANCH  14  15
HETATM   15  C   UNL     1      -9.699   8.359  69.903  1.00  0.00    -0.179 C  
HETATM   16  H   UNL     1      -7.884   7.602  69.712  1.00  0.00     0.000 HD 
HETATM   17  O   UNL     1      -8.288   8.461  69.671  1.00  0.00    -0.118 OA 
BRANCH  15  18
HETATM   18  C   UNL     1      -9.940   7.692  71.244  1.00  0.00    -0.195 A  
HETATM   19  O   UNL     1     -12.423   5.550  72.919  1.00  0.00    -0.500 OA 
HETATM   20  C   UNL     1     -11.318   6.317  72.693  1.00  0.00    -0.247 A  
HETATM   21  C   UNL     1     -11.077   6.894  71.445  1.00  0.00    -0.284 A  
HETATM   22  C   UNL     1     -10.441   6.506  73.753  1.00  0.00    -0.335 A  
HETATM   23  H   UNL     1     -12.586   5.157  73.768  1.00  0.00     0.000 HD 
HETATM   24  C   UNL     1      -9.311   7.290  73.557  1.00  0.00    -0.209 A  
HETATM   25  O   UNL     1      -8.416   7.516  74.560  1.00  0.00    -0.220 OA 
HETATM   26  C   UNL     1      -9.056   7.877  72.322  1.00  0.00    -0.217 A  
HETATM   27  H   UNL     1      -7.643   8.053  74.426  1.00  0.00     0.000 HD 
ENDBRANCH  15  18
ENDBRANCH  14  15
ENDBRANCH  12  14
ENDBRANCH   2  12
TORSDOF 6
ENDMDL
MODEL      197
REMARK 921   NORMALIZED FREE ENERGY PREDICTED BY IDOCK:   -5.18 KCAL/MOL
REMARK 922        TOTAL FREE ENERGY PREDICTED BY IDOCK:   -7.61 KCAL/MOL
REMARK 923 INTER-LIGAND FREE ENERGY PREDICTED BY IDOCK:   -7.05 KCAL/MOL
REMARK 924 INTRA-LIGAND FREE ENERGY PREDICTED BY IDOCK:   -0.56 KCAL/MOL
REMARK 927      BINDING AFFINITY PREDICTED BY RF-SCORE:    0.00 PKD
ROOT
HETATM    1  C   UNL     1     -10.772  15.784  67.487  1.00  0.00    -0.317 C  
HETATM    2  C   UNL     1     -10.956  14.692  68.551  1.00  0.00    -0.252 C  
ENDROOT
BRANCH   2   3
HETATM    3  C   UNL     1     -12.419  14.756  69.065  1.00  0.00     0.045 C  
BRANCH   3   4
HETATM    4  C   UNL     1     -12.574  15.237  70.490  1.00  0.00    -0.450 A  
HETATM    5  C   UNL     1     -13.919  15.420  72.504  1.00  0.00    -0.640 A  
HETATM    6  H   UNL     1     -13.861  16.260  74.900  1.00  0.00     0.000 HD 
HETATM    7  C   UNL     1     -11.532  15.912  71.143  1.00  0.00    -0.471 A  
HETATM    8  C   UNL     1     -13.771  15.003  71.182  1.00  0.00    -0.484 A  
HETATM    9  C   UNL     1     -11.681  16.332  72.468  1.00  0.00    -0.493 A  
HETATM   10  O   UNL     1     -13.048  16.438  74.441  1.00  0.00    -0.553 OA 
HETATM   11  C   UNL     1     -12.871  16.072  73.140  1.00  0.00    -0.519 A  
ENDBRANCH   3   4
ENDBRANCH   2   3
BRANCH   2  12
HETATM   12  N   UNL     1     -10.634  13.355  68.027  1.00  0.00    -0.237 NA 
HETATM   13  H   UNL     1      -9.817  12.973  68.503  1.00  0.00     0.000 HD 
BRANCH  12  14
HETATM   14  C   UNL     1     -11.748  12.402  68.079  1.00  0.00    -0.356 C  
BRANCH  14  15
HETATM   15  C   UNL     1     -11.638  11.444  69.294  1.00  0.00    -0.317 C  
HETATM   16  H   UNL     1     -12.868  10.373  70.409  1.00  0.00     0.000 HD 
HETATM   17  O   UNL     1     -12.935  10.960  69.665  1.00  0.00    -0.131 OA 
BRANCH  15  18
HETATM   18  C   UNL     1     -10.729  10.267  68.995  1.00  0.00    -0.257 A  
HETATM   19  O   UNL     1      -8.055   8.297  70.584  1.00  0.00    -0.100 OA 
HETATM   20  C   UNL     1      -8.957   8.752  69.668  1.00  0.00    -0.145 A  
HETATM   21  C   UNL     1      -9.821   9.808  69.962  1.00  0.00    -0.295 A  
HETATM   22  C   UNL     1      -8.983   8.127  68.428  1.00  0.00    -0.136 A  
HETATM   23  H   UNL     1      -7.467   7.578  70.384  1.00  0.00     0.000 HD 
HETATM   24  C   UNL     1      -9.884   8.573  67.471  1.00  0.00    -0.177 A  
HETATM   25  O   UNL     1      -9.954   8.004  66.234  1.00  0.00    -0.446 OA 
HETATM   26  C   UNL     1     -10.751   9.627  67.743  1.00  0.00    -0.316 A  
HETATM   27  H   UNL     1     -10.570   8.309  65.579  1.00  0.00     0.000 HD 
ENDBRANCH  15  18
ENDBRANCH  14  15
ENDBRANCH  12  14
ENDBRANCH   2  12
TORSDOF 6
ENDMDL
MODEL      198
REMARK 921   NORMALIZED FREE ENERGY PREDICTED BY IDOCK:   -5.18 KCAL/MOL
REMARK 922        TOTAL FREE ENERGY PREDICTED BY IDOCK:   -7.60 KCAL/MOL
REMARK 923 INTER-LIGAND FREE ENERGY PREDICTED BY IDOCK:   -6.83 KCAL/MOL
REMARK 924 INTRA-LIGAND FREE ENERGY PREDICTED BY IDOCK:   -0.77 KCAL/MOL
REMARK 927      BINDING AFFINITY PREDICTED BY RF-SCORE:    0.00 PKD
ROOT
HETATM    1  C   UNL     1     -11.645   6.142  72.447  1.00  0.00    -0.338 C  
HETATM    2  C   UNL     1     -12.089   7.353  71.615  1.00  0.00    -0.317 C  
ENDROOT
BRANCH   2   3
HETATM    3  C   UNL     1     -11.101   8.519  71.889  1.00  0.00    -0.395 C  
BRANCH   3   4
HETATM    4  C   UNL     1     -11.284   9.732  71.006  1.00  0.00    -0.451 A  
HETATM    5  C   UNL     1     -10.544  11.089  69.132  1.00  0.00    -0.253 A  
HETATM    6  H   UNL     1     -11.151  13.139  67.761  1.00  0.00     0.000 HD 
HETATM    7  C   UNL     1     -12.360  10.610  71.197  1.00  0.00    -0.505 A  
HETATM    8  C   UNL     1     -10.374   9.987  69.970  1.00  0.00    -0.323 A  
HETATM    9  C   UNL     1     -12.531  11.715  70.359  1.00  0.00    -0.304 A  
HETATM   10  O   UNL     1     -11.769  12.987  68.467  1.00  0.00    -0.302 OA 
HETATM   11  C   UNL     1     -11.625  11.938  69.326  1.00  0.00    -0.315 A  
ENDBRANCH   3   4
ENDBRANCH   2   3
BRANCH   2  12
HETATM   12  N   UNL     1     -12.155   7.039  70.179  1.00  0.00    -0.623 NA 
HETATM   13  H   UNL     1     -12.030   7.885  69.623  1.00  0.00     0.000 HD 
BRANCH  12  14
HETATM   14  C   UNL     1     -11.217   5.998  69.745  1.00  0.00    -0.369 C  
BRANCH  14  15
HETATM   15  C   UNL     1      -9.996   6.592  68.996  1.00  0.00    -0.145 C  
HETATM   16  H   UNL     1      -8.095   6.956  69.388  1.00  0.00     0.000 HD 
HETATM   17  O   UNL     1      -8.843   6.593  69.847  1.00  0.00    -0.142 OA 
BRANCH  15  18
HETATM   18  C   UNL     1      -9.685   5.813  67.731  1.00  0.00    -0.130 A  
HETATM   19  O   UNL     1     -11.416   4.335  64.836  1.00  0.00    -1.029 OA 
HETATM   20  C   UNL     1     -10.432   4.706  65.705  1.00  0.00    -0.227 A  
HETATM   21  C   UNL     1     -10.715   5.458  66.846  1.00  0.00    -0.264 A  
HETATM   22  C   UNL     1      -9.135   4.303  65.414  1.00  0.00    -0.141 A  
HETATM   23  H   UNL     1     -11.223   3.823  64.060  1.00  0.00     0.000 HD 
HETATM   24  C   UNL     1      -8.112   4.657  66.284  1.00  0.00    -0.103 A  
HETATM   25  O   UNL     1      -6.819   4.287  66.056  1.00  0.00    -0.055 OA 
HETATM   26  C   UNL     1      -8.374   5.404  67.428  1.00  0.00    -0.103 A  
HETATM   27  H   UNL     1      -6.120   4.529  66.651  1.00  0.00     0.000 HD 
ENDBRANCH  15  18
ENDBRANCH  14  15
ENDBRANCH  12  14
ENDBRANCH   2  12
TORSDOF 6
ENDMDL
MODEL      199
REMARK 921   NORMALIZED FREE ENERGY PREDICTED BY IDOCK:   -5.17 KCAL/MOL
REMARK 922        TOTAL FREE ENERGY PREDICTED BY IDOCK:   -7.59 KCAL/MOL
REMARK 923 INTER-LIGAND FREE ENERGY PREDICTED BY IDOCK:   -7.09 KCAL/MOL
REMARK 924 INTRA-LIGAND FREE ENERGY PREDICTED BY IDOCK:   -0.50 KCAL/MOL
REMARK 927      BINDING AFFINITY PREDICTED BY RF-SCORE:    0.00 PKD
ROOT
HETATM    1  C   UNL     1      -9.892   4.937  69.470  1.00  0.00    -0.287 C  
HETATM    2  C   UNL     1     -11.119   5.769  69.870  1.00  0.00    -0.257 C  
ENDROOT
BRANCH   2   3
HETATM    3  C   UNL     1     -10.767   6.566  71.155  1.00  0.00    -0.285 C  
BRANCH   3   4
HETATM    4  C   UNL     1     -11.456   7.906  71.284  1.00  0.00    -0.293 A  
HETATM    5  C   UNL     1     -13.361   9.219  72.025  1.00  0.00    -0.518 A  
HETATM    6  H   UNL     1     -14.230  11.599  72.185  1.00  0.00     0.000 HD 
HETATM    7  C   UNL     1     -10.843   9.081  70.826  1.00  0.00    -0.310 A  
HETATM    8  C   UNL     1     -12.724   7.987  71.878  1.00  0.00    -0.354 A  
HETATM    9  C   UNL     1     -11.482  10.316  70.972  1.00  0.00    -0.386 A  
HETATM   10  O   UNL     1     -13.377  11.560  71.769  1.00  0.00    -0.403 OA 
HETATM   11  C   UNL     1     -12.732  10.374  71.580  1.00  0.00    -0.455 A  
ENDBRANCH   3   4
ENDBRANCH   2   3
BRANCH   2  12
HETATM   12  N   UNL     1     -11.549   6.668  68.788  1.00  0.00    -0.546 NA 
HETATM   13  H   UNL     1     -11.895   7.547  69.171  1.00  0.00     0.000 HD 
BRANCH  12  14
HETATM   14  C   UNL     1     -10.524   6.921  67.770  1.00  0.00    -0.223 C  
BRANCH  14  15
HETATM   15  C   UNL     1      -9.703   8.201  68.076  1.00  0.00    -0.161 C  
HETATM   16  H   UNL     1      -7.805   8.671  68.349  1.00  0.00     0.000 HD 
HETATM   17  O   UNL     1      -8.307   7.887  68.162  1.00  0.00    -0.122 OA 
BRANCH  15  18
HETATM   18  C   UNL     1      -9.915   9.265  67.015  1.00  0.00    -0.286 A  
HETATM   19  O   UNL     1     -11.557  12.534  66.593  1.00  0.00    -0.340 OA 
HETATM   20  C   UNL     1     -10.855  11.394  66.329  1.00  0.00    -0.263 A  
HETATM   21  C   UNL     1     -10.627  10.436  67.318  1.00  0.00    -0.322 A  
HETATM   22  C   UNL     1     -10.378  11.219  65.036  1.00  0.00    -0.359 A  
HETATM   23  H   UNL     1     -11.712  13.185  65.920  1.00  0.00     0.000 HD 
HETATM   24  C   UNL     1      -9.667  10.066  64.734  1.00  0.00    -0.293 A  
HETATM   25  O   UNL     1      -9.178   9.835  63.483  1.00  0.00    -0.307 OA 
HETATM   26  C   UNL     1      -9.432   9.097  65.705  1.00  0.00    -0.322 A  
HETATM   27  H   UNL     1      -8.692   9.045  63.276  1.00  0.00     0.000 HD 
ENDBRANCH  15  18
ENDBRANCH  14  15
ENDBRANCH  12  14
ENDBRANCH   2  12
TORSDOF 6
ENDMDL
MODEL      200
REMARK 921   NORMALIZED FREE ENERGY PREDICTED BY IDOCK:   -5.17 KCAL/MOL
REMARK 922        TOTAL FREE ENERGY PREDICTED BY IDOCK:   -7.59 KCAL/MOL
REMARK 923 INTER-LIGAND FREE ENERGY PREDICTED BY IDOCK:   -6.92 KCAL/MOL
REMARK 924 INTRA-LIGAND FREE ENERGY PREDICTED BY IDOCK:   -0.67 KCAL/MOL
REMARK 927      BINDING AFFINITY PREDICTED BY RF-SCORE:    0.00 PKD
ROOT
HETATM    1  C   UNL     1     -10.235  11.396  68.044  1.00  0.00    -0.201 C  
HETATM    2  C   UNL     1     -11.219  11.501  69.218  1.00  0.00    -0.272 C  
ENDROOT
BRANCH   2   3
HETATM    3  C   UNL     1     -11.931  12.878  69.135  1.00  0.00    -0.308 C  
BRANCH   3   4
HETATM    4  C   UNL     1     -12.134  13.573  70.462  1.00  0.00    -0.409 A  
HETATM    5  C   UNL     1     -11.484  15.297  72.045  1.00  0.00    -0.500 A  
HETATM    6  H   UNL     1     -12.116  16.327  74.279  1.00  0.00     0.000 HD 
HETATM    7  C   UNL     1     -13.163  13.183  71.331  1.00  0.00    -0.290 A  
HETATM    8  C   UNL     1     -11.293  14.631  70.835  1.00  0.00    -0.140 A  
HETATM    9  C   UNL     1     -13.355  13.849  72.545  1.00  0.00    -0.656 A  
HETATM   10  O   UNL     1     -12.687  15.604  74.046  1.00  0.00    -0.545 OA 
HETATM   11  C   UNL     1     -12.518  14.908  72.886  1.00  0.00    -0.369 A  
ENDBRANCH   3   4
ENDBRANCH   2   3
BRANCH   2  12
HETATM   12  N   UNL     1     -12.192  10.398  69.219  1.00  0.00    -0.653 NA 
HETATM   13  H   UNL     1     -12.430  10.132  68.264  1.00  0.00     0.000 HD 
BRANCH  12  14
HETATM   14  C   UNL     1     -11.771   9.222  69.989  1.00  0.00     0.112 C  
BRANCH  14  15
HETATM   15  C   UNL     1     -11.492   9.569  71.475  1.00  0.00    -0.395 C  
HETATM   16  H   UNL     1     -12.536  10.168  73.041  1.00  0.00     0.000 HD 
HETATM   17  O   UNL     1     -12.707   9.956  72.131  1.00  0.00    -0.369 OA 
BRANCH  15  18
HETATM   18  C   UNL     1     -10.873   8.397  72.214  1.00  0.00    -0.422 A  
HETATM   19  O   UNL     1      -7.848   7.561  74.139  1.00  0.00    -0.125 OA 
HETATM   20  C   UNL     1      -9.053   7.451  73.510  1.00  0.00    -0.213 A  
HETATM   21  C   UNL     1      -9.640   8.542  72.867  1.00  0.00    -0.187 A  
HETATM   22  C   UNL     1      -9.676   6.210  73.530  1.00  0.00    -0.169 A  
HETATM   23  H   UNL     1      -7.449   6.818  74.577  1.00  0.00     0.000 HD 
HETATM   24  C   UNL     1     -10.900   6.063  72.891  1.00  0.00    -0.258 A  
HETATM   25  O   UNL     1     -11.558   4.869  72.871  1.00  0.00    -0.239 OA 
HETATM   26  C   UNL     1     -11.499   7.138  72.241  1.00  0.00    -0.309 A  
HETATM   27  H   UNL     1     -12.395   4.768  72.433  1.00  0.00     0.000 HD 
ENDBRANCH  15  18
ENDBRANCH  14  15
ENDBRANCH  12  14
ENDBRANCH   2  12
TORSDOF 6
ENDMDL
MODEL      201
REMARK 921   NORMALIZED FREE ENERGY PREDICTED BY IDOCK:   -5.16 KCAL/MOL
REMARK 922        TOTAL FREE ENERGY PREDICTED BY IDOCK:   -7.58 KCAL/MOL
REMARK 923 INTER-LIGAND FREE ENERGY PREDICTED BY IDOCK:   -6.62 KCAL/MOL
REMARK 924 INTRA-LIGAND FREE ENERGY PREDICTED BY IDOCK:   -0.96 KCAL/MOL
REMARK 927      BINDING AFFINITY PREDICTED BY RF-SCORE:    0.00 PKD
ROOT
HETATM    1  C   UNL     1     -12.996  10.380  71.212  1.00  0.00    -0.517 C  
HETATM    2  C   UNL     1     -11.802  10.879  70.387  1.00  0.00    -0.357 C  
ENDROOT
BRANCH   2   3
HETATM    3  C   UNL     1     -10.590   9.953  70.677  1.00  0.00    -0.341 C  
BRANCH   3   4
HETATM    4  C   UNL     1     -10.568   8.663  69.889  1.00  0.00    -0.227 A  
HETATM    5  C   UNL     1      -9.881   7.426  67.914  1.00  0.00    -0.177 A  
HETATM    6  H   UNL     1      -9.928   5.114  66.865  1.00  0.00     0.000 HD 
HETATM    7  C   UNL     1     -11.171   7.500  70.389  1.00  0.00    -0.270 A  
HETATM    8  C   UNL     1      -9.930   8.615  68.641  1.00  0.00    -0.197 A  
HETATM    9  C   UNL     1     -11.125   6.308  69.661  1.00  0.00    -0.479 A  
HETATM   10  O   UNL     1     -10.375   5.133  67.703  1.00  0.00    -0.169 OA 
HETATM   11  C   UNL     1     -10.470   6.280  68.433  1.00  0.00    -0.227 A  
ENDBRANCH   3   4
ENDBRANCH   2   3
BRANCH   2  12
HETATM   12  N   UNL     1     -12.107  10.920  68.948  1.00  0.00    -0.725 NA 
HETATM   13  H   UNL     1     -13.114  10.872  68.796  1.00  0.00     0.000 HD 
BRANCH  12  14
HETATM   14  C   UNL     1     -11.537  12.073  68.243  1.00  0.00    -0.334 C  
BRANCH  14  15
HETATM   15  C   UNL     1     -11.661  11.933  66.703  1.00  0.00    -0.264 C  
HETATM   16  H   UNL     1     -11.987  13.126  65.163  1.00  0.00     0.000 HD 
HETATM   17  O   UNL     1     -11.912  13.212  66.106  1.00  0.00    -0.386 OA 
BRANCH  15  18
HETATM   18  C   UNL     1     -10.407  11.332  66.096  1.00  0.00    -0.300 A  
HETATM   19  O   UNL     1      -6.806  11.018  66.801  1.00  0.00    -0.110 OA 
HETATM   20  C   UNL     1      -8.017  10.918  66.181  1.00  0.00    -0.155 A  
HETATM   21  C   UNL     1      -9.176  11.435  66.762  1.00  0.00    -0.185 A  
HETATM   22  C   UNL     1      -8.055  10.285  64.946  1.00  0.00    -0.154 A  
HETATM   23  H   UNL     1      -6.018  10.666  66.405  1.00  0.00     0.000 HD 
HETATM   24  C   UNL     1      -9.271  10.175  64.285  1.00  0.00    -0.266 A  
HETATM   25  O   UNL     1      -9.371   9.569  63.068  1.00  0.00    -0.495 OA 
HETATM   26  C   UNL     1     -10.437  10.687  64.846  1.00  0.00    -0.282 A  
HETATM   27  H   UNL     1     -10.204   9.494  62.616  1.00  0.00     0.000 HD 
ENDBRANCH  15  18
ENDBRANCH  14  15
ENDBRANCH  12  14
ENDBRANCH   2  12
TORSDOF 6
ENDMDL
MODEL      202
REMARK 921   NORMALIZED FREE ENERGY PREDICTED BY IDOCK:   -5.16 KCAL/MOL
REMARK 922        TOTAL FREE ENERGY PREDICTED BY IDOCK:   -7.58 KCAL/MOL
REMARK 923 INTER-LIGAND FREE ENERGY PREDICTED BY IDOCK:   -7.11 KCAL/MOL
REMARK 924 INTRA-LIGAND FREE ENERGY PREDICTED BY IDOCK:   -0.47 KCAL/MOL
REMARK 927      BINDING AFFINITY PREDICTED BY RF-SCORE:    0.00 PKD
ROOT
HETATM    1  C   UNL     1     -11.987  15.042  70.847  1.00  0.00    -0.374 C  
HETATM    2  C   UNL     1     -11.408  15.442  69.483  1.00  0.00    -0.301 C  
ENDROOT
BRANCH   2   3
HETATM    3  C   UNL     1     -10.396  16.598  69.704  1.00  0.00    -0.193 C  
BRANCH   3   4
HETATM    4  C   UNL     1     -10.229  17.533  68.528  1.00  0.00    -0.378 A  
HETATM    5  C   UNL     1     -10.627  18.048  66.188  1.00  0.00    -0.269 A  
HETATM    6  H   UNL     1     -10.274  19.845  64.429  1.00  0.00     0.000 HD 
HETATM    7  C   UNL     1      -9.562  18.759  68.669  1.00  0.00    -0.432 A  
HETATM    8  C   UNL     1     -10.753  17.184  67.275  1.00  0.00    -0.208 A  
HETATM    9  C   UNL     1      -9.434  19.625  67.579  1.00  0.00    -0.434 A  
HETATM   10  O   UNL     1      -9.902  20.091  65.268  1.00  0.00    -0.144 OA 
HETATM   11  C   UNL     1      -9.978  19.264  66.349  1.00  0.00    -0.405 A  
ENDBRANCH   3   4
ENDBRANCH   2   3
BRANCH   2  12
HETATM   12  N   UNL     1     -10.775  14.303  68.800  1.00  0.00    -0.249 NA 
HETATM   13  H   UNL     1      -9.976  13.965  69.337  1.00  0.00     0.000 HD 
BRANCH  12  14
HETATM   14  C   UNL     1     -11.690  13.199  68.493  1.00  0.00    -0.352 C  
BRANCH  14  15
HETATM   15  C   UNL     1     -10.956  11.833  68.441  1.00  0.00    -0.231 C  
HETATM   16  H   UNL     1      -9.088  11.192  68.469  1.00  0.00     0.000 HD 
HETATM   17  O   UNL     1      -9.537  12.029  68.501  1.00  0.00    -0.198 OA 
BRANCH  15  18
HETATM   18  C   UNL     1     -11.386  10.925  69.578  1.00  0.00    -0.351 A  
HETATM   19  O   UNL     1     -10.724   7.550  70.894  1.00  0.00    -0.229 OA 
HETATM   20  C   UNL     1     -11.248   8.801  70.742  1.00  0.00    -0.266 A  
HETATM   21  C   UNL     1     -10.819   9.649  69.720  1.00  0.00    -0.274 A  
HETATM   22  C   UNL     1     -12.228   9.199  71.642  1.00  0.00    -0.433 A  
HETATM   23  H   UNL     1     -11.015   6.973  71.590  1.00  0.00     0.000 HD 
HETATM   24  C   UNL     1     -12.787  10.462  71.509  1.00  0.00    -0.464 A  
HETATM   25  O   UNL     1     -13.757  10.908  72.357  1.00  0.00    -0.477 OA 
HETATM   26  C   UNL     1     -12.376  11.322  70.495  1.00  0.00    -0.446 A  
HETATM   27  H   UNL     1     -14.140  11.773  72.266  1.00  0.00     0.000 HD 
ENDBRANCH  15  18
ENDBRANCH  14  15
ENDBRANCH  12  14
ENDBRANCH   2  12
TORSDOF 6
ENDMDL
MODEL      203
REMARK 921   NORMALIZED FREE ENERGY PREDICTED BY IDOCK:   -5.14 KCAL/MOL
REMARK 922        TOTAL FREE ENERGY PREDICTED BY IDOCK:   -7.55 KCAL/MOL
REMARK 923 INTER-LIGAND FREE ENERGY PREDICTED BY IDOCK:   -6.46 KCAL/MOL
REMARK 924 INTRA-LIGAND FREE ENERGY PREDICTED BY IDOCK:   -1.09 KCAL/MOL
REMARK 927      BINDING AFFINITY PREDICTED BY RF-SCORE:    0.00 PKD
ROOT
HETATM    1  C   UNL     1      -9.783  18.117  68.481  1.00  0.00    -0.372 C  
HETATM    2  C   UNL     1      -9.703  16.586  68.565  1.00  0.00    -0.239 C  
ENDROOT
BRANCH   2   3
HETATM    3  C   UNL     1     -11.144  16.018  68.462  1.00  0.00    -0.347 C  
BRANCH   3   4
HETATM    4  C   UNL     1     -11.700  15.450  69.747  1.00  0.00    -0.352 A  
HETATM    5  C   UNL     1     -12.698  13.597  70.960  1.00  0.00    -0.408 A  
HETATM    6  H   UNL     1     -13.481  12.884  73.268  1.00  0.00     0.000 HD 
HETATM    7  C   UNL     1     -11.714  16.209  70.926  1.00  0.00    -0.370 A  
HETATM    8  C   UNL     1     -12.204  14.142  69.775  1.00  0.00    -0.397 A  
HETATM    9  C   UNL     1     -12.211  15.664  72.114  1.00  0.00    -0.528 A  
HETATM   10  O   UNL     1     -13.155  13.776  73.263  1.00  0.00    -0.450 OA 
HETATM   11  C   UNL     1     -12.689  14.357  72.121  1.00  0.00    -0.323 A  
ENDBRANCH   3   4
ENDBRANCH   2   3
BRANCH   2  12
HETATM   12  N   UNL     1      -8.833  16.023  67.521  1.00  0.00    -0.187 NA 
HETATM   13  H   UNL     1      -7.917  15.793  67.907  1.00  0.00     0.000 HD 
BRANCH  12  14
HETATM   14  C   UNL     1      -9.400  14.864  66.823  1.00  0.00    -0.250 C  
BRANCH  14  15
HETATM   15  C   UNL     1      -8.412  13.669  66.783  1.00  0.00     0.035 C  
HETATM   16  H   UNL     1      -6.699  13.179  67.634  1.00  0.00     0.000 HD 
HETATM   17  O   UNL     1      -7.303  13.911  67.659  1.00  0.00    -0.147 OA 
BRANCH  15  18
HETATM   18  C   UNL     1      -9.092  12.371  67.179  1.00  0.00    -0.199 A  
HETATM   19  O   UNL     1     -10.123   9.164  65.693  1.00  0.00    -0.416 OA 
HETATM   20  C   UNL     1      -9.928  10.170  66.593  1.00  0.00    -0.216 A  
HETATM   21  C   UNL     1      -9.265  11.346  66.237  1.00  0.00    -0.220 A  
HETATM   22  C   UNL     1     -10.416   9.983  67.880  1.00  0.00    -0.276 A  
HETATM   23  H   UNL     1     -10.573   8.364  65.936  1.00  0.00     0.000 HD 
HETATM   24  C   UNL     1     -10.242  10.992  68.817  1.00  0.00    -0.198 A  
HETATM   25  O   UNL     1     -10.703  10.870  70.094  1.00  0.00    -0.463 OA 
HETATM   26  C   UNL     1      -9.587  12.173  68.480  1.00  0.00    -0.137 A  
HETATM   27  H   UNL     1     -10.584  11.561  70.735  1.00  0.00     0.000 HD 
ENDBRANCH  15  18
ENDBRANCH  14  15
ENDBRANCH  12  14
ENDBRANCH   2  12
TORSDOF 6
ENDMDL
MODEL      204
REMARK 921   NORMALIZED FREE ENERGY PREDICTED BY IDOCK:   -5.12 KCAL/MOL
REMARK 922        TOTAL FREE ENERGY PREDICTED BY IDOCK:   -7.52 KCAL/MOL
REMARK 923 INTER-LIGAND FREE ENERGY PREDICTED BY IDOCK:   -7.23 KCAL/MOL
REMARK 924 INTRA-LIGAND FREE ENERGY PREDICTED BY IDOCK:   -0.29 KCAL/MOL
REMARK 927      BINDING AFFINITY PREDICTED BY RF-SCORE:    0.00 PKD
ROOT
HETATM    1  C   UNL     1      -7.700  12.449  68.265  1.00  0.00    -0.140 C  
HETATM    2  C   UNL     1      -8.999  13.175  67.889  1.00  0.00    -0.200 C  
ENDROOT
BRANCH   2   3
HETATM    3  C   UNL     1      -9.477  12.635  66.514  1.00  0.00    -0.247 C  
BRANCH   3   4
HETATM    4  C   UNL     1      -9.306  11.146  66.318  1.00  0.00    -0.216 A  
HETATM    5  C   UNL     1      -8.004   9.281  65.466  1.00  0.00    -0.104 A  
HETATM    6  H   UNL     1      -7.938   6.744  65.368  1.00  0.00     0.000 HD 
HETATM    7  C   UNL     1     -10.249  10.238  66.821  1.00  0.00    -0.286 A  
HETATM    8  C   UNL     1      -8.186  10.653  65.633  1.00  0.00    -0.154 A  
HETATM    9  C   UNL     1     -10.068   8.862  66.653  1.00  0.00    -0.357 A  
HETATM   10  O   UNL     1      -8.708   7.062  65.823  1.00  0.00    -0.148 OA 
HETATM   11  C   UNL     1      -8.940   8.396  65.984  1.00  0.00    -0.184 A  
ENDBRANCH   3   4
ENDBRANCH   2   3
BRANCH   2  12
HETATM   12  N   UNL     1     -10.039  13.007  68.916  1.00  0.00    -0.438 NA 
HETATM   13  H   UNL     1      -9.625  13.021  69.848  1.00  0.00     0.000 HD 
BRANCH  12  14
HETATM   14  C   UNL     1     -11.136  13.977  68.828  1.00  0.00    -0.264 C  
BRANCH  14  15
HETATM   15  C   UNL     1     -10.937  15.169  69.800  1.00  0.00    -0.280 C  
HETATM   16  H   UNL     1     -11.158  17.131  69.747  1.00  0.00     0.000 HD 
HETATM   17  O   UNL     1     -11.280  16.401  69.152  1.00  0.00    -0.314 OA 
BRANCH  15  18
HETATM   18  C   UNL     1     -11.775  15.012  71.055  1.00  0.00    -0.379 A  
HETATM   19  O   UNL     1     -12.479  16.771  74.212  1.00  0.00    -0.645 OA 
HETATM   20  C   UNL     1     -12.494  15.833  73.223  1.00  0.00    -0.506 A  
HETATM   21  C   UNL     1     -11.754  16.001  72.051  1.00  0.00    -0.588 A  
HETATM   22  C   UNL     1     -13.271  14.700  73.425  1.00  0.00    -0.244 A  
HETATM   23  H   UNL     1     -12.983  16.657  75.009  1.00  0.00     0.000 HD 
HETATM   24  C   UNL     1     -13.300  13.722  72.440  1.00  0.00    -0.535 A  
HETATM   25  O   UNL     1     -14.040  12.585  72.582  1.00  0.00    -0.556 OA 
HETATM   26  C   UNL     1     -12.567  13.869  71.266  1.00  0.00    -0.450 A  
HETATM   27  H   UNL     1     -14.059  11.916  71.908  1.00  0.00     0.000 HD 
ENDBRANCH  15  18
ENDBRANCH  14  15
ENDBRANCH  12  14
ENDBRANCH   2  12
TORSDOF 6
ENDMDL
MODEL      205
REMARK 921   NORMALIZED FREE ENERGY PREDICTED BY IDOCK:   -5.12 KCAL/MOL
REMARK 922        TOTAL FREE ENERGY PREDICTED BY IDOCK:   -7.52 KCAL/MOL
REMARK 923 INTER-LIGAND FREE ENERGY PREDICTED BY IDOCK:   -7.00 KCAL/MOL
REMARK 924 INTRA-LIGAND FREE ENERGY PREDICTED BY IDOCK:   -0.52 KCAL/MOL
REMARK 927      BINDING AFFINITY PREDICTED BY RF-SCORE:    0.00 PKD
ROOT
HETATM    1  C   UNL     1     -11.029  14.419  64.689  1.00  0.00    -0.367 C  
HETATM    2  C   UNL     1      -9.892  14.736  65.671  1.00  0.00    -0.327 C  
ENDROOT
BRANCH   2   3
HETATM    3  C   UNL     1     -10.513  15.359  66.950  1.00  0.00    -0.295 C  
BRANCH   3   4
HETATM    4  C   UNL     1     -10.300  16.847  67.104  1.00  0.00    -0.304 A  
HETATM    5  C   UNL     1      -9.499  18.723  68.424  1.00  0.00    -0.391 A  
HETATM    6  H   UNL     1      -9.183  21.242  68.366  1.00  0.00     0.000 HD 
HETATM    7  C   UNL     1     -10.661  17.739  66.084  1.00  0.00    -0.235 A  
HETATM    8  C   UNL     1      -9.724  17.355  68.278  1.00  0.00    -0.299 A  
HETATM    9  C   UNL     1     -10.437  19.111  66.230  1.00  0.00    -0.551 A  
HETATM   10  O   UNL     1      -9.585  20.916  67.569  1.00  0.00    -0.402 OA 
HETATM   11  C   UNL     1      -9.848  19.589  67.397  1.00  0.00    -0.358 A  
ENDBRANCH   3   4
ENDBRANCH   2   3
BRANCH   2  12
HETATM   12  N   UNL     1      -9.095  13.543  65.993  1.00  0.00    -0.454 NA 
HETATM   13  H   UNL     1      -8.704  13.618  66.932  1.00  0.00     0.000 HD 
BRANCH  12  14
HETATM   14  C   UNL     1      -9.817  12.275  65.839  1.00  0.00    -0.251 C  
BRANCH  14  15
HETATM   15  C   UNL     1     -10.464  11.809  67.170  1.00  0.00    -0.220 C  
HETATM   16  H   UNL     1     -12.268  11.792  67.973  1.00  0.00     0.000 HD 
HETATM   17  O   UNL     1     -11.872  12.078  67.159  1.00  0.00    -0.565 OA 
BRANCH  15  18
HETATM   18  C   UNL     1     -10.237  10.328  67.411  1.00  0.00    -0.265 A  
HETATM   19  O   UNL     1     -10.442   7.853  70.129  1.00  0.00    -0.221 OA 
HETATM   20  C   UNL     1     -10.230   8.417  68.906  1.00  0.00    -0.210 A  
HETATM   21  C   UNL     1     -10.479   9.771  68.676  1.00  0.00    -0.233 A  
HETATM   22  C   UNL     1      -9.751   7.593  67.895  1.00  0.00    -0.174 A  
HETATM   23  H   UNL     1     -10.273   6.932  70.285  1.00  0.00     0.000 HD 
HETATM   24  C   UNL     1      -9.516   8.139  66.640  1.00  0.00    -0.213 A  
HETATM   25  O   UNL     1      -9.041   7.384  65.609  1.00  0.00    -0.375 OA 
HETATM   26  C   UNL     1      -9.755   9.487  66.392  1.00  0.00    -0.295 A  
HETATM   27  H   UNL     1      -8.880   7.758  64.751  1.00  0.00     0.000 HD 
ENDBRANCH  15  18
ENDBRANCH  14  15
ENDBRANCH  12  14
ENDBRANCH   2  12
TORSDOF 6
ENDMDL
MODEL      206
REMARK 921   NORMALIZED FREE ENERGY PREDICTED BY IDOCK:   -5.10 KCAL/MOL
REMARK 922        TOTAL FREE ENERGY PREDICTED BY IDOCK:   -7.50 KCAL/MOL
REMARK 923 INTER-LIGAND FREE ENERGY PREDICTED BY IDOCK:   -6.90 KCAL/MOL
REMARK 924 INTRA-LIGAND FREE ENERGY PREDICTED BY IDOCK:   -0.61 KCAL/MOL
REMARK 927      BINDING AFFINITY PREDICTED BY RF-SCORE:    0.00 PKD
ROOT
HETATM    1  C   UNL     1     -10.756  19.303  67.337  1.00  0.00    -0.594 C  
HETATM    2  C   UNL     1     -10.518  17.791  67.221  1.00  0.00    -0.353 C  
ENDROOT
BRANCH   2   3
HETATM    3  C   UNL     1      -9.127  17.567  66.569  1.00  0.00    -0.284 C  
BRANCH   3   4
HETATM    4  C   UNL     1      -8.217  16.619  67.316  1.00  0.00    -0.197 A  
HETATM    5  C   UNL     1      -6.556  16.238  69.049  1.00  0.00    -0.169 A  
HETATM    6  H   UNL     1      -5.209  14.410  70.185  1.00  0.00     0.000 HD 
HETATM    7  C   UNL     1      -8.196  15.249  67.017  1.00  0.00    -0.267 A  
HETATM    8  C   UNL     1      -7.383  17.105  68.334  1.00  0.00    -0.220 A  
HETATM    9  C   UNL     1      -7.366  14.380  67.731  1.00  0.00    -0.186 A  
HETATM   10  O   UNL     1      -5.758  14.067  69.490  1.00  0.00    -0.085 OA 
HETATM   11  C   UNL     1      -6.561  14.883  68.749  1.00  0.00    -0.087 A  
ENDBRANCH   3   4
ENDBRANCH   2   3
BRANCH   2  12
HETATM   12  N   UNL     1     -10.608  17.119  68.526  1.00  0.00    -0.362 NA 
HETATM   13  H   UNL     1     -10.733  17.804  69.272  1.00  0.00     0.000 HD 
BRANCH  12  14
HETATM   14  C   UNL     1     -11.645  16.084  68.603  1.00  0.00    -0.343 C  
BRANCH  14  15
HETATM   15  C   UNL     1     -11.637  15.352  69.970  1.00  0.00    -0.321 C  
HETATM   16  H   UNL     1     -12.662  15.427  71.657  1.00  0.00     0.000 HD 
HETATM   17  O   UNL     1     -12.667  15.875  70.819  1.00  0.00    -0.409 OA 
BRANCH  15  18
HETATM   18  C   UNL     1     -11.834  13.857  69.803  1.00  0.00    -0.390 A  
HETATM   19  O   UNL     1     -11.762  11.282  67.172  1.00  0.00    -0.533 OA 
HETATM   20  C   UNL     1     -11.897  11.888  68.387  1.00  0.00    -0.289 A  
HETATM   21  C   UNL     1     -11.674  13.257  68.545  1.00  0.00    -0.388 A  
HETATM   22  C   UNL     1     -12.268  11.092  69.463  1.00  0.00    -0.347 A  
HETATM   23  H   UNL     1     -11.914  10.351  67.065  1.00  0.00     0.000 HD 
HETATM   24  C   UNL     1     -12.423  11.681  70.711  1.00  0.00    -0.330 A  
HETATM   25  O   UNL     1     -12.791  10.954  71.804  1.00  0.00    -0.431 OA 
HETATM   26  C   UNL     1     -12.208  13.044  70.888  1.00  0.00    -0.310 A  
HETATM   27  H   UNL     1     -12.897  11.356  72.658  1.00  0.00     0.000 HD 
ENDBRANCH  15  18
ENDBRANCH  14  15
ENDBRANCH  12  14
ENDBRANCH   2  12
TORSDOF 6
ENDMDL
MODEL      207
REMARK 921   NORMALIZED FREE ENERGY PREDICTED BY IDOCK:   -5.07 KCAL/MOL
REMARK 922        TOTAL FREE ENERGY PREDICTED BY IDOCK:   -7.45 KCAL/MOL
REMARK 923 INTER-LIGAND FREE ENERGY PREDICTED BY IDOCK:   -5.95 KCAL/MOL
REMARK 924 INTRA-LIGAND FREE ENERGY PREDICTED BY IDOCK:   -1.50 KCAL/MOL
REMARK 927      BINDING AFFINITY PREDICTED BY RF-SCORE:    0.00 PKD
ROOT
HETATM    1  C   UNL     1      -8.744  15.897  67.275  1.00  0.00    -0.206 C  
HETATM    2  C   UNL     1     -10.235  16.162  67.022  1.00  0.00    -0.285 C  
ENDROOT
BRANCH   2   3
HETATM    3  C   UNL     1     -10.474  16.168  65.488  1.00  0.00    -0.407 C  
BRANCH   3   4
HETATM    4  C   UNL     1     -10.880  14.836  64.900  1.00  0.00    -0.433 A  
HETATM    5  C   UNL     1     -12.611  13.374  64.024  1.00  0.00    -0.192 A  
HETATM    6  H   UNL     1     -12.983  11.093  62.971  1.00  0.00     0.000 HD 
HETATM    7  C   UNL     1      -9.930  13.837  64.647  1.00  0.00    -0.032 A  
HETATM    8  C   UNL     1     -12.226  14.589  64.589  1.00  0.00    -0.474 A  
HETATM    9  C   UNL     1     -10.316  12.619  64.081  1.00  0.00    -0.412 A  
HETATM   10  O   UNL     1     -12.070  11.240  63.186  1.00  0.00     0.029 OA 
HETATM   11  C   UNL     1     -11.654  12.403  63.766  1.00  0.00    -0.473 A  
ENDBRANCH   3   4
ENDBRANCH   2   3
BRANCH   2  12
HETATM   12  N   UNL     1     -11.091  15.169  67.689  1.00  0.00    -0.310 NA 
HETATM   13  H   UNL     1     -11.659  14.671  67.005  1.00  0.00     0.000 HD 
BRANCH  12  14
HETATM   14  C   UNL     1     -10.364  14.220  68.539  1.00  0.00    -0.244 C  
BRANCH  14  15
HETATM   15  C   UNL     1     -10.949  12.787  68.443  1.00  0.00    -0.254 C  
HETATM   16  H   UNL     1     -12.593  11.939  67.751  1.00  0.00     0.000 HD 
HETATM   17  O   UNL     1     -12.235  12.817  67.810  1.00  0.00    -0.289 OA 
BRANCH  15  18
HETATM   18  C   UNL     1     -10.030  11.860  67.668  1.00  0.00    -0.197 A  
HETATM   19  O   UNL     1      -6.643  11.813  66.224  1.00  0.00    -0.362 OA 
HETATM   20  C   UNL     1      -7.904  11.432  66.580  1.00  0.00    -0.137 A  
HETATM   21  C   UNL     1      -8.732  12.271  67.329  1.00  0.00    -0.188 A  
HETATM   22  C   UNL     1      -8.336  10.179  66.167  1.00  0.00    -0.131 A  
HETATM   23  H   UNL     1      -6.080  11.242  65.715  1.00  0.00     0.000 HD 
HETATM   24  C   UNL     1      -9.618   9.766  66.506  1.00  0.00    -0.194 A  
HETATM   25  O   UNL     1     -10.101   8.550  66.125  1.00  0.00    -0.456 OA 
HETATM   26  C   UNL     1     -10.459  10.589  67.249  1.00  0.00    -0.300 A  
HETATM   27  H   UNL     1     -10.978   8.267  66.357  1.00  0.00     0.000 HD 
ENDBRANCH  15  18
ENDBRANCH  14  15
ENDBRANCH  12  14
ENDBRANCH   2  12
TORSDOF 6
ENDMDL
MODEL      208
REMARK 921   NORMALIZED FREE ENERGY PREDICTED BY IDOCK:   -5.06 KCAL/MOL
REMARK 922        TOTAL FREE ENERGY PREDICTED BY IDOCK:   -7.45 KCAL/MOL
REMARK 923 INTER-LIGAND FREE ENERGY PREDICTED BY IDOCK:   -6.92 KCAL/MOL
REMARK 924 INTRA-LIGAND FREE ENERGY PREDICTED BY IDOCK:   -0.53 KCAL/MOL
REMARK 927      BINDING AFFINITY PREDICTED BY RF-SCORE:    0.00 PKD
ROOT
HETATM    1  C   UNL     1     -11.820  14.552  69.937  1.00  0.00    -0.373 C  
HETATM    2  C   UNL     1     -12.001  13.708  68.668  1.00  0.00    -0.360 C  
ENDROOT
BRANCH   2   3
HETATM    3  C   UNL     1     -11.918  14.654  67.439  1.00  0.00    -0.309 C  
BRANCH   3   4
HETATM    4  C   UNL     1     -10.730  15.588  67.432  1.00  0.00    -0.301 A  
HETATM    5  C   UNL     1      -8.435  16.052  66.784  1.00  0.00    -0.295 A  
HETATM    6  H   UNL     1      -6.646  17.853  66.847  1.00  0.00     0.000 HD 
HETATM    7  C   UNL     1     -10.805  16.858  68.021  1.00  0.00    -0.338 A  
HETATM    8  C   UNL     1      -9.531  15.192  66.820  1.00  0.00    -0.260 A  
HETATM    9  C   UNL     1      -9.705  17.721  67.987  1.00  0.00    -0.304 A  
HETATM   10  O   UNL     1      -7.446  18.132  67.277  1.00  0.00    -0.207 OA 
HETATM   11  C   UNL     1      -8.532  17.312  67.359  1.00  0.00    -0.200 A  
ENDBRANCH   3   4
ENDBRANCH   2   3
BRANCH   2  12
HETATM   12  N   UNL     1     -11.004  12.631  68.578  1.00  0.00    -0.249 NA 
HETATM   13  H   UNL     1     -10.618  12.425  69.499  1.00  0.00     0.000 HD 
BRANCH  12  14
HETATM   14  C   UNL     1     -11.497  11.404  67.943  1.00  0.00    -0.291 C  
BRANCH  14  15
HETATM   15  C   UNL     1     -10.339  10.510  67.426  1.00  0.00    -0.224 C  
HETATM   16  H   UNL     1      -9.879   8.589  67.436  1.00  0.00     0.000 HD 
HETATM   17  O   UNL     1     -10.588   9.136  67.752  1.00  0.00    -0.248 OA 
BRANCH  15  18
HETATM   18  C   UNL     1     -10.156  10.646  65.926  1.00  0.00    -0.321 A  
HETATM   19  O   UNL     1     -11.409  12.655  63.106  1.00  0.00    -0.743 OA 
HETATM   20  C   UNL     1     -10.723  11.721  63.826  1.00  0.00    -0.419 A  
HETATM   21  C   UNL     1     -10.862  11.626  65.212  1.00  0.00    -0.340 A  
HETATM   22  C   UNL     1      -9.883  10.863  63.128  1.00  0.00    -0.392 A  
HETATM   23  H   UNL     1     -11.314  12.719  62.163  1.00  0.00     0.000 HD 
HETATM   24  C   UNL     1      -9.178   9.895  63.832  1.00  0.00    -0.248 A  
HETATM   25  O   UNL     1      -8.343   9.021  63.203  1.00  0.00    -0.180 OA 
HETATM   26  C   UNL     1      -9.306   9.783  65.213  1.00  0.00    -0.315 A  
HETATM   27  H   UNL     1      -7.861   8.358  63.684  1.00  0.00     0.000 HD 
ENDBRANCH  15  18
ENDBRANCH  14  15
ENDBRANCH  12  14
ENDBRANCH   2  12
TORSDOF 6
ENDMDL
MODEL      209
REMARK 921   NORMALIZED FREE ENERGY PREDICTED BY IDOCK:   -5.03 KCAL/MOL
REMARK 922        TOTAL FREE ENERGY PREDICTED BY IDOCK:   -7.40 KCAL/MOL
REMARK 923 INTER-LIGAND FREE ENERGY PREDICTED BY IDOCK:   -6.44 KCAL/MOL
REMARK 924 INTRA-LIGAND FREE ENERGY PREDICTED BY IDOCK:   -0.96 KCAL/MOL
REMARK 927      BINDING AFFINITY PREDICTED BY RF-SCORE:    0.00 PKD
ROOT
HETATM    1  C   UNL     1      -9.220  11.542  67.123  1.00  0.00    -0.171 C  
HETATM    2  C   UNL     1      -9.820  10.725  68.275  1.00  0.00    -0.166 C  
ENDROOT
BRANCH   2   3
HETATM    3  C   UNL     1     -11.361  10.915  68.255  1.00  0.00    -0.374 C  
BRANCH   3   4
HETATM    4  C   UNL     1     -11.933  11.614  69.467  1.00  0.00    -0.383 A  
HETATM    5  C   UNL     1     -12.423  13.672  70.661  1.00  0.00    -0.417 A  
HETATM    6  H   UNL     1     -13.538  14.572  72.757  1.00  0.00     0.000 HD 
HETATM    7  C   UNL     1     -12.534  10.887  70.505  1.00  0.00    -0.438 A  
HETATM    8  C   UNL     1     -11.877  13.012  69.560  1.00  0.00    -0.385 A  
HETATM    9  C   UNL     1     -13.079  11.548  71.609  1.00  0.00    -0.478 A  
HETATM   10  O   UNL     1     -13.573  13.624  72.715  1.00  0.00    -0.672 OA 
HETATM   11  C   UNL     1     -13.027  12.937  71.671  1.00  0.00    -0.313 A  
ENDBRANCH   3   4
ENDBRANCH   2   3
BRANCH   2  12
HETATM   12  N   UNL     1      -9.459   9.301  68.185  1.00  0.00    -0.137 NA 
HETATM   13  H   UNL     1      -9.682   8.935  67.260  1.00  0.00     0.000 HD 
BRANCH  12  14
HETATM   14  C   UNL     1      -8.062   9.010  68.528  1.00  0.00    -0.107 C  
BRANCH  14  15
HETATM   15  C   UNL     1      -7.892   8.664  70.030  1.00  0.00    -0.103 C  
HETATM   16  H   UNL     1      -7.687   9.652  71.728  1.00  0.00     0.000 HD 
HETATM   17  O   UNL     1      -7.791   9.864  70.808  1.00  0.00    -0.275 OA 
BRANCH  15  18
HETATM   18  C   UNL     1      -9.050   7.828  70.544  1.00  0.00    -0.154 A  
HETATM   19  O   UNL     1     -10.510   4.475  70.120  1.00  0.00    -0.040 OA 
HETATM   20  C   UNL     1     -10.311   5.755  70.545  1.00  0.00    -0.247 A  
HETATM   21  C   UNL     1      -9.222   6.508  70.102  1.00  0.00    -0.158 A  
HETATM   22  C   UNL     1     -11.237   6.287  71.434  1.00  0.00    -0.349 A  
HETATM   23  H   UNL     1     -11.251   3.963  70.421  1.00  0.00     0.000 HD 
HETATM   24  C   UNL     1     -11.067   7.591  71.879  1.00  0.00    -0.239 A  
HETATM   25  O   UNL     1     -11.944   8.170  72.748  1.00  0.00    -0.559 OA 
HETATM   26  C   UNL     1      -9.989   8.358  71.447  1.00  0.00    -0.275 A  
HETATM   27  H   UNL     1     -11.828   9.063  73.052  1.00  0.00     0.000 HD 
ENDBRANCH  15  18
ENDBRANCH  14  15
ENDBRANCH  12  14
ENDBRANCH   2  12
TORSDOF 6
ENDMDL
MODEL      210
REMARK 921   NORMALIZED FREE ENERGY PREDICTED BY IDOCK:   -5.02 KCAL/MOL
REMARK 922        TOTAL FREE ENERGY PREDICTED BY IDOCK:   -7.39 KCAL/MOL
REMARK 923 INTER-LIGAND FREE ENERGY PREDICTED BY IDOCK:   -6.54 KCAL/MOL
REMARK 924 INTRA-LIGAND FREE ENERGY PREDICTED BY IDOCK:   -0.85 KCAL/MOL
REMARK 927      BINDING AFFINITY PREDICTED BY RF-SCORE:    0.00 PKD
ROOT
HETATM    1  C   UNL     1     -11.071  14.483  68.191  1.00  0.00    -0.280 C  
HETATM    2  C   UNL     1     -11.420  15.222  66.891  1.00  0.00    -0.143 C  
ENDROOT
BRANCH   2   3
HETATM    3  C   UNL     1     -10.095  15.591  66.172  1.00  0.00    -0.329 C  
BRANCH   3   4
HETATM    4  C   UNL     1      -9.577  16.981  66.461  1.00  0.00    -0.295 A  
HETATM    5  C   UNL     1      -7.716  18.463  66.955  1.00  0.00    -0.240 A  
HETATM    6  H   UNL     1      -7.123  20.905  67.321  1.00  0.00     0.000 HD 
HETATM    7  C   UNL     1     -10.441  18.086  66.477  1.00  0.00    -0.341 A  
HETATM    8  C   UNL     1      -8.211  17.182  66.710  1.00  0.00    -0.274 A  
HETATM    9  C   UNL     1      -9.945  19.369  66.724  1.00  0.00    -0.476 A  
HETATM   10  O   UNL     1      -8.053  20.784  67.167  1.00  0.00    -0.303 OA 
HETATM   11  C   UNL     1      -8.583  19.546  66.951  1.00  0.00    -0.306 A  
ENDBRANCH   3   4
ENDBRANCH   2   3
BRANCH   2  12
HETATM   12  N   UNL     1     -12.292  14.419  66.021  1.00  0.00    -0.365 NA 
HETATM   13  H   UNL     1     -13.139  14.938  65.788  1.00  0.00     0.000 HD 
BRANCH  12  14
HETATM   14  C   UNL     1     -11.641  13.928  64.801  1.00  0.00    -0.374 C  
BRANCH  14  15
HETATM   15  C   UNL     1     -11.829  12.400  64.615  1.00  0.00    -0.380 C  
HETATM   16  H   UNL     1     -12.443  11.181  63.187  1.00  0.00     0.000 HD 
HETATM   17  O   UNL     1     -12.327  12.117  63.301  1.00  0.00    -0.534 OA 
BRANCH  15  18
HETATM   18  C   UNL     1     -10.530  11.647  64.833  1.00  0.00    -0.339 A  
HETATM   19  O   UNL     1      -7.412  11.912  66.774  1.00  0.00    -0.294 OA 
HETATM   20  C   UNL     1      -8.363  11.457  65.909  1.00  0.00     0.040 A  
HETATM   21  C   UNL     1      -9.575  12.129  65.742  1.00  0.00    -0.209 A  
HETATM   22  C   UNL     1      -8.080  10.300  65.195  1.00  0.00    -0.151 A  
HETATM   23  H   UNL     1      -6.588  11.455  66.888  1.00  0.00     0.000 HD 
HETATM   24  C   UNL     1      -9.024   9.816  64.299  1.00  0.00    -0.237 A  
HETATM   25  O   UNL     1      -8.802   8.688  63.566  1.00  0.00    -0.426 OA 
HETATM   26  C   UNL     1     -10.237  10.474  64.116  1.00  0.00    -0.287 A  
HETATM   27  H   UNL     1      -9.448   8.357  62.953  1.00  0.00     0.000 HD 
ENDBRANCH  15  18
ENDBRANCH  14  15
ENDBRANCH  12  14
ENDBRANCH   2  12
TORSDOF 6
ENDMDL
MODEL      211
REMARK 921   NORMALIZED FREE ENERGY PREDICTED BY IDOCK:   -5.01 KCAL/MOL
REMARK 922        TOTAL FREE ENERGY PREDICTED BY IDOCK:   -7.38 KCAL/MOL
REMARK 923 INTER-LIGAND FREE ENERGY PREDICTED BY IDOCK:   -6.62 KCAL/MOL
REMARK 924 INTRA-LIGAND FREE ENERGY PREDICTED BY IDOCK:   -0.76 KCAL/MOL
REMARK 927      BINDING AFFINITY PREDICTED BY RF-SCORE:    0.00 PKD
ROOT
HETATM    1  C   UNL     1     -11.050   5.464  72.460  1.00  0.00    -0.310 C  
HETATM    2  C   UNL     1     -11.794   6.684  71.901  1.00  0.00    -0.332 C  
ENDROOT
BRANCH   2   3
HETATM    3  C   UNL     1     -11.046   7.964  72.363  1.00  0.00    -0.392 C  
BRANCH   3   4
HETATM    4  C   UNL     1     -11.395   9.219  71.597  1.00  0.00    -0.467 A  
HETATM    5  C   UNL     1     -12.914  11.071  71.191  1.00  0.00    -0.421 A  
HETATM    6  H   UNL     1     -13.193  13.189  69.817  1.00  0.00     0.000 HD 
HETATM    7  C   UNL     1     -10.536   9.728  70.613  1.00  0.00    -0.358 A  
HETATM    8  C   UNL     1     -12.591   9.899  71.873  1.00  0.00    -0.471 A  
HETATM    9  C   UNL     1     -10.860  10.903  69.928  1.00  0.00    -0.205 A  
HETATM   10  O   UNL     1     -12.385  12.734  69.609  1.00  0.00    -0.154 OA 
HETATM   11  C   UNL     1     -12.044  11.569  70.232  1.00  0.00    -0.359 A  
ENDBRANCH   3   4
ENDBRANCH   2   3
BRANCH   2  12
HETATM   12  N   UNL     1     -11.908   6.635  70.435  1.00  0.00    -0.508 NA 
HETATM   13  H   UNL     1     -11.824   7.571  70.039  1.00  0.00     0.000 HD 
BRANCH  12  14
HETATM   14  C   UNL     1     -10.963   5.719  69.787  1.00  0.00    -0.327 C  
BRANCH  14  15
HETATM   15  C   UNL     1      -9.849   6.478  69.021  1.00  0.00    -0.143 C  
HETATM   16  H   UNL     1      -7.951   6.943  69.312  1.00  0.00     0.000 HD 
HETATM   17  O   UNL     1      -8.634   6.478  69.782  1.00  0.00    -0.133 OA 
BRANCH  15  18
HETATM   18  C   UNL     1      -9.589   5.861  67.659  1.00  0.00    -0.113 A  
HETATM   19  O   UNL     1      -6.823   5.340  65.284  1.00  0.00    -0.056 OA 
HETATM   20  C   UNL     1      -8.067   5.335  65.843  1.00  0.00    -0.110 A  
HETATM   21  C   UNL     1      -8.295   5.865  67.114  1.00  0.00    -0.105 A  
HETATM   22  C   UNL     1      -9.103   4.784  65.099  1.00  0.00    -0.155 A  
HETATM   23  H   UNL     1      -6.668   4.978  64.420  1.00  0.00     0.000 HD 
HETATM   24  C   UNL     1     -10.383   4.772  65.637  1.00  0.00    -0.189 A  
HETATM   25  O   UNL     1     -11.440   4.250  64.953  1.00  0.00    -1.029 OA 
HETATM   26  C   UNL     1     -10.631   5.299  66.900  1.00  0.00    -0.283 A  
HETATM   27  H   UNL     1     -12.317   4.243  65.321  1.00  0.00     0.000 HD 
ENDBRANCH  15  18
ENDBRANCH  14  15
ENDBRANCH  12  14
ENDBRANCH   2  12
TORSDOF 6
ENDMDL
MODEL      212
REMARK 921   NORMALIZED FREE ENERGY PREDICTED BY IDOCK:   -5.01 KCAL/MOL
REMARK 922        TOTAL FREE ENERGY PREDICTED BY IDOCK:   -7.38 KCAL/MOL
REMARK 923 INTER-LIGAND FREE ENERGY PREDICTED BY IDOCK:   -6.06 KCAL/MOL
REMARK 924 INTRA-LIGAND FREE ENERGY PREDICTED BY IDOCK:   -1.32 KCAL/MOL
REMARK 927      BINDING AFFINITY PREDICTED BY RF-SCORE:    0.00 PKD
ROOT
HETATM    1  C   UNL     1     -12.865  10.921  70.585  1.00  0.00    -0.340 C  
HETATM    2  C   UNL     1     -11.727  11.063  69.564  1.00  0.00    -0.329 C  
ENDROOT
BRANCH   2   3
HETATM    3  C   UNL     1     -11.786  12.494  68.966  1.00  0.00    -0.368 C  
BRANCH   3   4
HETATM    4  C   UNL     1     -11.685  12.561  67.459  1.00  0.00    -0.439 A  
HETATM    5  C   UNL     1     -10.858  11.632  65.372  1.00  0.00    -0.336 A  
HETATM    6  H   UNL     1     -10.940  11.944  62.852  1.00  0.00     0.000 HD 
HETATM    7  C   UNL     1     -12.334  13.571  66.735  1.00  0.00    -0.326 A  
HETATM    8  C   UNL     1     -10.940  11.597  66.763  1.00  0.00    -0.341 A  
HETATM    9  C   UNL     1     -12.251  13.608  65.340  1.00  0.00    -0.474 A  
HETATM   10  O   UNL     1     -11.438  12.611  63.309  1.00  0.00    -0.483 OA 
HETATM   11  C   UNL     1     -11.521  12.630  64.670  1.00  0.00    -0.330 A  
ENDBRANCH   3   4
ENDBRANCH   2   3
BRANCH   2  12
HETATM   12  N   UNL     1     -10.412  10.791  70.165  1.00  0.00    -0.400 NA 
HETATM   13  H   UNL     1     -10.401  11.080  71.143  1.00  0.00     0.000 HD 
BRANCH  12  14
HETATM   14  C   UNL     1      -9.967   9.399  70.037  1.00  0.00    -0.221 C  
BRANCH  14  15
HETATM   15  C   UNL     1      -8.448   9.300  69.736  1.00  0.00    -0.149 C  
HETATM   16  H   UNL     1      -6.985   8.020  70.084  1.00  0.00     0.000 HD 
HETATM   17  O   UNL     1      -7.915   8.081  70.269  1.00  0.00    -0.099 OA 
BRANCH  15  18
HETATM   18  C   UNL     1      -8.170   9.361  68.245  1.00  0.00    -0.118 A  
HETATM   19  O   UNL     1      -6.344  11.422  65.801  1.00  0.00    -0.359 OA 
HETATM   20  C   UNL     1      -7.128  10.445  66.341  1.00  0.00    -0.118 A  
HETATM   21  C   UNL     1      -7.347  10.367  67.718  1.00  0.00    -0.087 A  
HETATM   22  C   UNL     1      -7.704   9.530  65.470  1.00  0.00    -0.105 A  
HETATM   23  H   UNL     1      -6.195  11.475  64.865  1.00  0.00     0.000 HD 
HETATM   24  C   UNL     1      -8.514   8.528  65.988  1.00  0.00    -0.140 A  
HETATM   25  O   UNL     1      -9.111   7.604  65.183  1.00  0.00    -0.361 OA 
HETATM   26  C   UNL     1      -8.748   8.436  67.356  1.00  0.00    -0.136 A  
HETATM   27  H   UNL     1      -9.666   6.919  65.537  1.00  0.00     0.000 HD 
ENDBRANCH  15  18
ENDBRANCH  14  15
ENDBRANCH  12  14
ENDBRANCH   2  12
TORSDOF 6
ENDMDL
MODEL      213
REMARK 921   NORMALIZED FREE ENERGY PREDICTED BY IDOCK:   -5.01 KCAL/MOL
REMARK 922        TOTAL FREE ENERGY PREDICTED BY IDOCK:   -7.38 KCAL/MOL
REMARK 923 INTER-LIGAND FREE ENERGY PREDICTED BY IDOCK:   -6.05 KCAL/MOL
REMARK 924 INTRA-LIGAND FREE ENERGY PREDICTED BY IDOCK:   -1.33 KCAL/MOL
REMARK 927      BINDING AFFINITY PREDICTED BY RF-SCORE:    0.00 PKD
ROOT
HETATM    1  C   UNL     1     -10.853   6.637  67.180  1.00  0.00    -0.471 C  
HETATM    2  C   UNL     1      -9.367   6.878  67.482  1.00  0.00    -0.122 C  
ENDROOT
BRANCH   2   3
HETATM    3  C   UNL     1      -9.232   8.246  68.202  1.00  0.00    -0.137 C  
BRANCH   3   4
HETATM    4  C   UNL     1      -9.962   9.391  67.537  1.00  0.00    -0.250 A  
HETATM    5  C   UNL     1     -10.472  10.671  65.536  1.00  0.00    -0.246 A  
HETATM    6  H   UNL     1     -11.887  12.598  64.679  1.00  0.00     0.000 HD 
HETATM    7  C   UNL     1     -10.828  10.218  68.268  1.00  0.00    -0.300 A  
HETATM    8  C   UNL     1      -9.786   9.634  66.167  1.00  0.00    -0.334 A  
HETATM    9  C   UNL     1     -11.514  11.259  67.637  1.00  0.00    -0.341 A  
HETATM   10  O   UNL     1     -12.008  12.455  65.611  1.00  0.00    -0.447 OA 
HETATM   11  C   UNL     1     -11.337  11.469  66.272  1.00  0.00    -0.153 A  
ENDBRANCH   3   4
ENDBRANCH   2   3
BRANCH   2  12
HETATM   12  N   UNL     1      -8.789   5.793  68.290  1.00  0.00    -0.110 NA 
HETATM   13  H   UNL     1      -8.245   6.175  69.063  1.00  0.00     0.000 HD 
BRANCH  12  14
HETATM   14  C   UNL     1      -9.769   4.820  68.784  1.00  0.00    -0.167 C  
BRANCH  14  15
HETATM   15  C   UNL     1      -9.817   4.780  70.334  1.00  0.00    -0.239 C  
HETATM   16  H   UNL     1      -8.575   4.355  71.810  1.00  0.00     0.000 HD 
HETATM   17  O   UNL     1      -8.545   4.379  70.861  1.00  0.00    -0.089 OA 
BRANCH  15  18
HETATM   18  C   UNL     1     -10.200   6.128  70.915  1.00  0.00    -0.250 A  
HETATM   19  O   UNL     1     -13.055   8.452  71.001  1.00  0.00    -0.507 OA 
HETATM   20  C   UNL     1     -11.819   7.912  71.204  1.00  0.00    -0.287 A  
HETATM   21  C   UNL     1     -11.484   6.653  70.704  1.00  0.00    -0.420 A  
HETATM   22  C   UNL     1     -10.902   8.665  71.927  1.00  0.00    -0.419 A  
HETATM   23  H   UNL     1     -13.282   9.309  71.341  1.00  0.00     0.000 HD 
HETATM   24  C   UNL     1      -9.632   8.147  72.143  1.00  0.00    -0.242 A  
HETATM   25  O   UNL     1      -8.687   8.840  72.840  1.00  0.00    -0.379 OA 
HETATM   26  C   UNL     1      -9.278   6.895  71.650  1.00  0.00    -0.146 A  
HETATM   27  H   UNL     1      -7.817   8.486  72.988  1.00  0.00     0.000 HD 
ENDBRANCH  15  18
ENDBRANCH  14  15
ENDBRANCH  12  14
ENDBRANCH   2  12
TORSDOF 6
ENDMDL
MODEL      214
REMARK 921   NORMALIZED FREE ENERGY PREDICTED BY IDOCK:   -5.00 KCAL/MOL
REMARK 922        TOTAL FREE ENERGY PREDICTED BY IDOCK:   -7.36 KCAL/MOL
REMARK 923 INTER-LIGAND FREE ENERGY PREDICTED BY IDOCK:   -6.82 KCAL/MOL
REMARK 924 INTRA-LIGAND FREE ENERGY PREDICTED BY IDOCK:   -0.55 KCAL/MOL
REMARK 927      BINDING AFFINITY PREDICTED BY RF-SCORE:    0.00 PKD
ROOT
HETATM    1  C   UNL     1      -8.405  12.224  67.801  1.00  0.00    -0.162 C  
HETATM    2  C   UNL     1      -9.714  11.643  68.354  1.00  0.00    -0.199 C  
ENDROOT
BRANCH   2   3
HETATM    3  C   UNL     1     -10.456  10.927  67.194  1.00  0.00    -0.281 C  
BRANCH   3   4
HETATM    4  C   UNL     1     -11.004  11.844  66.124  1.00  0.00    -0.352 A  
HETATM    5  C   UNL     1     -11.002  12.607  63.818  1.00  0.00    -0.481 A  
HETATM    6  H   UNL     1     -12.170  14.195  62.217  1.00  0.00     0.000 HD 
HETATM    7  C   UNL     1     -12.031  12.754  66.409  1.00  0.00    -0.443 A  
HETATM    8  C   UNL     1     -10.490  11.784  64.820  1.00  0.00    -0.341 A  
HETATM    9  C   UNL     1     -12.544  13.581  65.404  1.00  0.00    -0.531 A  
HETATM   10  O   UNL     1     -12.521  14.257  63.098  1.00  0.00    -0.612 OA 
HETATM   11  C   UNL     1     -12.030  13.491  64.114  1.00  0.00    -0.448 A  
ENDBRANCH   3   4
ENDBRANCH   2   3
BRANCH   2  12
HETATM   12  N   UNL     1      -9.476  10.726  69.479  1.00  0.00    -0.425 NA 
HETATM   13  H   UNL     1      -9.385  11.247  70.351  1.00  0.00     0.000 HD 
BRANCH  12  14
HETATM   14  C   UNL     1     -10.482   9.667  69.618  1.00  0.00    -0.229 C  
BRANCH  14  15
HETATM   15  C   UNL     1      -9.875   8.256  69.403  1.00  0.00    -0.185 C  
HETATM   16  H   UNL     1      -8.094   7.489  69.029  1.00  0.00     0.000 HD 
HETATM   17  O   UNL     1      -8.465   8.353  69.160  1.00  0.00    -0.120 OA 
BRANCH  15  18
HETATM   18  C   UNL     1     -10.117   7.357  70.601  1.00  0.00    -0.191 A  
HETATM   19  O   UNL     1      -8.246   5.217  72.942  1.00  0.00    -0.108 OA 
HETATM   20  C   UNL     1      -9.272   5.860  72.314  1.00  0.00    -0.144 A  
HETATM   21  C   UNL     1      -9.042   6.720  71.239  1.00  0.00    -0.150 A  
HETATM   22  C   UNL     1     -10.559   5.626  72.783  1.00  0.00    -0.266 A  
HETATM   23  H   UNL     1      -8.403   4.633  73.674  1.00  0.00     0.000 HD 
HETATM   24  C   UNL     1     -11.625   6.258  72.159  1.00  0.00    -0.319 A  
HETATM   25  O   UNL     1     -12.911   6.064  72.569  1.00  0.00    -0.507 OA 
HETATM   26  C   UNL     1     -11.416   7.116  71.083  1.00  0.00    -0.322 A  
HETATM   27  H   UNL     1     -13.641   6.497  72.142  1.00  0.00     0.000 HD 
ENDBRANCH  15  18
ENDBRANCH  14  15
ENDBRANCH  12  14
ENDBRANCH   2  12
TORSDOF 6
ENDMDL
MODEL      215
REMARK 921   NORMALIZED FREE ENERGY PREDICTED BY IDOCK:   -4.99 KCAL/MOL
REMARK 922        TOTAL FREE ENERGY PREDICTED BY IDOCK:   -7.35 KCAL/MOL
REMARK 923 INTER-LIGAND FREE ENERGY PREDICTED BY IDOCK:   -6.40 KCAL/MOL
REMARK 924 INTRA-LIGAND FREE ENERGY PREDICTED BY IDOCK:   -0.95 KCAL/MOL
REMARK 927      BINDING AFFINITY PREDICTED BY RF-SCORE:    0.00 PKD
ROOT
HETATM    1  C   UNL     1     -10.560  16.741  67.425  1.00  0.00    -0.291 C  
HETATM    2  C   UNL     1     -10.123  15.319  67.046  1.00  0.00    -0.248 C  
ENDROOT
BRANCH   2   3
HETATM    3  C   UNL     1      -9.862  15.282  65.516  1.00  0.00    -0.362 C  
BRANCH   3   4
HETATM    4  C   UNL     1     -10.675  14.261  64.754  1.00  0.00    -0.435 A  
HETATM    5  C   UNL     1     -10.826  12.098  63.659  1.00  0.00    -0.523 A  
HETATM    6  H   UNL     1     -12.451  10.541  62.481  1.00  0.00     0.000 HD 
HETATM    7  C   UNL     1     -12.026  14.489  64.456  1.00  0.00    -0.482 A  
HETATM    8  C   UNL     1     -10.081  13.059  64.341  1.00  0.00    -0.245 A  
HETATM    9  C   UNL     1     -12.772  13.526  63.770  1.00  0.00     0.056 A  
HETATM   10  O   UNL     1     -12.864  11.356  62.742  1.00  0.00     0.051 OA 
HETATM   11  C   UNL     1     -12.166  12.334  63.387  1.00  0.00    -0.527 A  
ENDBRANCH   3   4
ENDBRANCH   2   3
BRANCH   2  12
HETATM   12  N   UNL     1      -8.935  14.890  67.799  1.00  0.00    -0.174 NA 
HETATM   13  H   UNL     1      -8.654  15.612  68.463  1.00  0.00     0.000 HD 
BRANCH  12  14
HETATM   14  C   UNL     1      -9.085  13.599  68.480  1.00  0.00    -0.112 C  
BRANCH  14  15
HETATM   15  C   UNL     1     -10.362  12.846  68.024  1.00  0.00    -0.227 C  
HETATM   16  H   UNL     1     -10.793  11.151  67.108  1.00  0.00     0.000 HD 
HETATM   17  O   UNL     1     -10.011  11.612  67.386  1.00  0.00    -0.182 OA 
BRANCH  15  18
HETATM   18  C   UNL     1     -11.288  12.562  69.193  1.00  0.00    -0.331 A  
HETATM   19  O   UNL     1     -13.218   9.784  70.647  1.00  0.00    -0.590 OA 
HETATM   20  C   UNL     1     -12.689  11.025  70.442  1.00  0.00    -0.218 A  
HETATM   21  C   UNL     1     -11.805  11.273  69.391  1.00  0.00    -0.424 A  
HETATM   22  C   UNL     1     -13.067  12.036  71.316  1.00  0.00    -0.209 A  
HETATM   23  H   UNL     1     -13.819   9.616  71.363  1.00  0.00     0.000 HD 
HETATM   24  C   UNL     1     -12.553  13.312  71.128  1.00  0.00    -0.325 A  
HETATM   25  O   UNL     1     -12.890  14.346  71.949  1.00  0.00    -0.323 OA 
HETATM   26  C   UNL     1     -11.673  13.580  70.084  1.00  0.00    -0.280 A  
HETATM   27  H   UNL     1     -12.539  15.220  71.820  1.00  0.00     0.000 HD 
ENDBRANCH  15  18
ENDBRANCH  14  15
ENDBRANCH  12  14
ENDBRANCH   2  12
TORSDOF 6
ENDMDL
MODEL      216
REMARK 921   NORMALIZED FREE ENERGY PREDICTED BY IDOCK:   -4.98 KCAL/MOL
REMARK 922        TOTAL FREE ENERGY PREDICTED BY IDOCK:   -7.34 KCAL/MOL
REMARK 923 INTER-LIGAND FREE ENERGY PREDICTED BY IDOCK:   -6.67 KCAL/MOL
REMARK 924 INTRA-LIGAND FREE ENERGY PREDICTED BY IDOCK:   -0.67 KCAL/MOL
REMARK 927      BINDING AFFINITY PREDICTED BY RF-SCORE:    0.00 PKD
ROOT
HETATM    1  C   UNL     1      -8.463  14.503  67.539  1.00  0.00    -0.201 C  
HETATM    2  C   UNL     1      -9.498  13.544  68.145  1.00  0.00    -0.214 C  
ENDROOT
BRANCH   2   3
HETATM    3  C   UNL     1     -10.893  14.220  68.066  1.00  0.00    -0.247 C  
BRANCH   3   4
HETATM    4  C   UNL     1     -11.665  14.244  69.366  1.00  0.00    -0.363 A  
HETATM    5  C   UNL     1     -12.868  15.496  71.065  1.00  0.00    -0.543 A  
HETATM    6  H   UNL     1     -14.203  15.219  73.207  1.00  0.00     0.000 HD 
HETATM    7  C   UNL     1     -11.933  13.061  70.069  1.00  0.00    -0.383 A  
HETATM    8  C   UNL     1     -12.133  15.462  69.880  1.00  0.00    -0.382 A  
HETATM    9  C   UNL     1     -12.668  13.094  71.258  1.00  0.00    -0.396 A  
HETATM   10  O   UNL     1     -13.882  14.388  72.879  1.00  0.00    -0.589 OA 
HETATM   11  C   UNL     1     -13.137  14.312  71.739  1.00  0.00    -0.359 A  
ENDBRANCH   3   4
ENDBRANCH   2   3
BRANCH   2  12
HETATM   12  N   UNL     1      -9.501  12.239  67.465  1.00  0.00    -0.178 NA 
HETATM   13  H   UNL     1      -8.814  12.228  66.711  1.00  0.00     0.000 HD 
BRANCH  12  14
HETATM   14  C   UNL     1      -9.297  11.093  68.359  1.00  0.00    -0.185 C  
BRANCH  14  15
HETATM   15  C   UNL     1     -10.563  10.201  68.458  1.00  0.00    -0.216 C  
HETATM   16  H   UNL     1     -12.317  10.074  67.561  1.00  0.00     0.000 HD 
HETATM   17  O   UNL     1     -11.543  10.621  67.500  1.00  0.00    -0.482 OA 
BRANCH  15  18
HETATM   18  C   UNL     1     -10.232   8.738  68.230  1.00  0.00    -0.240 A  
HETATM   19  O   UNL     1     -11.271   5.912  66.111  1.00  0.00    -0.691 OA 
HETATM   20  C   UNL     1     -10.625   6.649  67.058  1.00  0.00    -0.333 A  
HETATM   21  C   UNL     1     -10.901   8.006  67.237  1.00  0.00    -0.159 A  
HETATM   22  C   UNL     1      -9.681   6.000  67.844  1.00  0.00    -0.123 A  
HETATM   23  H   UNL     1     -11.082   4.989  65.989  1.00  0.00     0.000 HD 
HETATM   24  C   UNL     1      -9.012   6.721  68.824  1.00  0.00    -0.130 A  
HETATM   25  O   UNL     1      -8.080   6.138  69.629  1.00  0.00    -0.108 OA 
HETATM   26  C   UNL     1      -9.276   8.073  69.019  1.00  0.00    -0.148 A  
HETATM   27  H   UNL     1      -7.622   6.632  70.300  1.00  0.00     0.000 HD 
ENDBRANCH  15  18
ENDBRANCH  14  15
ENDBRANCH  12  14
ENDBRANCH   2  12
TORSDOF 6
ENDMDL
MODEL      217
REMARK 921   NORMALIZED FREE ENERGY PREDICTED BY IDOCK:   -4.97 KCAL/MOL
REMARK 922        TOTAL FREE ENERGY PREDICTED BY IDOCK:   -7.32 KCAL/MOL
REMARK 923 INTER-LIGAND FREE ENERGY PREDICTED BY IDOCK:   -6.77 KCAL/MOL
REMARK 924 INTRA-LIGAND FREE ENERGY PREDICTED BY IDOCK:   -0.55 KCAL/MOL
REMARK 927      BINDING AFFINITY PREDICTED BY RF-SCORE:    0.00 PKD
ROOT
HETATM    1  C   UNL     1      -7.688   9.546  68.986  1.00  0.00    -0.076 C  
HETATM    2  C   UNL     1      -8.949   8.708  69.238  1.00  0.00    -0.145 C  
ENDROOT
BRANCH   2   3
HETATM    3  C   UNL     1      -9.259   8.742  70.759  1.00  0.00    -0.242 C  
BRANCH   3   4
HETATM    4  C   UNL     1     -10.643   8.266  71.139  1.00  0.00    -0.258 A  
HETATM    5  C   UNL     1     -12.224   6.445  71.435  1.00  0.00    -0.192 A  
HETATM    6  H   UNL     1     -14.584   5.930  72.216  1.00  0.00     0.000 HD 
HETATM    7  C   UNL     1     -11.623   9.168  71.577  1.00  0.00    -0.439 A  
HETATM    8  C   UNL     1     -10.959   6.901  71.065  1.00  0.00    -0.287 A  
HETATM    9  C   UNL     1     -12.891   8.711  71.947  1.00  0.00    -0.411 A  
HETATM   10  O   UNL     1     -14.390   6.859  72.260  1.00  0.00    -0.158 OA 
HETATM   11  C   UNL     1     -13.176   7.351  71.882  1.00  0.00    -0.240 A  
ENDBRANCH   3   4
ENDBRANCH   2   3
BRANCH   2  12
HETATM   12  N   UNL     1     -10.094   9.188  68.451  1.00  0.00    -0.189 NA 
HETATM   13  H   UNL     1     -10.938   9.206  69.023  1.00  0.00     0.000 HD 
BRANCH  12  14
HETATM   14  C   UNL     1      -9.883  10.491  67.811  1.00  0.00    -0.165 C  
BRANCH  14  15
HETATM   15  C   UNL     1     -11.209  11.278  67.642  1.00  0.00    -0.292 C  
HETATM   16  H   UNL     1     -12.464  12.265  68.804  1.00  0.00     0.000 HD 
HETATM   17  O   UNL     1     -11.652  11.783  68.908  1.00  0.00    -0.256 OA 
BRANCH  15  18
HETATM   18  C   UNL     1     -11.052  12.431  66.668  1.00  0.00    -0.336 A  
HETATM   19  O   UNL     1     -12.509  13.684  63.526  1.00  0.00    -0.807 OA 
HETATM   20  C   UNL     1     -11.717  13.571  64.631  1.00  0.00    -0.381 A  
HETATM   21  C   UNL     1     -11.891  12.532  65.548  1.00  0.00    -0.491 A  
HETATM   22  C   UNL     1     -10.726  14.528  64.811  1.00  0.00    -0.414 A  
HETATM   23  H   UNL     1     -12.390  14.391  62.904  1.00  0.00     0.000 HD 
HETATM   24  C   UNL     1      -9.898  14.436  65.921  1.00  0.00    -0.310 A  
HETATM   25  O   UNL     1      -8.904  15.341  66.149  1.00  0.00    -0.429 OA 
HETATM   26  C   UNL     1     -10.053  13.406  66.844  1.00  0.00    -0.255 A  
HETATM   27  H   UNL     1      -8.337  15.278  66.909  1.00  0.00     0.000 HD 
ENDBRANCH  15  18
ENDBRANCH  14  15
ENDBRANCH  12  14
ENDBRANCH   2  12
TORSDOF 6
ENDMDL
MODEL      218
REMARK 921   NORMALIZED FREE ENERGY PREDICTED BY IDOCK:   -4.96 KCAL/MOL
REMARK 922        TOTAL FREE ENERGY PREDICTED BY IDOCK:   -7.31 KCAL/MOL
REMARK 923 INTER-LIGAND FREE ENERGY PREDICTED BY IDOCK:   -6.90 KCAL/MOL
REMARK 924 INTRA-LIGAND FREE ENERGY PREDICTED BY IDOCK:   -0.41 KCAL/MOL
REMARK 927      BINDING AFFINITY PREDICTED BY RF-SCORE:    0.00 PKD
ROOT
HETATM    1  C   UNL     1      -9.347  15.859  67.013  1.00  0.00    -0.230 C  
HETATM    2  C   UNL     1     -10.417  16.159  68.072  1.00  0.00    -0.281 C  
ENDROOT
BRANCH   2   3
HETATM    3  C   UNL     1     -10.825  17.651  67.943  1.00  0.00    -0.245 C  
BRANCH   3   4
HETATM    4  C   UNL     1      -9.674  18.615  67.770  1.00  0.00    -0.344 A  
HETATM    5  C   UNL     1      -8.593  20.382  66.500  1.00  0.00    -0.192 A  
HETATM    6  H   UNL     1      -6.594  21.948  66.520  1.00  0.00     0.000 HD 
HETATM    7  C   UNL     1      -8.637  18.679  68.713  1.00  0.00    -0.292 A  
HETATM    8  C   UNL     1      -9.637  19.471  66.659  1.00  0.00    -0.450 A  
HETATM    9  C   UNL     1      -7.590  19.591  68.553  1.00  0.00    -0.378 A  
HETATM   10  O   UNL     1      -6.598  21.367  67.272  1.00  0.00    -0.522 OA 
HETATM   11  C   UNL     1      -7.584  20.442  67.452  1.00  0.00    -0.326 A  
ENDBRANCH   3   4
ENDBRANCH   2   3
BRANCH   2  12
HETATM   12  N   UNL     1     -11.585  15.274  67.938  1.00  0.00    -0.326 NA 
HETATM   13  H   UNL     1     -11.803  15.118  66.954  1.00  0.00     0.000 HD 
BRANCH  12  14
HETATM   14  C   UNL     1     -11.457  13.995  68.644  1.00  0.00    -0.302 C  
BRANCH  14  15
HETATM   15  C   UNL     1     -11.868  12.795  67.751  1.00  0.00    -0.332 C  
HETATM   16  H   UNL     1     -11.603  12.228  65.877  1.00  0.00     0.000 HD 
HETATM   17  O   UNL     1     -11.351  12.963  66.424  1.00  0.00    -0.293 OA 
BRANCH  15  18
HETATM   18  C   UNL     1     -11.370  11.479  68.320  1.00  0.00    -0.352 A  
HETATM   19  O   UNL     1      -9.919   8.289  67.191  1.00  0.00    -0.191 OA 
HETATM   20  C   UNL     1     -10.423   9.269  67.995  1.00  0.00    -0.223 A  
HETATM   21  C   UNL     1     -10.841  10.494  67.473  1.00  0.00    -0.357 A  
HETATM   22  C   UNL     1     -10.507   9.002  69.356  1.00  0.00    -0.229 A  
HETATM   23  H   UNL     1      -9.634   7.456  67.547  1.00  0.00     0.000 HD 
HETATM   24  C   UNL     1     -11.024   9.977  70.199  1.00  0.00    -0.310 A  
HETATM   25  O   UNL     1     -11.137   9.773  71.542  1.00  0.00    -0.343 OA 
HETATM   26  C   UNL     1     -11.449  11.203  69.697  1.00  0.00    -0.383 A  
HETATM   27  H   UNL     1     -11.491  10.439  72.119  1.00  0.00     0.000 HD 
ENDBRANCH  15  18
ENDBRANCH  14  15
ENDBRANCH  12  14
ENDBRANCH   2  12
TORSDOF 6
ENDMDL
MODEL      219
REMARK 921   NORMALIZED FREE ENERGY PREDICTED BY IDOCK:   -4.96 KCAL/MOL
REMARK 922        TOTAL FREE ENERGY PREDICTED BY IDOCK:   -7.31 KCAL/MOL
REMARK 923 INTER-LIGAND FREE ENERGY PREDICTED BY IDOCK:   -7.01 KCAL/MOL
REMARK 924 INTRA-LIGAND FREE ENERGY PREDICTED BY IDOCK:   -0.29 KCAL/MOL
REMARK 927      BINDING AFFINITY PREDICTED BY RF-SCORE:    0.00 PKD
ROOT
HETATM    1  C   UNL     1     -10.409  15.997  66.808  1.00  0.00    -0.300 C  
HETATM    2  C   UNL     1      -9.400  14.840  66.765  1.00  0.00    -0.249 C  
ENDROOT
BRANCH   2   3
HETATM    3  C   UNL     1      -9.779  13.822  67.874  1.00  0.00    -0.229 C  
BRANCH   3   4
HETATM    4  C   UNL     1     -10.658  14.374  68.973  1.00  0.00    -0.245 A  
HETATM    5  C   UNL     1     -12.639  14.182  70.365  1.00  0.00    -0.397 A  
HETATM    6  H   UNL     1     -13.864  15.289  72.295  1.00  0.00     0.000 HD 
HETATM    7  C   UNL     1     -10.315  15.553  69.650  1.00  0.00    -0.286 A  
HETATM    8  C   UNL     1     -11.832  13.698  69.337  1.00  0.00    -0.392 A  
HETATM    9  C   UNL     1     -11.125  16.040  70.680  1.00  0.00    -0.352 A  
HETATM   10  O   UNL     1     -13.079  15.765  72.053  1.00  0.00    -0.445 OA 
HETATM   11  C   UNL     1     -12.276  15.343  71.035  1.00  0.00    -0.376 A  
ENDBRANCH   3   4
ENDBRANCH   2   3
BRANCH   2  12
HETATM   12  N   UNL     1      -9.358  14.196  65.443  1.00  0.00    -0.330 NA 
HETATM   13  H   UNL     1      -8.901  13.286  65.504  1.00  0.00     0.000 HD 
BRANCH  12  14
HETATM   14  C   UNL     1     -10.667  14.069  64.792  1.00  0.00    -0.427 C  
BRANCH  14  15
HETATM   15  C   UNL     1     -10.845  12.687  64.110  1.00  0.00    -0.396 C  
HETATM   16  H   UNL     1      -9.972  11.665  62.663  1.00  0.00     0.000 HD 
HETATM   17  O   UNL     1      -9.863  12.511  63.080  1.00  0.00    -0.204 OA 
BRANCH  15  18
HETATM   18  C   UNL     1     -10.733  11.552  65.110  1.00  0.00    -0.348 A  
HETATM   19  O   UNL     1     -12.091  10.532  68.377  1.00  0.00    -0.804 OA 
HETATM   20  C   UNL     1     -11.366  10.538  67.222  1.00  0.00     0.024 A  
HETATM   21  C   UNL     1     -11.502  11.563  66.284  1.00  0.00    -0.124 A  
HETATM   22  C   UNL     1     -10.482   9.487  67.014  1.00  0.00    -0.302 A  
HETATM   23  H   UNL     1     -11.998   9.835  69.015  1.00  0.00     0.000 HD 
HETATM   24  C   UNL     1      -9.723   9.469  65.851  1.00  0.00    -0.282 A  
HETATM   25  O   UNL     1      -8.835   8.468  65.593  1.00  0.00    -0.174 OA 
HETATM   26  C   UNL     1      -9.842  10.483  64.906  1.00  0.00    -0.379 A  
HETATM   27  H   UNL     1      -8.315   8.456  64.797  1.00  0.00     0.000 HD 
ENDBRANCH  15  18
ENDBRANCH  14  15
ENDBRANCH  12  14
ENDBRANCH   2  12
TORSDOF 6
ENDMDL
MODEL      220
REMARK 921   NORMALIZED FREE ENERGY PREDICTED BY IDOCK:   -4.96 KCAL/MOL
REMARK 922        TOTAL FREE ENERGY PREDICTED BY IDOCK:   -7.31 KCAL/MOL
REMARK 923 INTER-LIGAND FREE ENERGY PREDICTED BY IDOCK:   -6.86 KCAL/MOL
REMARK 924 INTRA-LIGAND FREE ENERGY PREDICTED BY IDOCK:   -0.44 KCAL/MOL
REMARK 927      BINDING AFFINITY PREDICTED BY RF-SCORE:    0.00 PKD
ROOT
HETATM    1  C   UNL     1     -11.638  13.916  68.643  1.00  0.00    -0.363 C  
HETATM    2  C   UNL     1     -11.387  12.565  67.958  1.00  0.00    -0.289 C  
ENDROOT
BRANCH   2   3
HETATM    3  C   UNL     1     -11.827  11.438  68.930  1.00  0.00    -0.413 C  
BRANCH   3   4
HETATM    4  C   UNL     1     -11.183  10.093  68.682  1.00  0.00    -0.223 A  
HETATM    5  C   UNL     1     -10.390   7.961  69.534  1.00  0.00    -0.217 A  
HETATM    6  H   UNL     1      -9.378   5.748  68.808  1.00  0.00     0.000 HD 
HETATM    7  C   UNL     1     -10.807   9.699  67.390  1.00  0.00    -0.242 A  
HETATM    8  C   UNL     1     -10.961   9.214  69.752  1.00  0.00    -0.195 A  
HETATM    9  C   UNL     1     -10.233   8.443  67.171  1.00  0.00    -0.362 A  
HETATM   10  O   UNL     1      -9.509   6.337  68.074  1.00  0.00    -0.118 OA 
HETATM   11  C   UNL     1     -10.039   7.581  68.246  1.00  0.00    -0.183 A  
ENDBRANCH   3   4
ENDBRANCH   2   3
BRANCH   2  12
HETATM   12  N   UNL     1     -12.091  12.463  66.671  1.00  0.00    -0.584 NA 
HETATM   13  H   UNL     1     -12.858  11.793  66.736  1.00  0.00     0.000 HD 
BRANCH  12  14
HETATM   14  C   UNL     1     -12.575  13.744  66.144  1.00  0.00    -0.371 C  
BRANCH  14  15
HETATM   15  C   UNL     1     -11.703  14.255  64.967  1.00  0.00    -0.383 C  
HETATM   16  H   UNL     1     -12.001  15.098  63.206  1.00  0.00     0.000 HD 
HETATM   17  O   UNL     1     -12.535  14.784  63.926  1.00  0.00    -0.811 OA 
BRANCH  15  18
HETATM   18  C   UNL     1     -10.725  15.323  65.421  1.00  0.00    -0.407 A  
HETATM   19  O   UNL     1     -10.446  18.990  65.609  1.00  0.00    -0.554 OA 
HETATM   20  C   UNL     1     -10.147  17.663  65.705  1.00  0.00    -0.085 A  
HETATM   21  C   UNL     1     -11.065  16.681  65.326  1.00  0.00    -0.036 A  
HETATM   22  C   UNL     1      -8.891  17.321  66.191  1.00  0.00    -0.195 A  
HETATM   23  H   UNL     1      -9.821  19.657  65.867  1.00  0.00     0.000 HD 
HETATM   24  C   UNL     1      -8.553  15.978  66.293  1.00  0.00    -0.328 A  
HETATM   25  O   UNL     1      -7.335  15.581  66.758  1.00  0.00    -0.193 OA 
HETATM   26  C   UNL     1      -9.453  14.986  65.917  1.00  0.00    -0.313 A  
HETATM   27  H   UNL     1      -7.104  14.662  66.826  1.00  0.00     0.000 HD 
ENDBRANCH  15  18
ENDBRANCH  14  15
ENDBRANCH  12  14
ENDBRANCH   2  12
TORSDOF 6
ENDMDL
MODEL      221
REMARK 921   NORMALIZED FREE ENERGY PREDICTED BY IDOCK:   -4.94 KCAL/MOL
REMARK 922        TOTAL FREE ENERGY PREDICTED BY IDOCK:   -7.28 KCAL/MOL
REMARK 923 INTER-LIGAND FREE ENERGY PREDICTED BY IDOCK:   -6.24 KCAL/MOL
REMARK 924 INTRA-LIGAND FREE ENERGY PREDICTED BY IDOCK:   -1.04 KCAL/MOL
REMARK 927      BINDING AFFINITY PREDICTED BY RF-SCORE:    0.00 PKD
ROOT
HETATM    1  C   UNL     1     -11.105   6.818  67.048  1.00  0.00    -0.369 C  
HETATM    2  C   UNL     1      -9.741   7.413  67.423  1.00  0.00    -0.153 C  
ENDROOT
BRANCH   2   3
HETATM    3  C   UNL     1      -9.984   8.725  68.217  1.00  0.00    -0.202 C  
BRANCH   3   4
HETATM    4  C   UNL     1     -10.467   9.893  67.388  1.00  0.00    -0.325 A  
HETATM    5  C   UNL     1     -11.743  11.953  67.214  1.00  0.00    -0.319 A  
HETATM    6  H   UNL     1     -12.318  13.841  65.616  1.00  0.00     0.000 HD 
HETATM    7  C   UNL     1     -10.077  10.039  66.049  1.00  0.00    -0.318 A  
HETATM    8  C   UNL     1     -11.310  10.857  67.960  1.00  0.00    -0.382 A  
HETATM    9  C   UNL     1     -10.512  11.137  65.300  1.00  0.00    -0.326 A  
HETATM   10  O   UNL     1     -11.758  13.191  65.210  1.00  0.00    -0.319 OA 
HETATM   11  C   UNL     1     -11.334  12.090  65.895  1.00  0.00    -0.337 A  
ENDBRANCH   3   4
ENDBRANCH   2   3
BRANCH   2  12
HETATM   12  N   UNL     1      -8.922   6.467  68.196  1.00  0.00    -0.118 NA 
HETATM   13  H   UNL     1      -8.611   6.896  69.068  1.00  0.00     0.000 HD 
BRANCH  12  14
HETATM   14  C   UNL     1      -9.576   5.181  68.463  1.00  0.00    -0.140 C  
BRANCH  14  15
HETATM   15  C   UNL     1      -9.739   4.915  69.982  1.00  0.00    -0.215 C  
HETATM   16  H   UNL     1      -8.576   4.404  71.494  1.00  0.00     0.000 HD 
HETATM   17  O   UNL     1      -8.476   4.566  70.564  1.00  0.00    -0.079 OA 
BRANCH  15  18
HETATM   18  C   UNL     1     -10.306   6.125  70.702  1.00  0.00    -0.268 A  
HETATM   19  O   UNL     1      -9.279   8.699  73.126  1.00  0.00    -0.235 OA 
HETATM   20  C   UNL     1     -10.036   7.962  72.264  1.00  0.00    -0.236 A  
HETATM   21  C   UNL     1      -9.500   6.875  71.572  1.00  0.00    -0.155 A  
HETATM   22  C   UNL     1     -11.365   8.331  72.102  1.00  0.00    -0.419 A  
HETATM   23  H   UNL     1      -9.644   9.438  73.597  1.00  0.00     0.000 HD 
HETATM   24  C   UNL     1     -12.165   7.595  71.238  1.00  0.00    -0.315 A  
HETATM   25  O   UNL     1     -13.478   7.905  71.041  1.00  0.00    -0.553 OA 
HETATM   26  C   UNL     1     -11.650   6.507  70.541  1.00  0.00    -0.455 A  
HETATM   27  H   UNL     1     -14.026   7.401  70.450  1.00  0.00     0.000 HD 
ENDBRANCH  15  18
ENDBRANCH  14  15
ENDBRANCH  12  14
ENDBRANCH   2  12
TORSDOF 6
ENDMDL
MODEL      222
REMARK 921   NORMALIZED FREE ENERGY PREDICTED BY IDOCK:   -4.93 KCAL/MOL
REMARK 922        TOTAL FREE ENERGY PREDICTED BY IDOCK:   -7.27 KCAL/MOL
REMARK 923 INTER-LIGAND FREE ENERGY PREDICTED BY IDOCK:   -6.89 KCAL/MOL
REMARK 924 INTRA-LIGAND FREE ENERGY PREDICTED BY IDOCK:   -0.39 KCAL/MOL
REMARK 927      BINDING AFFINITY PREDICTED BY RF-SCORE:    0.00 PKD
ROOT
HETATM    1  C   UNL     1     -10.399   5.200  69.719  1.00  0.00    -0.332 C  
HETATM    2  C   UNL     1     -11.139   6.533  69.536  1.00  0.00    -0.365 C  
ENDROOT
BRANCH   2   3
HETATM    3  C   UNL     1     -10.429   7.606  70.404  1.00  0.00    -0.221 C  
BRANCH   3   4
HETATM    4  C   UNL     1     -11.320   8.725  70.892  1.00  0.00    -0.322 A  
HETATM    5  C   UNL     1     -11.912  11.081  70.897  1.00  0.00    -0.391 A  
HETATM    6  H   UNL     1     -13.617  12.731  71.802  1.00  0.00     0.000 HD 
HETATM    7  C   UNL     1     -12.396   8.469  71.754  1.00  0.00    -0.388 A  
HETATM    8  C   UNL     1     -11.083  10.043  70.474  1.00  0.00    -0.400 A  
HETATM    9  C   UNL     1     -13.226   9.509  72.180  1.00  0.00    -0.539 A  
HETATM   10  O   UNL     1     -13.784  11.846  72.104  1.00  0.00    -0.273 OA 
HETATM   11  C   UNL     1     -12.982  10.806  71.738  1.00  0.00    -0.463 A  
ENDBRANCH   3   4
ENDBRANCH   2   3
BRANCH   2  12
HETATM   12  N   UNL     1     -11.194   6.941  68.124  1.00  0.00    -0.541 NA 
HETATM   13  H   UNL     1     -12.109   7.333  67.902  1.00  0.00     0.000 HD 
BRANCH  12  14
HETATM   14  C   UNL     1     -10.130   7.867  67.722  1.00  0.00    -0.192 C  
BRANCH  14  15
HETATM   15  C   UNL     1     -10.645   8.957  66.746  1.00  0.00    -0.142 C  
HETATM   16  H   UNL     1     -11.217  10.844  66.858  1.00  0.00     0.000 HD 
HETATM   17  O   UNL     1     -10.902  10.177  67.455  1.00  0.00    -0.281 OA 
BRANCH  15  18
HETATM   18  C   UNL     1      -9.650   9.224  65.632  1.00  0.00    -0.324 A  
HETATM   19  O   UNL     1      -9.026  11.650  62.933  1.00  0.00    -0.595 OA 
HETATM   20  C   UNL     1      -8.901  10.570  63.758  1.00  0.00    -0.200 A  
HETATM   21  C   UNL     1      -9.793  10.351  64.808  1.00  0.00    -0.406 A  
HETATM   22  C   UNL     1      -7.852   9.693  63.512  1.00  0.00    -0.136 A  
HETATM   23  H   UNL     1      -8.418  11.799  62.219  1.00  0.00     0.000 HD 
HETATM   24  C   UNL     1      -7.703   8.580  64.328  1.00  0.00    -0.130 A  
HETATM   25  O   UNL     1      -6.698   7.680  64.133  1.00  0.00    -0.051 OA 
HETATM   26  C   UNL     1      -8.585   8.342  65.378  1.00  0.00    -0.193 A  
HETATM   27  H   UNL     1      -6.596   6.918  64.691  1.00  0.00     0.000 HD 
ENDBRANCH  15  18
ENDBRANCH  14  15
ENDBRANCH  12  14
ENDBRANCH   2  12
TORSDOF 6
ENDMDL
MODEL      223
REMARK 921   NORMALIZED FREE ENERGY PREDICTED BY IDOCK:   -4.93 KCAL/MOL
REMARK 922        TOTAL FREE ENERGY PREDICTED BY IDOCK:   -7.26 KCAL/MOL
REMARK 923 INTER-LIGAND FREE ENERGY PREDICTED BY IDOCK:   -6.93 KCAL/MOL
REMARK 924 INTRA-LIGAND FREE ENERGY PREDICTED BY IDOCK:   -0.33 KCAL/MOL
REMARK 927      BINDING AFFINITY PREDICTED BY RF-SCORE:    0.00 PKD
ROOT
HETATM    1  C   UNL     1     -12.490  12.118  63.916  1.00  0.00    -0.581 C  
HETATM    2  C   UNL     1     -11.509  13.115  64.549  1.00  0.00    -0.353 C  
ENDROOT
BRANCH   2   3
HETATM    3  C   UNL     1     -11.877  13.275  66.049  1.00  0.00    -0.440 C  
BRANCH   3   4
HETATM    4  C   UNL     1     -11.397  14.556  66.691  1.00  0.00    -0.359 A  
HETATM    5  C   UNL     1     -11.377  16.065  68.594  1.00  0.00    -0.383 A  
HETATM    6  H   UNL     1     -10.340  18.220  69.450  1.00  0.00     0.000 HD 
HETATM    7  C   UNL     1     -10.510  15.411  66.022  1.00  0.00    -0.333 A  
HETATM    8  C   UNL     1     -11.831  14.899  67.980  1.00  0.00    -0.296 A  
HETATM    9  C   UNL     1     -10.056  16.582  66.637  1.00  0.00    -0.299 A  
HETATM   10  O   UNL     1     -10.046  18.008  68.571  1.00  0.00    -0.357 OA 
HETATM   11  C   UNL     1     -10.487  16.893  67.923  1.00  0.00    -0.344 A  
ENDBRANCH   3   4
ENDBRANCH   2   3
BRANCH   2  12
HETATM   12  N   UNL     1     -10.111  12.687  64.387  1.00  0.00    -0.541 NA 
HETATM   13  H   UNL     1      -9.496  13.498  64.317  1.00  0.00     0.000 HD 
BRANCH  12  14
HETATM   14  C   UNL     1      -9.635  11.772  65.431  1.00  0.00    -0.190 C  
BRANCH  14  15
HETATM   15  C   UNL     1      -9.988  10.295  65.115  1.00  0.00    -0.325 C  
HETATM   16  H   UNL     1      -9.314   8.869  63.927  1.00  0.00     0.000 HD 
HETATM   17  O   UNL     1      -9.098   9.774  64.120  1.00  0.00    -0.237 OA 
BRANCH  15  18
HETATM   18  C   UNL     1      -9.917   9.427  66.357  1.00  0.00    -0.346 A  
HETATM   19  O   UNL     1      -8.245   6.380  67.574  1.00  0.00    -0.116 OA 
HETATM   20  C   UNL     1      -9.044   7.485  67.521  1.00  0.00    -0.125 A  
HETATM   21  C   UNL     1      -9.075   8.305  66.391  1.00  0.00    -0.226 A  
HETATM   22  C   UNL     1      -9.829   7.763  68.632  1.00  0.00    -0.174 A  
HETATM   23  H   UNL     1      -8.224   5.823  68.342  1.00  0.00     0.000 HD 
HETATM   24  C   UNL     1     -10.659   8.876  68.605  1.00  0.00    -0.147 A  
HETATM   25  O   UNL     1     -11.457   9.198  69.662  1.00  0.00    -0.438 OA 
HETATM   26  C   UNL     1     -10.707   9.704  67.488  1.00  0.00    -0.321 A  
HETATM   27  H   UNL     1     -12.026   9.959  69.644  1.00  0.00     0.000 HD 
ENDBRANCH  15  18
ENDBRANCH  14  15
ENDBRANCH  12  14
ENDBRANCH   2  12
TORSDOF 6
ENDMDL
MODEL      224
REMARK 921   NORMALIZED FREE ENERGY PREDICTED BY IDOCK:   -4.91 KCAL/MOL
REMARK 922        TOTAL FREE ENERGY PREDICTED BY IDOCK:   -7.25 KCAL/MOL
REMARK 923 INTER-LIGAND FREE ENERGY PREDICTED BY IDOCK:   -5.92 KCAL/MOL
REMARK 924 INTRA-LIGAND FREE ENERGY PREDICTED BY IDOCK:   -1.33 KCAL/MOL
REMARK 927      BINDING AFFINITY PREDICTED BY RF-SCORE:    0.00 PKD
ROOT
HETATM    1  C   UNL     1      -8.137  16.835  67.514  1.00  0.00    -0.188 C  
HETATM    2  C   UNL     1      -8.170  15.451  66.850  1.00  0.00    -0.246 C  
ENDROOT
BRANCH   2   3
HETATM    3  C   UNL     1      -8.262  14.378  67.967  1.00  0.00    -0.149 C  
BRANCH   3   4
HETATM    4  C   UNL     1      -7.474  13.115  67.706  1.00  0.00    -0.150 A  
HETATM    5  C   UNL     1      -7.416  10.790  67.004  1.00  0.00    -0.114 A  
HETATM    6  H   UNL     1      -5.831   8.855  66.562  1.00  0.00     0.000 HD 
HETATM    7  C   UNL     1      -6.083  13.081  67.881  1.00  0.00    -0.131 A  
HETATM    8  C   UNL     1      -8.133  11.955  67.272  1.00  0.00    -0.171 A  
HETATM    9  C   UNL     1      -5.364  11.913  67.614  1.00  0.00    -0.073 A  
HETATM   10  O   UNL     1      -5.372   9.628  66.867  1.00  0.00    -0.044 OA 
HETATM   11  C   UNL     1      -6.037  10.780  67.168  1.00  0.00    -0.063 A  
ENDBRANCH   3   4
ENDBRANCH   2   3
BRANCH   2  12
HETATM   12  N   UNL     1      -9.284  15.325  65.897  1.00  0.00    -0.441 NA 
HETATM   13  H   UNL     1      -9.321  14.380  65.516  1.00  0.00     0.000 HD 
BRANCH  12  14
HETATM   14  C   UNL     1     -10.590  15.709  66.442  1.00  0.00    -0.308 C  
BRANCH  14  15
HETATM   15  C   UNL     1     -11.655  14.601  66.236  1.00  0.00    -0.342 C  
HETATM   16  H   UNL     1     -11.954  13.094  64.993  1.00  0.00     0.000 HD 
HETATM   17  O   UNL     1     -11.301  13.773  65.120  1.00  0.00    -0.299 OA 
BRANCH  15  18
HETATM   18  C   UNL     1     -11.808  13.736  67.473  1.00  0.00    -0.422 A  
HETATM   19  O   UNL     1     -12.183  14.079  71.120  1.00  0.00    -0.343 OA 
HETATM   20  C   UNL     1     -12.054  13.530  69.879  1.00  0.00    -0.341 A  
HETATM   21  C   UNL     1     -11.956  14.328  68.737  1.00  0.00    -0.346 A  
HETATM   22  C   UNL     1     -12.019  12.144  69.791  1.00  0.00    -0.372 A  
HETATM   23  H   UNL     1     -12.250  13.536  71.897  1.00  0.00     0.000 HD 
HETATM   24  C   UNL     1     -11.880  11.554  68.541  1.00  0.00    -0.297 A  
HETATM   25  O   UNL     1     -11.835  10.200  68.391  1.00  0.00    -0.676 OA 
HETATM   26  C   UNL     1     -11.777  12.333  67.393  1.00  0.00    -0.405 A  
HETATM   27  H   UNL     1     -11.738   9.797  67.536  1.00  0.00     0.000 HD 
ENDBRANCH  15  18
ENDBRANCH  14  15
ENDBRANCH  12  14
ENDBRANCH   2  12
TORSDOF 6
ENDMDL
MODEL      225
REMARK 921   NORMALIZED FREE ENERGY PREDICTED BY IDOCK:   -4.91 KCAL/MOL
REMARK 922        TOTAL FREE ENERGY PREDICTED BY IDOCK:   -7.25 KCAL/MOL
REMARK 923 INTER-LIGAND FREE ENERGY PREDICTED BY IDOCK:   -6.75 KCAL/MOL
REMARK 924 INTRA-LIGAND FREE ENERGY PREDICTED BY IDOCK:   -0.49 KCAL/MOL
REMARK 927      BINDING AFFINITY PREDICTED BY RF-SCORE:    0.00 PKD
ROOT
HETATM    1  C   UNL     1      -8.462   5.926  67.856  1.00  0.00    -0.107 C  
HETATM    2  C   UNL     1      -9.353   6.755  66.921  1.00  0.00    -0.150 C  
ENDROOT
BRANCH   2   3
HETATM    3  C   UNL     1     -10.790   6.774  67.509  1.00  0.00    -0.388 C  
BRANCH   3   4
HETATM    4  C   UNL     1     -10.871   7.090  68.985  1.00  0.00    -0.212 A  
HETATM    5  C   UNL     1     -11.159   6.334  71.276  1.00  0.00    -0.345 A  
HETATM    6  H   UNL     1     -11.156   7.144  73.683  1.00  0.00     0.000 HD 
HETATM    7  C   UNL     1     -10.705   8.401  69.454  1.00  0.00    -0.162 A  
HETATM    8  C   UNL     1     -11.106   6.062  69.909  1.00  0.00    -0.469 A  
HETATM    9  C   UNL     1     -10.760   8.675  70.824  1.00  0.00    -0.260 A  
HETATM   10  O   UNL     1     -11.009   7.854  73.069  1.00  0.00    -0.393 OA 
HETATM   11  C   UNL     1     -10.977   7.636  71.723  1.00  0.00    -0.239 A  
ENDBRANCH   3   4
ENDBRANCH   2   3
BRANCH   2  12
HETATM   12  N   UNL     1      -8.836   8.120  66.736  1.00  0.00    -0.132 NA 
HETATM   13  H   UNL     1      -7.869   8.181  67.054  1.00  0.00     0.000 HD 
BRANCH  12  14
HETATM   14  C   UNL     1      -8.959   8.632  65.367  1.00  0.00    -0.130 C  
BRANCH  14  15
HETATM   15  C   UNL     1      -8.551  10.125  65.265  1.00  0.00    -0.158 C  
HETATM   16  H   UNL     1      -7.537  11.265  64.011  1.00  0.00     0.000 HD 
HETATM   17  O   UNL     1      -7.786  10.351  64.074  1.00  0.00    -0.139 OA 
BRANCH  15  18
HETATM   18  C   UNL     1      -9.765  11.035  65.263  1.00  0.00    -0.286 A  
HETATM   19  O   UNL     1     -12.244  12.430  67.601  1.00  0.00    -0.425 OA 
HETATM   20  C   UNL     1     -11.571  12.137  66.451  1.00  0.00    -0.364 A  
HETATM   21  C   UNL     1     -10.430  11.333  66.462  1.00  0.00    -0.299 A  
HETATM   22  C   UNL     1     -12.065  12.666  65.266  1.00  0.00    -0.519 A  
HETATM   23  H   UNL     1     -13.021  12.977  67.593  1.00  0.00     0.000 HD 
HETATM   24  C   UNL     1     -11.407  12.379  64.077  1.00  0.00    -0.399 A  
HETATM   25  O   UNL     1     -11.846  12.864  62.882  1.00  0.00    -0.783 OA 
HETATM   26  C   UNL     1     -10.270  11.577  64.067  1.00  0.00    -0.394 A  
HETATM   27  H   UNL     1     -11.396  12.667  62.068  1.00  0.00     0.000 HD 
ENDBRANCH  15  18
ENDBRANCH  14  15
ENDBRANCH  12  14
ENDBRANCH   2  12
TORSDOF 6
ENDMDL
MODEL      226
REMARK 921   NORMALIZED FREE ENERGY PREDICTED BY IDOCK:   -4.91 KCAL/MOL
REMARK 922        TOTAL FREE ENERGY PREDICTED BY IDOCK:   -7.24 KCAL/MOL
REMARK 923 INTER-LIGAND FREE ENERGY PREDICTED BY IDOCK:   -6.85 KCAL/MOL
REMARK 924 INTRA-LIGAND FREE ENERGY PREDICTED BY IDOCK:   -0.39 KCAL/MOL
REMARK 927      BINDING AFFINITY PREDICTED BY RF-SCORE:    0.00 PKD
ROOT
HETATM    1  C   UNL     1      -8.429  10.189  67.443  1.00  0.00    -0.122 C  
HETATM    2  C   UNL     1      -9.819  10.008  66.817  1.00  0.00    -0.198 C  
ENDROOT
BRANCH   2   3
HETATM    3  C   UNL     1      -9.731  10.396  65.316  1.00  0.00    -0.339 C  
BRANCH   3   4
HETATM    4  C   UNL     1     -10.537  11.613  64.923  1.00  0.00    -0.349 A  
HETATM    5  C   UNL     1     -11.328  13.854  65.425  1.00  0.00    -0.311 A  
HETATM    6  H   UNL     1     -12.676  15.780  64.465  1.00  0.00     0.000 HD 
HETATM    7  C   UNL     1     -11.216  11.664  63.697  1.00  0.00    -0.497 A  
HETATM    8  C   UNL     1     -10.607  12.716  65.786  1.00  0.00    -0.296 A  
HETATM    9  C   UNL     1     -11.940  12.804  63.335  1.00  0.00    -0.613 A  
HETATM   10  O   UNL     1     -12.649  15.036  63.875  1.00  0.00    -0.813 OA 
HETATM   11  C   UNL     1     -11.980  13.894  64.200  1.00  0.00    -0.428 A  
ENDBRANCH   3   4
ENDBRANCH   2   3
BRANCH   2  12
HETATM   12  N   UNL     1     -10.323   8.636  66.983  1.00  0.00    -0.293 NA 
HETATM   13  H   UNL     1      -9.675   7.966  66.568  1.00  0.00     0.000 HD 
BRANCH  12  14
HETATM   14  C   UNL     1     -10.622   8.267  68.370  1.00  0.00    -0.099 C  
BRANCH  14  15
HETATM   15  C   UNL     1     -10.073   6.861  68.730  1.00  0.00    -0.166 C  
HETATM   16  H   UNL     1     -10.692   5.280  69.738  1.00  0.00     0.000 HD 
HETATM   17  O   UNL     1     -11.029   6.141  69.519  1.00  0.00    -0.320 OA 
BRANCH  15  18
HETATM   18  C   UNL     1      -9.740   6.058  67.486  1.00  0.00    -0.122 A  
HETATM   19  O   UNL     1      -6.817   5.017  65.503  1.00  0.00    -0.058 OA 
HETATM   20  C   UNL     1      -8.105   5.184  65.921  1.00  0.00    -0.109 A  
HETATM   21  C   UNL     1      -8.405   5.888  67.088  1.00  0.00    -0.105 A  
HETATM   22  C   UNL     1      -9.110   4.630  65.138  1.00  0.00    -0.155 A  
HETATM   23  H   UNL     1      -6.614   4.537  64.709  1.00  0.00     0.000 HD 
HETATM   24  C   UNL     1     -10.432   4.790  65.532  1.00  0.00    -0.134 A  
HETATM   25  O   UNL     1     -11.462   4.275  64.803  1.00  0.00    -0.995 OA 
HETATM   26  C   UNL     1     -10.751   5.492  66.690  1.00  0.00    -0.332 A  
HETATM   27  H   UNL     1     -12.367   4.385  65.072  1.00  0.00     0.000 HD 
ENDBRANCH  15  18
ENDBRANCH  14  15
ENDBRANCH  12  14
ENDBRANCH   2  12
TORSDOF 6
ENDMDL
MODEL      227
REMARK 921   NORMALIZED FREE ENERGY PREDICTED BY IDOCK:   -4.91 KCAL/MOL
REMARK 922        TOTAL FREE ENERGY PREDICTED BY IDOCK:   -7.24 KCAL/MOL
REMARK 923 INTER-LIGAND FREE ENERGY PREDICTED BY IDOCK:   -6.79 KCAL/MOL
REMARK 924 INTRA-LIGAND FREE ENERGY PREDICTED BY IDOCK:   -0.45 KCAL/MOL
REMARK 927      BINDING AFFINITY PREDICTED BY RF-SCORE:    0.00 PKD
ROOT
HETATM    1  C   UNL     1      -7.356   9.304  68.952  1.00  0.00    -0.074 C  
HETATM    2  C   UNL     1      -8.461   8.262  69.175  1.00  0.00    -0.127 C  
ENDROOT
BRANCH   2   3
HETATM    3  C   UNL     1      -8.794   8.223  70.691  1.00  0.00    -0.151 C  
BRANCH   3   4
HETATM    4  C   UNL     1     -10.267   8.142  71.020  1.00  0.00    -0.221 A  
HETATM    5  C   UNL     1     -12.294   9.208  71.829  1.00  0.00    -0.444 A  
HETATM    6  H   UNL     1     -14.775   8.808  72.199  1.00  0.00     0.000 HD 
HETATM    7  C   UNL     1     -10.993   6.963  70.799  1.00  0.00    -0.297 A  
HETATM    8  C   UNL     1     -10.930   9.261  71.544  1.00  0.00    -0.446 A  
HETATM    9  C   UNL     1     -12.360   6.909  71.087  1.00  0.00    -0.419 A  
HETATM   10  O   UNL     1     -14.338   8.037  71.856  1.00  0.00    -0.417 OA 
HETATM   11  C   UNL     1     -13.000   8.037  71.590  1.00  0.00    -0.328 A  
ENDBRANCH   3   4
ENDBRANCH   2   3
BRANCH   2  12
HETATM   12  N   UNL     1      -9.661   8.554  68.375  1.00  0.00    -0.145 NA 
HETATM   13  H   UNL     1     -10.473   8.674  68.981  1.00  0.00     0.000 HD 
BRANCH  12  14
HETATM   14  C   UNL     1      -9.520   9.702  67.474  1.00  0.00    -0.134 C  
BRANCH  14  15
HETATM   15  C   UNL     1     -10.890  10.348  67.137  1.00  0.00    -0.238 C  
HETATM   16  H   UNL     1     -12.451  11.032  68.134  1.00  0.00     0.000 HD 
HETATM   17  O   UNL     1     -11.613  10.636  68.341  1.00  0.00    -0.349 OA 
BRANCH  15  18
HETATM   18  C   UNL     1     -10.722  11.625  66.334  1.00  0.00    -0.316 A  
HETATM   19  O   UNL     1      -9.459  15.060  66.736  1.00  0.00    -0.222 OA 
HETATM   20  C   UNL     1     -10.015  13.942  66.189  1.00  0.00    -0.310 A  
HETATM   21  C   UNL     1     -10.131  12.756  66.917  1.00  0.00    -0.234 A  
HETATM   22  C   UNL     1     -10.468  14.026  64.878  1.00  0.00    -0.453 A  
HETATM   23  H   UNL     1      -9.380  15.867  66.241  1.00  0.00     0.000 HD 
HETATM   24  C   UNL     1     -11.048  12.908  64.296  1.00  0.00    -0.378 A  
HETATM   25  O   UNL     1     -11.516  12.930  63.015  1.00  0.00    -0.770 OA 
HETATM   26  C   UNL     1     -11.175  11.718  65.006  1.00  0.00    -0.318 A  
HETATM   27  H   UNL     1     -11.913  12.164  62.616  1.00  0.00     0.000 HD 
ENDBRANCH  15  18
ENDBRANCH  14  15
ENDBRANCH  12  14
ENDBRANCH   2  12
TORSDOF 6
ENDMDL
MODEL      228
REMARK 921   NORMALIZED FREE ENERGY PREDICTED BY IDOCK:   -4.91 KCAL/MOL
REMARK 922        TOTAL FREE ENERGY PREDICTED BY IDOCK:   -7.24 KCAL/MOL
REMARK 923 INTER-LIGAND FREE ENERGY PREDICTED BY IDOCK:   -6.29 KCAL/MOL
REMARK 924 INTRA-LIGAND FREE ENERGY PREDICTED BY IDOCK:   -0.95 KCAL/MOL
REMARK 927      BINDING AFFINITY PREDICTED BY RF-SCORE:    0.00 PKD
ROOT
HETATM    1  C   UNL     1      -9.422  17.267  68.523  1.00  0.00    -0.285 C  
HETATM    2  C   UNL     1      -9.824  16.703  67.153  1.00  0.00    -0.257 C  
ENDROOT
BRANCH   2   3
HETATM    3  C   UNL     1      -8.604  15.945  66.563  1.00  0.00    -0.345 C  
BRANCH   3   4
HETATM    4  C   UNL     1      -7.935  14.976  67.511  1.00  0.00    -0.198 A  
HETATM    5  C   UNL     1      -7.668  12.711  68.348  1.00  0.00    -0.133 A  
HETATM    6  H   UNL     1      -6.320  11.310  69.981  1.00  0.00     0.000 HD 
HETATM    7  C   UNL     1      -6.947  15.408  68.407  1.00  0.00    -0.111 A  
HETATM    8  C   UNL     1      -8.294  13.620  67.496  1.00  0.00    -0.191 A  
HETATM    9  C   UNL     1      -6.320  14.498  69.263  1.00  0.00    -0.117 A  
HETATM   10  O   UNL     1      -6.074  12.227  70.013  1.00  0.00    -0.145 OA 
HETATM   11  C   UNL     1      -6.680  13.154  69.217  1.00  0.00    -0.061 A  
ENDBRANCH   3   4
ENDBRANCH   2   3
BRANCH   2  12
HETATM   12  N   UNL     1     -11.002  15.827  67.243  1.00  0.00    -0.297 NA 
HETATM   13  H   UNL     1     -11.841  16.377  67.428  1.00  0.00     0.000 HD 
BRANCH  12  14
HETATM   14  C   UNL     1     -11.203  14.965  66.073  1.00  0.00    -0.327 C  
BRANCH  14  15
HETATM   15  C   UNL     1     -12.305  13.900  66.318  1.00  0.00    -0.449 C  
HETATM   16  H   UNL     1     -13.602  12.884  65.230  1.00  0.00     0.000 HD 
HETATM   17  O   UNL     1     -12.928  13.536  65.080  1.00  0.00    -0.719 OA 
BRANCH  15  18
HETATM   18  C   UNL     1     -11.741  12.657  66.981  1.00  0.00    -0.438 A  
HETATM   19  O   UNL     1     -11.162  11.274  70.344  1.00  0.00    -0.475 OA 
HETATM   20  C   UNL     1     -11.186  11.410  68.987  1.00  0.00    -0.256 A  
HETATM   21  C   UNL     1     -11.744  12.536  68.379  1.00  0.00    -0.375 A  
HETATM   22  C   UNL     1     -10.631  10.386  68.230  1.00  0.00    -0.245 A  
HETATM   23  H   UNL     1     -10.783  10.508  70.757  1.00  0.00     0.000 HD 
HETATM   24  C   UNL     1     -10.632  10.499  66.846  1.00  0.00    -0.243 A  
HETATM   25  O   UNL     1     -10.098   9.530  66.050  1.00  0.00    -0.295 OA 
HETATM   26  C   UNL     1     -11.180  11.615  66.222  1.00  0.00    -0.332 A  
HETATM   27  H   UNL     1     -10.098   9.607  65.103  1.00  0.00     0.000 HD 
ENDBRANCH  15  18
ENDBRANCH  14  15
ENDBRANCH  12  14
ENDBRANCH   2  12
TORSDOF 6
ENDMDL
MODEL      229
REMARK 921   NORMALIZED FREE ENERGY PREDICTED BY IDOCK:   -4.91 KCAL/MOL
REMARK 922        TOTAL FREE ENERGY PREDICTED BY IDOCK:   -7.24 KCAL/MOL
REMARK 923 INTER-LIGAND FREE ENERGY PREDICTED BY IDOCK:   -5.66 KCAL/MOL
REMARK 924 INTRA-LIGAND FREE ENERGY PREDICTED BY IDOCK:   -1.58 KCAL/MOL
REMARK 927      BINDING AFFINITY PREDICTED BY RF-SCORE:    0.00 PKD
ROOT
HETATM    1  C   UNL     1      -6.582  19.857  69.486  1.00  0.00    -0.372 C  
HETATM    2  C   UNL     1      -6.243  19.323  68.087  1.00  0.00    -0.218 C  
ENDROOT
BRANCH   2   3
HETATM    3  C   UNL     1      -5.492  17.974  68.251  1.00  0.00    -0.160 C  
BRANCH   3   4
HETATM    4  C   UNL     1      -6.383  16.758  68.360  1.00  0.00    -0.139 A  
HETATM    5  C   UNL     1      -7.730  15.263  69.721  1.00  0.00    -0.079 A  
HETATM    6  H   UNL     1      -9.263  13.243  69.587  1.00  0.00     0.000 HD 
HETATM    7  C   UNL     1      -6.725  16.008  67.225  1.00  0.00    -0.232 A  
HETATM    8  C   UNL     1      -6.888  16.369  69.609  1.00  0.00    -0.105 A  
HETATM    9  C   UNL     1      -7.568  14.899  67.337  1.00  0.00    -0.232 A  
HETATM   10  O   UNL     1      -8.919  13.486  68.735  1.00  0.00    -0.058 OA 
HETATM   11  C   UNL     1      -8.071  14.543  68.585  1.00  0.00    -0.150 A  
ENDBRANCH   3   4
ENDBRANCH   2   3
BRANCH   2  12
HETATM   12  N   UNL     1      -7.444  19.166  67.253  1.00  0.00    -0.227 NA 
HETATM   13  H   UNL     1      -7.587  18.185  67.015  1.00  0.00     0.000 HD 
BRANCH  12  14
HETATM   14  C   UNL     1      -8.664  19.734  67.838  1.00  0.00    -0.317 C  
BRANCH  14  15
HETATM   15  C   UNL     1      -9.902  19.509  66.932  1.00  0.00    -0.369 C  
HETATM   16  H   UNL     1     -10.379  19.791  65.036  1.00  0.00     0.000 HD 
HETATM   17  O   UNL     1      -9.620  19.929  65.591  1.00  0.00    -0.333 OA 
BRANCH  15  18
HETATM   18  C   UNL     1     -10.329  18.052  66.923  1.00  0.00    -0.377 A  
HETATM   19  O   UNL     1     -10.866  15.289  64.550  1.00  0.00    -0.634 OA 
HETATM   20  C   UNL     1     -10.803  16.006  65.708  1.00  0.00    -0.230 A  
HETATM   21  C   UNL     1     -10.369  17.333  65.719  1.00  0.00    -0.245 A  
HETATM   22  C   UNL     1     -11.189  15.368  66.880  1.00  0.00    -0.214 A  
HETATM   23  H   UNL     1     -11.160  14.386  64.543  1.00  0.00     0.000 HD 
HETATM   24  C   UNL     1     -11.145  16.074  68.075  1.00  0.00    -0.334 A  
HETATM   25  O   UNL     1     -11.516  15.504  69.256  1.00  0.00    -0.293 OA 
HETATM   26  C   UNL     1     -10.719  17.398  68.105  1.00  0.00    -0.343 A  
HETATM   27  H   UNL     1     -11.486  15.987  70.073  1.00  0.00     0.000 HD 
ENDBRANCH  15  18
ENDBRANCH  14  15
ENDBRANCH  12  14
ENDBRANCH   2  12
TORSDOF 6
ENDMDL
MODEL      230
REMARK 921   NORMALIZED FREE ENERGY PREDICTED BY IDOCK:   -4.90 KCAL/MOL
REMARK 922        TOTAL FREE ENERGY PREDICTED BY IDOCK:   -7.23 KCAL/MOL
REMARK 923 INTER-LIGAND FREE ENERGY PREDICTED BY IDOCK:   -6.67 KCAL/MOL
REMARK 924 INTRA-LIGAND FREE ENERGY PREDICTED BY IDOCK:   -0.56 KCAL/MOL
REMARK 927      BINDING AFFINITY PREDICTED BY RF-SCORE:    0.00 PKD
ROOT
HETATM    1  C   UNL     1      -8.914  16.312  69.057  1.00  0.00    -0.254 C  
HETATM    2  C   UNL     1      -8.886  16.181  67.528  1.00  0.00    -0.189 C  
ENDROOT
BRANCH   2   3
HETATM    3  C   UNL     1      -7.409  16.271  67.059  1.00  0.00    -0.264 C  
BRANCH   3   4
HETATM    4  C   UNL     1      -7.016  17.592  66.438  1.00  0.00    -0.300 A  
HETATM    5  C   UNL     1      -5.388  18.944  65.244  1.00  0.00    -0.215 A  
HETATM    6  H   UNL     1      -5.039  21.237  64.210  1.00  0.00     0.000 HD 
HETATM    7  C   UNL     1      -7.897  18.682  66.440  1.00  0.00    -0.305 A  
HETATM    8  C   UNL     1      -5.755  17.738  65.841  1.00  0.00    -0.217 A  
HETATM    9  C   UNL     1      -7.530  19.892  65.843  1.00  0.00    -0.342 A  
HETATM   10  O   UNL     1      -5.892  21.158  64.621  1.00  0.00    -0.246 OA 
HETATM   11  C   UNL     1      -6.280  20.007  65.241  1.00  0.00    -0.246 A  
ENDBRANCH   3   4
ENDBRANCH   2   3
BRANCH   2  12
HETATM   12  N   UNL     1      -9.513  14.930  67.072  1.00  0.00    -0.220 NA 
HETATM   13  H   UNL     1      -8.942  14.487  66.352  1.00  0.00     0.000 HD 
BRANCH  12  14
HETATM   14  C   UNL     1      -9.811  13.978  68.148  1.00  0.00    -0.235 C  
BRANCH  14  15
HETATM   15  C   UNL     1     -11.257  13.426  68.052  1.00  0.00    -0.268 C  
HETATM   16  H   UNL     1     -12.140  11.790  67.385  1.00  0.00     0.000 HD 
HETATM   17  O   UNL     1     -11.254  12.128  67.443  1.00  0.00    -0.264 OA 
BRANCH  15  18
HETATM   18  C   UNL     1     -11.912  13.339  69.418  1.00  0.00    -0.356 A  
HETATM   19  O   UNL     1     -12.903  10.817  71.911  1.00  0.00    -0.436 OA 
HETATM   20  C   UNL     1     -12.717  12.014  71.285  1.00  0.00    -0.279 A  
HETATM   21  C   UNL     1     -12.077  12.095  70.047  1.00  0.00    -0.352 A  
HETATM   22  C   UNL     1     -13.193  13.153  71.923  1.00  0.00    -0.526 A  
HETATM   23  H   UNL     1     -13.339  10.762  72.753  1.00  0.00     0.000 HD 
HETATM   24  C   UNL     1     -13.027  14.386  71.307  1.00  0.00    -0.344 A  
HETATM   25  O   UNL     1     -13.476  15.538  71.880  1.00  0.00    -0.434 OA 
HETATM   26  C   UNL     1     -12.394  14.487  70.072  1.00  0.00    -0.376 A  
HETATM   27  H   UNL     1     -13.363  16.382  71.458  1.00  0.00     0.000 HD 
ENDBRANCH  15  18
ENDBRANCH  14  15
ENDBRANCH  12  14
ENDBRANCH   2  12
TORSDOF 6
ENDMDL
MODEL      231
REMARK 921   NORMALIZED FREE ENERGY PREDICTED BY IDOCK:   -4.90 KCAL/MOL
REMARK 922        TOTAL FREE ENERGY PREDICTED BY IDOCK:   -7.22 KCAL/MOL
REMARK 923 INTER-LIGAND FREE ENERGY PREDICTED BY IDOCK:   -6.91 KCAL/MOL
REMARK 924 INTRA-LIGAND FREE ENERGY PREDICTED BY IDOCK:   -0.32 KCAL/MOL
REMARK 927      BINDING AFFINITY PREDICTED BY RF-SCORE:    0.00 PKD
ROOT
HETATM    1  C   UNL     1     -11.666  13.257  69.822  1.00  0.00    -0.354 C  
HETATM    2  C   UNL     1     -12.253  14.536  69.207  1.00  0.00    -0.229 C  
ENDROOT
BRANCH   2   3
HETATM    3  C   UNL     1     -11.660  15.755  69.963  1.00  0.00    -0.361 C  
BRANCH   3   4
HETATM    4  C   UNL     1     -10.494  16.428  69.275  1.00  0.00    -0.303 A  
HETATM    5  C   UNL     1      -9.642  18.204  67.852  1.00  0.00    -0.290 A  
HETATM    6  H   UNL     1      -7.497  19.171  66.899  1.00  0.00     0.000 HD 
HETATM    7  C   UNL     1      -9.187  15.946  69.430  1.00  0.00    -0.235 A  
HETATM    8  C   UNL     1     -10.711  17.558  68.474  1.00  0.00    -0.237 A  
HETATM    9  C   UNL     1      -8.115  16.591  68.806  1.00  0.00    -0.244 A  
HETATM   10  O   UNL     1      -7.334  18.399  67.428  1.00  0.00    -0.213 OA 
HETATM   11  C   UNL     1      -8.353  17.721  68.030  1.00  0.00    -0.249 A  
ENDBRANCH   3   4
ENDBRANCH   2   3
BRANCH   2  12
HETATM   12  N   UNL     1     -11.985  14.624  67.763  1.00  0.00    -0.545 NA 
HETATM   13  H   UNL     1     -11.850  15.596  67.485  1.00  0.00     0.000 HD 
BRANCH  12  14
HETATM   14  C   UNL     1     -10.861  13.799  67.307  1.00  0.00    -0.285 C  
BRANCH  14  15
HETATM   15  C   UNL     1     -11.198  13.028  66.004  1.00  0.00    -0.292 C  
HETATM   16  H   UNL     1     -10.748  13.163  64.085  1.00  0.00     0.000 HD 
HETATM   17  O   UNL     1     -10.542  13.635  64.883  1.00  0.00    -0.359 OA 
BRANCH  15  18
HETATM   18  C   UNL     1     -10.786  11.570  66.097  1.00  0.00    -0.324 A  
HETATM   19  O   UNL     1     -10.966   8.736  68.441  1.00  0.00    -0.450 OA 
HETATM   20  C   UNL     1     -10.685   9.487  67.337  1.00  0.00    -0.227 A  
HETATM   21  C   UNL     1     -11.102  10.816  67.237  1.00  0.00    -0.339 A  
HETATM   22  C   UNL     1      -9.964   8.882  66.316  1.00  0.00    -0.337 A  
HETATM   23  H   UNL     1     -10.683   7.832  68.508  1.00  0.00     0.000 HD 
HETATM   24  C   UNL     1      -9.655   9.623  65.183  1.00  0.00    -0.254 A  
HETATM   25  O   UNL     1      -8.946   9.086  64.150  1.00  0.00    -0.419 OA 
HETATM   26  C   UNL     1     -10.058  10.949  65.066  1.00  0.00    -0.362 A  
HETATM   27  H   UNL     1      -8.733   9.593  63.375  1.00  0.00     0.000 HD 
ENDBRANCH  15  18
ENDBRANCH  14  15
ENDBRANCH  12  14
ENDBRANCH   2  12
TORSDOF 6
ENDMDL
MODEL      232
REMARK 921   NORMALIZED FREE ENERGY PREDICTED BY IDOCK:   -4.88 KCAL/MOL
REMARK 922        TOTAL FREE ENERGY PREDICTED BY IDOCK:   -7.20 KCAL/MOL
REMARK 923 INTER-LIGAND FREE ENERGY PREDICTED BY IDOCK:   -6.56 KCAL/MOL
REMARK 924 INTRA-LIGAND FREE ENERGY PREDICTED BY IDOCK:   -0.64 KCAL/MOL
REMARK 927      BINDING AFFINITY PREDICTED BY RF-SCORE:    0.00 PKD
ROOT
HETATM    1  C   UNL     1      -9.485  15.314  69.116  1.00  0.00    -0.236 C  
HETATM    2  C   UNL     1      -9.971  15.044  67.685  1.00  0.00    -0.225 C  
ENDROOT
BRANCH   2   3
HETATM    3  C   UNL     1     -10.740  13.695  67.679  1.00  0.00    -0.253 C  
BRANCH   3   4
HETATM    4  C   UNL     1     -10.504  12.832  66.460  1.00  0.00    -0.276 A  
HETATM    5  C   UNL     1     -11.055  12.251  64.167  1.00  0.00    -0.423 A  
HETATM    6  H   UNL     1     -10.380  10.721  62.255  1.00  0.00     0.000 HD 
HETATM    7  C   UNL     1      -9.513  11.841  66.458  1.00  0.00    -0.225 A  
HETATM    8  C   UNL     1     -11.278  13.023  65.306  1.00  0.00    -0.316 A  
HETATM    9  C   UNL     1      -9.290  11.064  65.316  1.00  0.00    -0.245 A  
HETATM   10  O   UNL     1      -9.856  10.571  63.033  1.00  0.00    -0.315 OA 
HETATM   11  C   UNL     1     -10.059  11.284  64.177  1.00  0.00    -0.320 A  
ENDBRANCH   3   4
ENDBRANCH   2   3
BRANCH   2  12
HETATM   12  N   UNL     1     -10.812  16.138  67.175  1.00  0.00    -0.268 NA 
HETATM   13  H   UNL     1     -11.783  15.836  67.102  1.00  0.00     0.000 HD 
BRANCH  12  14
HETATM   14  C   UNL     1     -10.718  17.382  67.947  1.00  0.00    -0.351 C  
BRANCH  14  15
HETATM   15  C   UNL     1     -10.290  18.584  67.065  1.00  0.00    -0.399 C  
HETATM   16  H   UNL     1     -10.875  20.448  66.778  1.00  0.00     0.000 HD 
HETATM   17  O   UNL     1     -11.137  19.712  67.318  1.00  0.00    -0.417 OA 
BRANCH  15  18
HETATM   18  C   UNL     1      -8.845  18.973  67.316  1.00  0.00    -0.302 A  
HETATM   19  O   UNL     1      -6.650  20.017  70.082  1.00  0.00    -0.349 OA 
HETATM   20  C   UNL     1      -7.093  19.689  68.834  1.00  0.00    -0.353 A  
HETATM   21  C   UNL     1      -8.412  19.291  68.613  1.00  0.00    -0.403 A  
HETATM   22  C   UNL     1      -6.182  19.769  67.789  1.00  0.00    -0.233 A  
HETATM   23  H   UNL     1      -5.752  20.288  70.232  1.00  0.00     0.000 HD 
HETATM   24  C   UNL     1      -6.605  19.450  66.505  1.00  0.00    -0.186 A  
HETATM   25  O   UNL     1      -5.759  19.514  65.438  1.00  0.00    -0.161 OA 
HETATM   26  C   UNL     1      -7.916  19.054  66.264  1.00  0.00    -0.302 A  
HETATM   27  H   UNL     1      -6.049  19.296  64.559  1.00  0.00     0.000 HD 
ENDBRANCH  15  18
ENDBRANCH  14  15
ENDBRANCH  12  14
ENDBRANCH   2  12
TORSDOF 6
ENDMDL
MODEL      233
REMARK 921   NORMALIZED FREE ENERGY PREDICTED BY IDOCK:   -4.87 KCAL/MOL
REMARK 922        TOTAL FREE ENERGY PREDICTED BY IDOCK:   -7.19 KCAL/MOL
REMARK 923 INTER-LIGAND FREE ENERGY PREDICTED BY IDOCK:   -6.90 KCAL/MOL
REMARK 924 INTRA-LIGAND FREE ENERGY PREDICTED BY IDOCK:   -0.29 KCAL/MOL
REMARK 927      BINDING AFFINITY PREDICTED BY RF-SCORE:    0.00 PKD
ROOT
HETATM    1  C   UNL     1      -9.930   5.363  69.020  1.00  0.00    -0.260 C  
HETATM    2  C   UNL     1     -11.176   6.257  68.971  1.00  0.00    -0.343 C  
ENDROOT
BRANCH   2   3
HETATM    3  C   UNL     1     -11.760   6.358  70.406  1.00  0.00    -0.389 C  
BRANCH   3   4
HETATM    4  C   UNL     1     -10.778   6.804  71.464  1.00  0.00    -0.254 A  
HETATM    5  C   UNL     1      -9.478   8.575  72.502  1.00  0.00    -0.328 A  
HETATM    6  H   UNL     1      -7.899   9.052  74.433  1.00  0.00     0.000 HD 
HETATM    7  C   UNL     1     -10.274   5.901  72.411  1.00  0.00    -0.217 A  
HETATM    8  C   UNL     1     -10.365   8.144  71.516  1.00  0.00    -0.265 A  
HETATM    9  C   UNL     1      -9.384   6.332  73.398  1.00  0.00    -0.137 A  
HETATM   10  O   UNL     1      -8.159   8.139  74.404  1.00  0.00    -0.238 OA 
HETATM   11  C   UNL     1      -9.002   7.669  73.440  1.00  0.00    -0.227 A  
ENDBRANCH   3   4
ENDBRANCH   2   3
BRANCH   2  12
HETATM   12  N   UNL     1     -10.875   7.590  68.424  1.00  0.00    -0.416 NA 
HETATM   13  H   UNL     1     -10.154   8.048  68.981  1.00  0.00     0.000 HD 
BRANCH  12  14
HETATM   14  C   UNL     1     -10.504   7.590  67.005  1.00  0.00    -0.338 C  
BRANCH  14  15
HETATM   15  C   UNL     1      -9.433   8.666  66.684  1.00  0.00    -0.207 C  
HETATM   16  H   UNL     1      -7.834   8.817  65.535  1.00  0.00     0.000 HD 
HETATM   17  O   UNL     1      -8.489   8.159  65.732  1.00  0.00    -0.134 OA 
BRANCH  15  18
HETATM   18  C   UNL     1     -10.063   9.935  66.141  1.00  0.00    -0.315 A  
HETATM   19  O   UNL     1     -12.081  12.793  67.288  1.00  0.00    -0.399 OA 
HETATM   20  C   UNL     1     -11.380  11.944  66.483  1.00  0.00    -0.341 A  
HETATM   21  C   UNL     1     -10.766  10.799  66.994  1.00  0.00    -0.320 A  
HETATM   22  C   UNL     1     -11.300  12.259  65.133  1.00  0.00    -0.376 A  
HETATM   23  H   UNL     1     -12.498  13.572  66.940  1.00  0.00     0.000 HD 
HETATM   24  C   UNL     1     -10.601  11.410  64.286  1.00  0.00    -0.355 A  
HETATM   25  O   UNL     1     -10.492  11.662  62.951  1.00  0.00    -0.653 OA 
HETATM   26  C   UNL     1      -9.985  10.262  64.775  1.00  0.00    -0.392 A  
HETATM   27  H   UNL     1     -10.014  11.081  62.371  1.00  0.00     0.000 HD 
ENDBRANCH  15  18
ENDBRANCH  14  15
ENDBRANCH  12  14
ENDBRANCH   2  12
TORSDOF 6
ENDMDL
MODEL      234
REMARK 921   NORMALIZED FREE ENERGY PREDICTED BY IDOCK:   -4.87 KCAL/MOL
REMARK 922        TOTAL FREE ENERGY PREDICTED BY IDOCK:   -7.19 KCAL/MOL
REMARK 923 INTER-LIGAND FREE ENERGY PREDICTED BY IDOCK:   -6.68 KCAL/MOL
REMARK 924 INTRA-LIGAND FREE ENERGY PREDICTED BY IDOCK:   -0.51 KCAL/MOL
REMARK 927      BINDING AFFINITY PREDICTED BY RF-SCORE:    0.00 PKD
ROOT
HETATM    1  C   UNL     1     -11.262  11.832  63.567  1.00  0.00    -0.494 C  
HETATM    2  C   UNL     1     -10.872  12.245  64.993  1.00  0.00    -0.298 C  
ENDROOT
BRANCH   2   3
HETATM    3  C   UNL     1     -12.036  13.081  65.592  1.00  0.00    -0.479 C  
BRANCH   3   4
HETATM    4  C   UNL     1     -11.606  14.278  66.409  1.00  0.00    -0.381 A  
HETATM    5  C   UNL     1     -10.450  16.410  66.555  1.00  0.00    -0.282 A  
HETATM    6  H   UNL     1      -9.955  18.333  68.138  1.00  0.00     0.000 HD 
HETATM    7  C   UNL     1     -11.978  14.405  67.755  1.00  0.00    -0.368 A  
HETATM    8  C   UNL     1     -10.832  15.288  65.820  1.00  0.00    -0.363 A  
HETATM    9  C   UNL     1     -11.594  15.528  68.494  1.00  0.00    -0.379 A  
HETATM   10  O   UNL     1     -10.469  17.652  68.556  1.00  0.00    -0.359 OA 
HETATM   11  C   UNL     1     -10.841  16.526  67.882  1.00  0.00    -0.326 A  
ENDBRANCH   3   4
ENDBRANCH   2   3
BRANCH   2  12
HETATM   12  N   UNL     1     -10.565  11.081  65.838  1.00  0.00    -0.237 NA 
HETATM   13  H   UNL     1     -11.411  10.736  66.291  1.00  0.00     0.000 HD 
BRANCH  12  14
HETATM   14  C   UNL     1      -9.880   9.990  65.136  1.00  0.00    -0.318 C  
BRANCH  14  15
HETATM   15  C   UNL     1      -8.854   9.266  66.046  1.00  0.00    -0.160 C  
HETATM   16  H   UNL     1      -7.907   9.637  67.739  1.00  0.00     0.000 HD 
HETATM   17  O   UNL     1      -8.535  10.081  67.181  1.00  0.00    -0.124 OA 
BRANCH  15  18
HETATM   18  C   UNL     1      -9.381   7.925  66.523  1.00  0.00    -0.255 A  
HETATM   19  O   UNL     1     -11.736   6.539  68.991  1.00  0.00    -0.595 OA 
HETATM   20  C   UNL     1     -10.804   6.627  67.999  1.00  0.00    -0.271 A  
HETATM   21  C   UNL     1     -10.352   7.863  67.534  1.00  0.00    -0.329 A  
HETATM   22  C   UNL     1     -10.316   5.439  67.469  1.00  0.00    -0.246 A  
HETATM   23  H   UNL     1     -12.043   5.698  69.307  1.00  0.00     0.000 HD 
HETATM   24  C   UNL     1      -9.359   5.495  66.465  1.00  0.00    -0.147 A  
HETATM   25  O   UNL     1      -8.839   4.364  65.909  1.00  0.00    -0.117 OA 
HETATM   26  C   UNL     1      -8.894   6.718  65.990  1.00  0.00    -0.150 A  
HETATM   27  H   UNL     1      -8.184   4.403  65.222  1.00  0.00     0.000 HD 
ENDBRANCH  15  18
ENDBRANCH  14  15
ENDBRANCH  12  14
ENDBRANCH   2  12
TORSDOF 6
ENDMDL
MODEL      235
REMARK 921   NORMALIZED FREE ENERGY PREDICTED BY IDOCK:   -4.87 KCAL/MOL
REMARK 922        TOTAL FREE ENERGY PREDICTED BY IDOCK:   -7.19 KCAL/MOL
REMARK 923 INTER-LIGAND FREE ENERGY PREDICTED BY IDOCK:   -6.54 KCAL/MOL
REMARK 924 INTRA-LIGAND FREE ENERGY PREDICTED BY IDOCK:   -0.65 KCAL/MOL
REMARK 927      BINDING AFFINITY PREDICTED BY RF-SCORE:    0.00 PKD
ROOT
HETATM    1  C   UNL     1      -8.702  10.241  65.493  1.00  0.00    -0.176 C  
HETATM    2  C   UNL     1      -9.858   9.945  66.458  1.00  0.00    -0.215 C  
ENDROOT
BRANCH   2   3
HETATM    3  C   UNL     1     -10.933  11.051  66.283  1.00  0.00    -0.184 C  
BRANCH   3   4
HETATM    4  C   UNL     1     -11.366  11.729  67.563  1.00  0.00    -0.377 A  
HETATM    5  C   UNL     1     -11.788  11.617  69.953  1.00  0.00    -0.434 A  
HETATM    6  H   UNL     1     -12.463  13.033  71.951  1.00  0.00     0.000 HD 
HETATM    7  C   UNL     1     -11.716  13.087  67.580  1.00  0.00    -0.421 A  
HETATM    8  C   UNL     1     -11.414  11.000  68.760  1.00  0.00    -0.372 A  
HETATM    9  C   UNL     1     -12.093  13.706  68.775  1.00  0.00    -0.332 A  
HETATM   10  O   UNL     1     -12.448  13.538  71.146  1.00  0.00    -0.354 OA 
HETATM   11  C   UNL     1     -12.115  12.967  69.953  1.00  0.00    -0.265 A  
ENDBRANCH   3   4
ENDBRANCH   2   3
BRANCH   2  12
HETATM   12  N   UNL     1     -10.430   8.608  66.237  1.00  0.00    -0.233 NA 
HETATM   13  H   UNL     1     -10.336   8.337  65.258  1.00  0.00     0.000 HD 
BRANCH  12  14
HETATM   14  C   UNL     1      -9.883   7.565  67.111  1.00  0.00    -0.201 C  
BRANCH  14  15
HETATM   15  C   UNL     1     -10.968   6.551  67.557  1.00  0.00    -0.359 C  
HETATM   16  H   UNL     1     -11.641   4.794  66.957  1.00  0.00     0.000 HD 
HETATM   17  O   UNL     1     -10.976   5.415  66.683  1.00  0.00    -0.220 OA 
BRANCH  15  18
HETATM   18  C   UNL     1     -10.744   6.086  68.984  1.00  0.00    -0.393 A  
HETATM   19  O   UNL     1      -8.818   3.566  70.856  1.00  0.00    -0.075 OA 
HETATM   20  C   UNL     1      -9.673   4.588  70.565  1.00  0.00    -0.220 A  
HETATM   21  C   UNL     1      -9.846   5.042  69.257  1.00  0.00    -0.266 A  
HETATM   22  C   UNL     1     -10.370   5.161  71.621  1.00  0.00    -0.274 A  
HETATM   23  H   UNL     1      -8.701   3.258  71.746  1.00  0.00     0.000 HD 
HETATM   24  C   UNL     1     -11.255   6.198  71.357  1.00  0.00    -0.287 A  
HETATM   25  O   UNL     1     -11.972   6.797  72.351  1.00  0.00    -0.445 OA 
HETATM   26  C   UNL     1     -11.444   6.662  70.059  1.00  0.00    -0.434 A  
HETATM   27  H   UNL     1     -12.578   7.506  72.170  1.00  0.00     0.000 HD 
ENDBRANCH  15  18
ENDBRANCH  14  15
ENDBRANCH  12  14
ENDBRANCH   2  12
TORSDOF 6
ENDMDL
MODEL      236
REMARK 921   NORMALIZED FREE ENERGY PREDICTED BY IDOCK:   -4.86 KCAL/MOL
REMARK 922        TOTAL FREE ENERGY PREDICTED BY IDOCK:   -7.18 KCAL/MOL
REMARK 923 INTER-LIGAND FREE ENERGY PREDICTED BY IDOCK:   -6.81 KCAL/MOL
REMARK 924 INTRA-LIGAND FREE ENERGY PREDICTED BY IDOCK:   -0.37 KCAL/MOL
REMARK 927      BINDING AFFINITY PREDICTED BY RF-SCORE:    0.00 PKD
ROOT
HETATM    1  C   UNL     1     -12.901   9.867  71.225  1.00  0.00    -0.486 C  
HETATM    2  C   UNL     1     -11.726  10.393  70.388  1.00  0.00    -0.331 C  
ENDROOT
BRANCH   2   3
HETATM    3  C   UNL     1     -10.553   9.383  70.509  1.00  0.00    -0.331 C  
BRANCH   3   4
HETATM    4  C   UNL     1     -10.625   8.204  69.567  1.00  0.00    -0.215 A  
HETATM    5  C   UNL     1     -10.127   7.217  67.404  1.00  0.00    -0.266 A  
HETATM    6  H   UNL     1     -10.313   5.058  66.080  1.00  0.00     0.000 HD 
HETATM    7  C   UNL     1     -11.216   6.996  69.965  1.00  0.00    -0.310 A  
HETATM    8  C   UNL     1     -10.088   8.305  68.275  1.00  0.00    -0.231 A  
HETATM    9  C   UNL     1     -11.256   5.905  69.091  1.00  0.00    -0.217 A  
HETATM   10  O   UNL     1     -10.692   4.977  66.947  1.00  0.00    -0.193 OA 
HETATM   11  C   UNL     1     -10.701   6.024  67.821  1.00  0.00    -0.289 A  
ENDBRANCH   3   4
ENDBRANCH   2   3
BRANCH   2  12
HETATM   12  N   UNL     1     -12.104  10.603  68.982  1.00  0.00    -0.714 NA 
HETATM   13  H   UNL     1     -13.043  10.246  68.808  1.00  0.00     0.000 HD 
BRANCH  12  14
HETATM   14  C   UNL     1     -11.992  11.993  68.528  1.00  0.00    -0.214 C  
BRANCH  14  15
HETATM   15  C   UNL     1     -11.241  12.105  67.175  1.00  0.00    -0.314 C  
HETATM   16  H   UNL     1     -11.718  12.321  65.270  1.00  0.00     0.000 HD 
HETATM   17  O   UNL     1     -12.177  12.252  66.099  1.00  0.00    -0.647 OA 
BRANCH  15  18
HETATM   18  C   UNL     1     -10.278  13.277  67.167  1.00  0.00    -0.246 A  
HETATM   19  O   UNL     1      -6.659  13.950  67.238  1.00  0.00    -0.406 OA 
HETATM   20  C   UNL     1      -8.009  14.137  67.212  1.00  0.00    -0.150 A  
HETATM   21  C   UNL     1      -8.892  13.056  67.177  1.00  0.00    -0.218 A  
HETATM   22  C   UNL     1      -8.476  15.445  67.225  1.00  0.00    -0.214 A  
HETATM   23  H   UNL     1      -6.058  14.685  67.261  1.00  0.00     0.000 HD 
HETATM   24  C   UNL     1      -9.846  15.669  67.208  1.00  0.00    -0.225 A  
HETATM   25  O   UNL     1     -10.365  16.929  67.225  1.00  0.00    -0.299 OA 
HETATM   26  C   UNL     1     -10.743  14.605  67.177  1.00  0.00    -0.292 A  
HETATM   27  H   UNL     1     -11.303  17.082  67.214  1.00  0.00     0.000 HD 
ENDBRANCH  15  18
ENDBRANCH  14  15
ENDBRANCH  12  14
ENDBRANCH   2  12
TORSDOF 6
ENDMDL
MODEL      237
REMARK 921   NORMALIZED FREE ENERGY PREDICTED BY IDOCK:   -4.85 KCAL/MOL
REMARK 922        TOTAL FREE ENERGY PREDICTED BY IDOCK:   -7.15 KCAL/MOL
REMARK 923 INTER-LIGAND FREE ENERGY PREDICTED BY IDOCK:   -5.86 KCAL/MOL
REMARK 924 INTRA-LIGAND FREE ENERGY PREDICTED BY IDOCK:   -1.29 KCAL/MOL
REMARK 927      BINDING AFFINITY PREDICTED BY RF-SCORE:    0.00 PKD
ROOT
HETATM    1  C   UNL     1     -10.424  14.666  64.708  1.00  0.00    -0.343 C  
HETATM    2  C   UNL     1     -11.816  14.217  65.175  1.00  0.00    -0.384 C  
ENDROOT
BRANCH   2   3
HETATM    3  C   UNL     1     -12.227  12.969  64.349  1.00  0.00    -0.471 C  
BRANCH   3   4
HETATM    4  C   UNL     1     -11.167  11.897  64.242  1.00  0.00    -0.424 A  
HETATM    5  C   UNL     1      -9.358  10.857  62.998  1.00  0.00    -0.349 A  
HETATM    6  H   UNL     1      -7.613   9.017  63.135  1.00  0.00     0.000 HD 
HETATM    7  C   UNL     1     -10.970  10.970  65.275  1.00  0.00    -0.097 A  
HETATM    8  C   UNL     1     -10.356  11.825  63.100  1.00  0.00    -0.364 A  
HETATM    9  C   UNL     1      -9.971   9.997  65.173  1.00  0.00    -0.350 A  
HETATM   10  O   UNL     1      -8.162   9.044  63.910  1.00  0.00    -0.155 OA 
HETATM   11  C   UNL     1      -9.167   9.957  64.038  1.00  0.00    -0.253 A  
ENDBRANCH   3   4
ENDBRANCH   2   3
BRANCH   2  12
HETATM   12  N   UNL     1     -11.847  13.933  66.618  1.00  0.00    -0.396 NA 
HETATM   13  H   UNL     1     -12.268  13.021  66.793  1.00  0.00     0.000 HD 
BRANCH  12  14
HETATM   14  C   UNL     1     -10.541  14.029  67.280  1.00  0.00    -0.273 C  
BRANCH  14  15
HETATM   15  C   UNL     1     -10.390  12.991  68.423  1.00  0.00    -0.252 C  
HETATM   16  H   UNL     1     -11.537  11.665  69.332  1.00  0.00     0.000 HD 
HETATM   17  O   UNL     1     -11.629  12.300  68.633  1.00  0.00    -0.275 OA 
BRANCH  15  18
HETATM   18  C   UNL     1      -9.298  11.983  68.120  1.00  0.00    -0.199 A  
HETATM   19  O   UNL     1      -8.334   8.532  68.970  1.00  0.00    -0.115 OA 
HETATM   20  C   UNL     1      -8.319   9.784  68.429  1.00  0.00    -0.110 A  
HETATM   21  C   UNL     1      -9.347  10.695  68.676  1.00  0.00    -0.177 A  
HETATM   22  C   UNL     1      -7.238  10.122  67.624  1.00  0.00    -0.088 A  
HETATM   23  H   UNL     1      -7.635   7.912  68.801  1.00  0.00     0.000 HD 
HETATM   24  C   UNL     1      -7.189  11.392  67.066  1.00  0.00    -0.141 A  
HETATM   25  O   UNL     1      -6.152  11.784  66.272  1.00  0.00    -0.463 OA 
HETATM   26  C   UNL     1      -8.202  12.316  67.304  1.00  0.00    -0.182 A  
HETATM   27  H   UNL     1      -6.118  12.654  65.891  1.00  0.00     0.000 HD 
ENDBRANCH  15  18
ENDBRANCH  14  15
ENDBRANCH  12  14
ENDBRANCH   2  12
TORSDOF 6
ENDMDL
MODEL      238
REMARK 921   NORMALIZED FREE ENERGY PREDICTED BY IDOCK:   -4.83 KCAL/MOL
REMARK 922        TOTAL FREE ENERGY PREDICTED BY IDOCK:   -7.14 KCAL/MOL
REMARK 923 INTER-LIGAND FREE ENERGY PREDICTED BY IDOCK:   -7.08 KCAL/MOL
REMARK 924 INTRA-LIGAND FREE ENERGY PREDICTED BY IDOCK:   -0.06 KCAL/MOL
REMARK 927      BINDING AFFINITY PREDICTED BY RF-SCORE:    0.00 PKD
ROOT
HETATM    1  C   UNL     1     -12.998  10.273  71.354  1.00  0.00    -0.540 C  
HETATM    2  C   UNL     1     -11.754  10.686  70.554  1.00  0.00    -0.356 C  
ENDROOT
BRANCH   2   3
HETATM    3  C   UNL     1     -10.647   9.624  70.792  1.00  0.00    -0.392 C  
BRANCH   3   4
HETATM    4  C   UNL     1     -10.023   9.060  69.536  1.00  0.00    -0.193 A  
HETATM    5  C   UNL     1      -8.317   9.176  67.811  1.00  0.00    -0.117 A  
HETATM    6  H   UNL     1      -7.427   7.958  65.767  1.00  0.00     0.000 HD 
HETATM    7  C   UNL     1     -10.526   7.895  68.939  1.00  0.00    -0.205 A  
HETATM    8  C   UNL     1      -8.918   9.698  68.955  1.00  0.00    -0.148 A  
HETATM    9  C   UNL     1      -9.925   7.371  67.791  1.00  0.00    -0.208 A  
HETATM   10  O   UNL     1      -8.183   7.520  66.141  1.00  0.00    -0.112 OA 
HETATM   11  C   UNL     1      -8.818   8.012  67.243  1.00  0.00    -0.131 A  
ENDBRANCH   3   4
ENDBRANCH   2   3
BRANCH   2  12
HETATM   12  N   UNL     1     -12.048  10.836  69.120  1.00  0.00    -0.642 NA 
HETATM   13  H   UNL     1     -13.053  10.923  68.969  1.00  0.00     0.000 HD 
BRANCH  12  14
HETATM   14  C   UNL     1     -11.335  11.941  68.470  1.00  0.00    -0.276 C  
BRANCH  14  15
HETATM   15  C   UNL     1     -12.249  13.174  68.250  1.00  0.00    -0.026 C  
HETATM   16  H   UNL     1     -12.943  14.672  69.334  1.00  0.00     0.000 HD 
HETATM   17  O   UNL     1     -12.383  13.917  69.469  1.00  0.00    -0.333 OA 
BRANCH  15  18
HETATM   18  C   UNL     1     -11.707  14.084  67.164  1.00  0.00    -0.421 A  
HETATM   19  O   UNL     1     -12.512  15.177  63.741  1.00  0.00    -1.020 OA 
HETATM   20  C   UNL     1     -11.871  15.033  64.937  1.00  0.00    -0.298 A  
HETATM   21  C   UNL     1     -12.395  14.227  65.950  1.00  0.00    -0.420 A  
HETATM   22  C   UNL     1     -10.673  15.715  65.109  1.00  0.00    -0.463 A  
HETATM   23  H   UNL     1     -12.155  15.725  63.053  1.00  0.00     0.000 HD 
HETATM   24  C   UNL     1      -9.992  15.581  66.312  1.00  0.00    -0.293 A  
HETATM   25  O   UNL     1      -8.810  16.221  66.539  1.00  0.00    -0.226 OA 
HETATM   26  C   UNL     1     -10.496  14.780  67.332  1.00  0.00    -0.256 A  
HETATM   27  H   UNL     1      -8.344  16.129  67.361  1.00  0.00     0.000 HD 
ENDBRANCH  15  18
ENDBRANCH  14  15
ENDBRANCH  12  14
ENDBRANCH   2  12
TORSDOF 6
ENDMDL
MODEL      239
REMARK 921   NORMALIZED FREE ENERGY PREDICTED BY IDOCK:   -4.82 KCAL/MOL
REMARK 922        TOTAL FREE ENERGY PREDICTED BY IDOCK:   -7.12 KCAL/MOL
REMARK 923 INTER-LIGAND FREE ENERGY PREDICTED BY IDOCK:   -6.03 KCAL/MOL
REMARK 924 INTRA-LIGAND FREE ENERGY PREDICTED BY IDOCK:   -1.09 KCAL/MOL
REMARK 927      BINDING AFFINITY PREDICTED BY RF-SCORE:    0.00 PKD
ROOT
HETATM    1  C   UNL     1      -8.267   9.398  68.461  1.00  0.00    -0.113 C  
HETATM    2  C   UNL     1      -9.774   9.554  68.709  1.00  0.00    -0.159 C  
ENDROOT
BRANCH   2   3
HETATM    3  C   UNL     1     -10.506   9.438  67.344  1.00  0.00    -0.343 C  
BRANCH   3   4
HETATM    4  C   UNL     1     -10.645  10.736  66.582  1.00  0.00    -0.291 A  
HETATM    5  C   UNL     1     -11.315  13.071  66.526  1.00  0.00    -0.359 A  
HETATM    6  H   UNL     1     -11.340  15.127  65.036  1.00  0.00     0.000 HD 
HETATM    7  C   UNL     1     -10.215  10.843  65.252  1.00  0.00    -0.351 A  
HETATM    8  C   UNL     1     -11.203  11.860  67.209  1.00  0.00    -0.376 A  
HETATM    9  C   UNL     1     -10.329  12.056  64.566  1.00  0.00    -0.334 A  
HETATM   10  O   UNL     1     -10.972  14.372  64.593  1.00  0.00    -0.390 OA 
HETATM   11  C   UNL     1     -10.869  13.162  65.214  1.00  0.00    -0.297 A  
ENDBRANCH   3   4
ENDBRANCH   2   3
BRANCH   2  12
HETATM   12  N   UNL     1     -10.279   8.561  69.669  1.00  0.00    -0.203 NA 
HETATM   13  H   UNL     1     -11.183   8.199  69.365  1.00  0.00     0.000 HD 
BRANCH  12  14
HETATM   14  C   UNL     1      -9.351   7.458  69.941  1.00  0.00    -0.154 C  
BRANCH  14  15
HETATM   15  C   UNL     1      -9.960   6.080  69.572  1.00  0.00    -0.178 C  
HETATM   16  H   UNL     1     -11.751   5.247  69.558  1.00  0.00     0.000 HD 
HETATM   17  O   UNL     1     -11.378   6.091  69.785  1.00  0.00    -0.409 OA 
BRANCH  15  18
HETATM   18  C   UNL     1      -9.672   5.712  68.128  1.00  0.00    -0.153 A  
HETATM   19  O   UNL     1     -11.418   4.468  65.135  1.00  0.00    -1.105 OA 
HETATM   20  C   UNL     1     -10.432   4.904  65.970  1.00  0.00    -0.283 A  
HETATM   21  C   UNL     1     -10.708   5.282  67.285  1.00  0.00    -0.111 A  
HETATM   22  C   UNL     1      -9.139   4.955  65.465  1.00  0.00    -0.153 A  
HETATM   23  H   UNL     1     -11.230   4.211  64.240  1.00  0.00     0.000 HD 
HETATM   24  C   UNL     1      -8.112   5.386  66.293  1.00  0.00    -0.105 A  
HETATM   25  O   UNL     1      -6.822   5.453  65.857  1.00  0.00    -0.055 OA 
HETATM   26  C   UNL     1      -8.366   5.764  67.608  1.00  0.00    -0.104 A  
HETATM   27  H   UNL     1      -6.119   5.747  66.424  1.00  0.00     0.000 HD 
ENDBRANCH  15  18
ENDBRANCH  14  15
ENDBRANCH  12  14
ENDBRANCH   2  12
TORSDOF 6
ENDMDL
MODEL      240
REMARK 921   NORMALIZED FREE ENERGY PREDICTED BY IDOCK:   -4.81 KCAL/MOL
REMARK 922        TOTAL FREE ENERGY PREDICTED BY IDOCK:   -7.11 KCAL/MOL
REMARK 923 INTER-LIGAND FREE ENERGY PREDICTED BY IDOCK:   -6.74 KCAL/MOL
REMARK 924 INTRA-LIGAND FREE ENERGY PREDICTED BY IDOCK:   -0.37 KCAL/MOL
REMARK 927      BINDING AFFINITY PREDICTED BY RF-SCORE:    0.00 PKD
ROOT
HETATM    1  C   UNL     1     -10.775   8.564  67.818  1.00  0.00    -0.170 C  
HETATM    2  C   UNL     1     -10.772  10.098  67.759  1.00  0.00    -0.277 C  
ENDROOT
BRANCH   2   3
HETATM    3  C   UNL     1     -11.410  10.637  69.068  1.00  0.00    -0.340 C  
BRANCH   3   4
HETATM    4  C   UNL     1     -11.185   9.775  70.290  1.00  0.00    -0.347 A  
HETATM    5  C   UNL     1     -12.089   8.438  72.105  1.00  0.00    -0.435 A  
HETATM    6  H   UNL     1     -11.409   6.958  74.054  1.00  0.00     0.000 HD 
HETATM    7  C   UNL     1      -9.889   9.474  70.733  1.00  0.00    -0.309 A  
HETATM    8  C   UNL     1     -12.282   9.254  70.992  1.00  0.00    -0.322 A  
HETATM    9  C   UNL     1      -9.695   8.657  71.851  1.00  0.00    -0.383 A  
HETATM   10  O   UNL     1     -10.655   7.313  73.597  1.00  0.00    -0.375 OA 
HETATM   11  C   UNL     1     -10.799   8.138  72.521  1.00  0.00    -0.361 A  
ENDBRANCH   3   4
ENDBRANCH   2   3
BRANCH   2  12
HETATM   12  N   UNL     1      -9.417  10.638  67.567  1.00  0.00    -0.153 NA 
HETATM   13  H   UNL     1      -9.136  10.554  66.590  1.00  0.00     0.000 HD 
BRANCH  12  14
HETATM   14  C   UNL     1      -9.245  12.018  68.033  1.00  0.00    -0.192 C  
BRANCH  14  15
HETATM   15  C   UNL     1      -8.987  13.000  66.860  1.00  0.00    -0.209 C  
HETATM   16  H   UNL     1      -9.341  13.059  64.918  1.00  0.00     0.000 HD 
HETATM   17  O   UNL     1      -9.500  12.458  65.636  1.00  0.00    -0.168 OA 
BRANCH  15  18
HETATM   18  C   UNL     1      -9.623  14.354  67.116  1.00  0.00    -0.251 A  
HETATM   19  O   UNL     1     -12.426  15.842  68.982  1.00  0.00    -0.548 OA 
HETATM   20  C   UNL     1     -11.339  15.707  68.170  1.00  0.00    -0.340 A  
HETATM   21  C   UNL     1     -10.731  14.467  67.970  1.00  0.00    -0.244 A  
HETATM   22  C   UNL     1     -10.860  16.851  67.544  1.00  0.00    -0.207 A  
HETATM   23  H   UNL     1     -12.840  16.686  69.119  1.00  0.00     0.000 HD 
HETATM   24  C   UNL     1      -9.760  16.745  66.703  1.00  0.00    -0.269 A  
HETATM   25  O   UNL     1      -9.247  17.830  66.057  1.00  0.00    -0.503 OA 
HETATM   26  C   UNL     1      -9.142  15.517  66.489  1.00  0.00    -0.336 A  
HETATM   27  H   UNL     1      -8.495  17.757  65.481  1.00  0.00     0.000 HD 
ENDBRANCH  15  18
ENDBRANCH  14  15
ENDBRANCH  12  14
ENDBRANCH   2  12
TORSDOF 6
ENDMDL
MODEL      241
REMARK 921   NORMALIZED FREE ENERGY PREDICTED BY IDOCK:   -4.80 KCAL/MOL
REMARK 922        TOTAL FREE ENERGY PREDICTED BY IDOCK:   -7.09 KCAL/MOL
REMARK 923 INTER-LIGAND FREE ENERGY PREDICTED BY IDOCK:   -6.12 KCAL/MOL
REMARK 924 INTRA-LIGAND FREE ENERGY PREDICTED BY IDOCK:   -0.97 KCAL/MOL
REMARK 927      BINDING AFFINITY PREDICTED BY RF-SCORE:    0.00 PKD
ROOT
HETATM    1  C   UNL     1      -6.818  14.947  67.487  1.00  0.00    -0.189 C  
HETATM    2  C   UNL     1      -8.195  14.606  68.074  1.00  0.00    -0.145 C  
ENDROOT
BRANCH   2   3
HETATM    3  C   UNL     1      -8.507  13.120  67.752  1.00  0.00    -0.185 C  
BRANCH   3   4
HETATM    4  C   UNL     1      -9.703  12.899  66.854  1.00  0.00    -0.240 A  
HETATM    5  C   UNL     1     -11.886  11.901  66.482  1.00  0.00    -0.132 A  
HETATM    6  H   UNL     1     -13.790  11.781  64.806  1.00  0.00     0.000 HD 
HETATM    7  C   UNL     1      -9.776  13.495  65.587  1.00  0.00    -0.109 A  
HETATM    8  C   UNL     1     -10.766  12.094  67.289  1.00  0.00    -0.264 A  
HETATM    9  C   UNL     1     -10.897  13.300  64.776  1.00  0.00    -0.374 A  
HETATM   10  O   UNL     1     -13.073  12.319  64.491  1.00  0.00    -0.791 OA 
HETATM   11  C   UNL     1     -11.948  12.512  65.237  1.00  0.00    -0.438 A  
ENDBRANCH   3   4
ENDBRANCH   2   3
BRANCH   2  12
HETATM   12  N   UNL     1      -8.253  14.860  69.522  1.00  0.00    -0.404 NA 
HETATM   13  H   UNL     1      -7.378  15.271  69.847  1.00  0.00     0.000 HD 
BRANCH  12  14
HETATM   14  C   UNL     1      -9.392  15.681  69.946  1.00  0.00     0.025 C  
BRANCH  14  15
HETATM   15  C   UNL     1     -10.507  15.730  68.868  1.00  0.00    -0.223 C  
HETATM   16  H   UNL     1     -12.476  15.597  68.816  1.00  0.00     0.000 HD 
HETATM   17  O   UNL     1     -11.794  15.566  69.476  1.00  0.00    -0.334 OA 
BRANCH  15  18
HETATM   18  C   UNL     1     -10.478  17.037  68.097  1.00  0.00    -0.357 A  
HETATM   19  O   UNL     1      -9.914  20.631  68.663  1.00  0.00     0.023 OA 
HETATM   20  C   UNL     1     -10.190  19.446  68.048  1.00  0.00    -0.423 A  
HETATM   21  C   UNL     1     -10.175  18.240  68.752  1.00  0.00    -0.342 A  
HETATM   22  C   UNL     1     -10.492  19.482  66.693  1.00  0.00    -0.593 A  
HETATM   23  H   UNL     1      -9.925  21.451  68.184  1.00  0.00     0.000 HD 
HETATM   24  C   UNL     1     -10.787  18.293  66.039  1.00  0.00     0.019 A  
HETATM   25  O   UNL     1     -11.096  18.264  64.712  1.00  0.00    -0.542 OA 
HETATM   26  C   UNL     1     -10.780  17.082  66.724  1.00  0.00    -0.102 A  
HETATM   27  H   UNL     1     -11.298  17.451  64.265  1.00  0.00     0.000 HD 
ENDBRANCH  15  18
ENDBRANCH  14  15
ENDBRANCH  12  14
ENDBRANCH   2  12
TORSDOF 6
ENDMDL
MODEL      242
REMARK 921   NORMALIZED FREE ENERGY PREDICTED BY IDOCK:   -4.79 KCAL/MOL
REMARK 922        TOTAL FREE ENERGY PREDICTED BY IDOCK:   -7.08 KCAL/MOL
REMARK 923 INTER-LIGAND FREE ENERGY PREDICTED BY IDOCK:   -6.74 KCAL/MOL
REMARK 924 INTRA-LIGAND FREE ENERGY PREDICTED BY IDOCK:   -0.34 KCAL/MOL
REMARK 927      BINDING AFFINITY PREDICTED BY RF-SCORE:    0.00 PKD
ROOT
HETATM    1  C   UNL     1     -10.255  18.492  66.866  1.00  0.00    -0.411 C  
HETATM    2  C   UNL     1      -9.452  17.198  66.669  1.00  0.00    -0.264 C  
ENDROOT
BRANCH   2   3
HETATM    3  C   UNL     1      -7.972  17.580  66.400  1.00  0.00    -0.320 C  
BRANCH   3   4
HETATM    4  C   UNL     1      -7.362  18.523  67.413  1.00  0.00    -0.222 A  
HETATM    5  C   UNL     1      -6.616  20.756  68.012  1.00  0.00    -0.337 A  
HETATM    6  H   UNL     1      -5.662  22.117  69.932  1.00  0.00     0.000 HD 
HETATM    7  C   UNL     1      -7.004  18.076  68.693  1.00  0.00    -0.261 A  
HETATM    8  C   UNL     1      -7.155  19.870  67.080  1.00  0.00    -0.245 A  
HETATM    9  C   UNL     1      -6.461  18.964  69.626  1.00  0.00    -0.234 A  
HETATM   10  O   UNL     1      -5.784  21.205  70.169  1.00  0.00    -0.444 OA 
HETATM   11  C   UNL     1      -6.282  20.300  69.279  1.00  0.00    -0.321 A  
ENDBRANCH   3   4
ENDBRANCH   2   3
BRANCH   2  12
HETATM   12  N   UNL     1      -9.567  16.299  67.828  1.00  0.00    -0.223 NA 
HETATM   13  H   UNL     1     -10.086  16.752  68.581  1.00  0.00     0.000 HD 
BRANCH  12  14
HETATM   14  C   UNL     1     -10.152  14.990  67.520  1.00  0.00    -0.228 C  
BRANCH  14  15
HETATM   15  C   UNL     1      -9.276  14.180  66.527  1.00  0.00    -0.224 C  
HETATM   16  H   UNL     1      -7.905  12.763  66.632  1.00  0.00     0.000 HD 
HETATM   17  O   UNL     1      -8.441  13.258  67.240  1.00  0.00    -0.192 OA 
BRANCH  15  18
HETATM   18  C   UNL     1     -10.126  13.419  65.527  1.00  0.00    -0.279 A  
HETATM   19  O   UNL     1     -13.654  12.579  64.889  1.00  0.00    -0.341 OA 
HETATM   20  C   UNL     1     -12.297  12.645  64.768  1.00  0.00    -0.489 A  
HETATM   21  C   UNL     1     -11.522  13.381  65.666  1.00  0.00    -0.335 A  
HETATM   22  C   UNL     1     -11.712  11.949  63.718  1.00  0.00    -0.554 A  
HETATM   23  H   UNL     1     -14.181  12.079  64.277  1.00  0.00     0.000 HD 
HETATM   24  C   UNL     1     -10.332  11.988  63.573  1.00  0.00    -0.461 A  
HETATM   25  O   UNL     1      -9.699  11.322  62.566  1.00  0.00    -0.574 OA 
HETATM   26  C   UNL     1      -9.542  12.714  64.460  1.00  0.00     0.214 A  
HETATM   27  H   UNL     1      -8.754  11.348  62.467  1.00  0.00     0.000 HD 
ENDBRANCH  15  18
ENDBRANCH  14  15
ENDBRANCH  12  14
ENDBRANCH   2  12
TORSDOF 6
ENDMDL
MODEL      243
REMARK 921   NORMALIZED FREE ENERGY PREDICTED BY IDOCK:   -4.79 KCAL/MOL
REMARK 922        TOTAL FREE ENERGY PREDICTED BY IDOCK:   -7.08 KCAL/MOL
REMARK 923 INTER-LIGAND FREE ENERGY PREDICTED BY IDOCK:   -6.86 KCAL/MOL
REMARK 924 INTRA-LIGAND FREE ENERGY PREDICTED BY IDOCK:   -0.23 KCAL/MOL
REMARK 927      BINDING AFFINITY PREDICTED BY RF-SCORE:    0.00 PKD
ROOT
HETATM    1  C   UNL     1     -11.443  10.338  70.172  1.00  0.00    -0.383 C  
HETATM    2  C   UNL     1     -12.071  11.105  69.000  1.00  0.00    -0.246 C  
ENDROOT
BRANCH   2   3
HETATM    3  C   UNL     1     -11.847  12.623  69.236  1.00  0.00    -0.358 C  
BRANCH   3   4
HETATM    4  C   UNL     1     -11.501  13.417  67.998  1.00  0.00    -0.339 A  
HETATM    5  C   UNL     1     -12.058  14.129  65.743  1.00  0.00    -0.433 A  
HETATM    6  H   UNL     1     -11.272  15.626  63.848  1.00  0.00     0.000 HD 
HETATM    7  C   UNL     1     -10.342  14.204  67.944  1.00  0.00    -0.234 A  
HETATM    8  C   UNL     1     -12.352  13.382  66.883  1.00  0.00    -0.262 A  
HETATM    9  C   UNL     1     -10.046  14.952  66.800  1.00  0.00    -0.254 A  
HETATM   10  O   UNL     1     -10.680  15.651  64.589  1.00  0.00    -0.431 OA 
HETATM   11  C   UNL     1     -10.914  14.915  65.713  1.00  0.00    -0.345 A  
ENDBRANCH   3   4
ENDBRANCH   2   3
BRANCH   2  12
HETATM   12  N   UNL     1     -11.516  10.680  67.705  1.00  0.00    -0.598 NA 
HETATM   13  H   UNL     1     -11.645  11.411  67.006  1.00  0.00     0.000 HD 
BRANCH  12  14
HETATM   14  C   UNL     1     -10.110  10.265  67.759  1.00  0.00    -0.180 C  
BRANCH  14  15
HETATM   15  C   UNL     1      -9.775   9.207  66.675  1.00  0.00    -0.223 C  
HETATM   16  H   UNL     1     -10.597   7.560  65.958  1.00  0.00     0.000 HD 
HETATM   17  O   UNL     1     -10.802   8.208  66.622  1.00  0.00    -0.100 OA 
BRANCH  15  18
HETATM   18  C   UNL     1      -9.620   9.841  65.305  1.00  0.00    -0.368 A  
HETATM   19  O   UNL     1     -11.456  12.045  62.997  1.00  0.00    -0.680 OA 
HETATM   20  C   UNL     1     -10.493  11.234  63.520  1.00  0.00    -0.395 A  
HETATM   21  C   UNL     1     -10.619  10.685  64.798  1.00  0.00    -0.184 A  
HETATM   22  C   UNL     1      -9.380  10.969  62.733  1.00  0.00    -0.372 A  
HETATM   23  H   UNL     1     -11.370  12.418  62.128  1.00  0.00     0.000 HD 
HETATM   24  C   UNL     1      -8.386  10.139  63.233  1.00  0.00    -0.170 A  
HETATM   25  O   UNL     1      -7.273   9.838  62.506  1.00  0.00    -0.107 OA 
HETATM   26  C   UNL     1      -8.495   9.580  64.503  1.00  0.00    -0.191 A  
HETATM   27  H   UNL     1      -6.593   9.270  62.848  1.00  0.00     0.000 HD 
ENDBRANCH  15  18
ENDBRANCH  14  15
ENDBRANCH  12  14
ENDBRANCH   2  12
TORSDOF 6
ENDMDL
MODEL      244
REMARK 921   NORMALIZED FREE ENERGY PREDICTED BY IDOCK:   -4.78 KCAL/MOL
REMARK 922        TOTAL FREE ENERGY PREDICTED BY IDOCK:   -7.06 KCAL/MOL
REMARK 923 INTER-LIGAND FREE ENERGY PREDICTED BY IDOCK:   -6.68 KCAL/MOL
REMARK 924 INTRA-LIGAND FREE ENERGY PREDICTED BY IDOCK:   -0.38 KCAL/MOL
REMARK 927      BINDING AFFINITY PREDICTED BY RF-SCORE:    0.00 PKD
ROOT
HETATM    1  C   UNL     1     -12.471  11.053  70.310  1.00  0.00    -0.365 C  
HETATM    2  C   UNL     1     -11.475  11.011  69.143  1.00  0.00    -0.301 C  
ENDROOT
BRANCH   2   3
HETATM    3  C   UNL     1     -11.700  12.272  68.266  1.00  0.00    -0.392 C  
BRANCH   3   4
HETATM    4  C   UNL     1     -11.294  12.123  66.817  1.00  0.00    -0.398 A  
HETATM    5  C   UNL     1      -9.717  11.312  65.157  1.00  0.00    -0.285 A  
HETATM    6  H   UNL     1      -9.340  11.131  62.652  1.00  0.00     0.000 HD 
HETATM    7  C   UNL     1     -12.107  12.612  65.785  1.00  0.00    -0.484 A  
HETATM    8  C   UNL     1     -10.092  11.478  66.489  1.00  0.00    -0.246 A  
HETATM    9  C   UNL     1     -11.730  12.448  64.449  1.00  0.00    -0.435 A  
HETATM   10  O   UNL     1     -10.151  11.581  62.858  1.00  0.00    -0.306 OA 
HETATM   11  C   UNL     1     -10.542  11.789  64.147  1.00  0.00    -0.353 A  
ENDBRANCH   3   4
ENDBRANCH   2   3
BRANCH   2  12
HETATM   12  N   UNL     1     -10.083  10.930  69.611  1.00  0.00    -0.439 NA 
HETATM   13  H   UNL     1     -10.017  11.220  70.586  1.00  0.00     0.000 HD 
BRANCH  12  14
HETATM   14  C   UNL     1      -9.459   9.615  69.425  1.00  0.00    -0.192 C  
BRANCH  14  15
HETATM   15  C   UNL     1     -10.508   8.510  69.132  1.00  0.00    -0.205 C  
HETATM   16  H   UNL     1     -10.933   7.275  67.650  1.00  0.00     0.000 HD 
HETATM   17  O   UNL     1     -10.291   7.952  67.829  1.00  0.00    -0.205 OA 
BRANCH  15  18
HETATM   18  C   UNL     1     -10.455   7.403  70.168  1.00  0.00    -0.228 A  
HETATM   19  O   UNL     1     -12.619   5.774  72.663  1.00  0.00    -0.499 OA 
HETATM   20  C   UNL     1     -11.531   6.093  71.905  1.00  0.00    -0.300 A  
HETATM   21  C   UNL     1     -11.594   7.084  70.923  1.00  0.00    -0.370 A  
HETATM   22  C   UNL     1     -10.354   5.398  72.148  1.00  0.00    -0.265 A  
HETATM   23  H   UNL     1     -12.576   5.100  73.330  1.00  0.00     0.000 HD 
HETATM   24  C   UNL     1      -9.226   5.706  71.399  1.00  0.00    -0.146 A  
HETATM   25  O   UNL     1      -8.040   5.062  71.594  1.00  0.00    -0.109 OA 
HETATM   26  C   UNL     1      -9.268   6.692  70.418  1.00  0.00    -0.156 A  
HETATM   27  H   UNL     1      -7.268   5.273  71.082  1.00  0.00     0.000 HD 
ENDBRANCH  15  18
ENDBRANCH  14  15
ENDBRANCH  12  14
ENDBRANCH   2  12
TORSDOF 6
ENDMDL
MODEL      245
REMARK 921   NORMALIZED FREE ENERGY PREDICTED BY IDOCK:   -4.77 KCAL/MOL
REMARK 922        TOTAL FREE ENERGY PREDICTED BY IDOCK:   -7.05 KCAL/MOL
REMARK 923 INTER-LIGAND FREE ENERGY PREDICTED BY IDOCK:   -6.86 KCAL/MOL
REMARK 924 INTRA-LIGAND FREE ENERGY PREDICTED BY IDOCK:   -0.19 KCAL/MOL
REMARK 927      BINDING AFFINITY PREDICTED BY RF-SCORE:    0.00 PKD
ROOT
HETATM    1  C   UNL     1     -11.111  12.165  66.990  1.00  0.00    -0.347 C  
HETATM    2  C   UNL     1     -11.658  12.420  68.401  1.00  0.00    -0.324 C  
ENDROOT
BRANCH   2   3
HETATM    3  C   UNL     1     -12.143  11.066  68.986  1.00  0.00    -0.285 C  
BRANCH   3   4
HETATM    4  C   UNL     1     -11.106  10.307  69.783  1.00  0.00    -0.340 A  
HETATM    5  C   UNL     1     -10.511   9.011  71.749  1.00  0.00    -0.418 A  
HETATM    6  H   UNL     1      -8.598   7.726  72.816  1.00  0.00     0.000 HD 
HETATM    7  C   UNL     1      -9.797  10.154  69.305  1.00  0.00    -0.235 A  
HETATM    8  C   UNL     1     -11.451   9.734  71.015  1.00  0.00    -0.458 A  
HETATM    9  C   UNL     1      -8.854   9.431  70.040  1.00  0.00    -0.231 A  
HETATM   10  O   UNL     1      -8.345   8.118  71.989  1.00  0.00    -0.126 OA 
HETATM   11  C   UNL     1      -9.224   8.856  71.253  1.00  0.00    -0.258 A  
ENDBRANCH   3   4
ENDBRANCH   2   3
BRANCH   2  12
HETATM   12  N   UNL     1     -10.656  13.048  69.275  1.00  0.00    -0.439 NA 
HETATM   13  H   UNL     1      -9.904  13.456  68.719  1.00  0.00     0.000 HD 
BRANCH  12  14
HETATM   14  C   UNL     1     -11.203  14.043  70.204  1.00  0.00     0.050 C  
BRANCH  14  15
HETATM   15  C   UNL     1     -12.091  15.088  69.480  1.00  0.00    -0.276 C  
HETATM   16  H   UNL     1     -13.376  16.498  69.992  1.00  0.00     0.000 HD 
HETATM   17  O   UNL     1     -12.832  15.858  70.436  1.00  0.00    -0.385 OA 
BRANCH  15  18
HETATM   18  C   UNL     1     -11.263  16.022  68.617  1.00  0.00    -0.366 A  
HETATM   19  O   UNL     1      -9.311  19.131  68.900  1.00  0.00    -0.369 OA 
HETATM   20  C   UNL     1      -9.913  18.024  68.378  1.00  0.00    -0.378 A  
HETATM   21  C   UNL     1     -10.640  17.145  69.182  1.00  0.00    -0.259 A  
HETATM   22  C   UNL     1      -9.781  17.805  67.013  1.00  0.00    -0.290 A  
HETATM   23  H   UNL     1      -8.816  19.729  68.352  1.00  0.00     0.000 HD 
HETATM   24  C   UNL     1     -10.390  16.692  66.450  1.00  0.00    -0.306 A  
HETATM   25  O   UNL     1     -10.300  16.426  65.116  1.00  0.00    -0.610 OA 
HETATM   26  C   UNL     1     -11.121  15.806  67.234  1.00  0.00    -0.211 A  
HETATM   27  H   UNL     1     -10.718  15.665  64.730  1.00  0.00     0.000 HD 
ENDBRANCH  15  18
ENDBRANCH  14  15
ENDBRANCH  12  14
ENDBRANCH   2  12
TORSDOF 6
ENDMDL
MODEL      246
REMARK 921   NORMALIZED FREE ENERGY PREDICTED BY IDOCK:   -4.77 KCAL/MOL
REMARK 922        TOTAL FREE ENERGY PREDICTED BY IDOCK:   -7.05 KCAL/MOL
REMARK 923 INTER-LIGAND FREE ENERGY PREDICTED BY IDOCK:   -6.80 KCAL/MOL
REMARK 924 INTRA-LIGAND FREE ENERGY PREDICTED BY IDOCK:   -0.25 KCAL/MOL
REMARK 927      BINDING AFFINITY PREDICTED BY RF-SCORE:    0.00 PKD
ROOT
HETATM    1  C   UNL     1     -13.009   8.818  71.907  1.00  0.00    -0.421 C  
HETATM    2  C   UNL     1     -11.897   9.781  71.464  1.00  0.00    -0.399 C  
ENDROOT
BRANCH   2   3
HETATM    3  C   UNL     1     -10.536   9.198  71.930  1.00  0.00    -0.280 C  
BRANCH   3   4
HETATM    4  C   UNL     1     -10.529   7.705  72.171  1.00  0.00    -0.270 A  
HETATM    5  C   UNL     1     -10.549   5.834  73.720  1.00  0.00    -0.285 A  
HETATM    6  H   UNL     1     -10.627   3.297  73.818  1.00  0.00     0.000 HD 
HETATM    7  C   UNL     1     -10.533   6.800  71.100  1.00  0.00    -0.239 A  
HETATM    8  C   UNL     1     -10.530   7.208  73.482  1.00  0.00    -0.422 A  
HETATM    9  C   UNL     1     -10.549   5.422  71.338  1.00  0.00    -0.282 A  
HETATM   10  O   UNL     1     -10.614   3.618  72.924  1.00  0.00    -0.169 OA 
HETATM   11  C   UNL     1     -10.568   4.952  72.647  1.00  0.00    -0.215 A  
ENDBRANCH   3   4
ENDBRANCH   2   3
BRANCH   2  12
HETATM   12  N   UNL     1     -11.911  10.005  70.011  1.00  0.00    -0.456 NA 
HETATM   13  H   UNL     1     -12.725  10.559  69.743  1.00  0.00     0.000 HD 
BRANCH  12  14
HETATM   14  C   UNL     1     -10.684  10.609  69.482  1.00  0.00    -0.251 C  
BRANCH  14  15
HETATM   15  C   UNL     1     -10.984  11.714  68.435  1.00  0.00    -0.220 C  
HETATM   16  H   UNL     1     -12.399  12.111  67.115  1.00  0.00     0.000 HD 
HETATM   17  O   UNL     1     -12.215  11.434  67.756  1.00  0.00    -0.537 OA 
BRANCH  15  18
HETATM   18  C   UNL     1     -11.066  13.085  69.079  1.00  0.00    -0.281 A  
HETATM   19  O   UNL     1     -12.897  14.837  71.751  1.00  0.00    -0.299 OA 
HETATM   20  C   UNL     1     -12.045  14.586  70.717  1.00  0.00    -0.329 A  
HETATM   21  C   UNL     1     -11.941  13.313  70.153  1.00  0.00    -0.388 A  
HETATM   22  C   UNL     1     -11.284  15.646  70.240  1.00  0.00    -0.357 A  
HETATM   23  H   UNL     1     -12.967  15.703  72.134  1.00  0.00     0.000 HD 
HETATM   24  C   UNL     1     -10.413  15.424  69.182  1.00  0.00    -0.239 A  
HETATM   25  O   UNL     1      -9.644  16.425  68.667  1.00  0.00    -0.222 OA 
HETATM   26  C   UNL     1     -10.298  14.163  68.605  1.00  0.00    -0.243 A  
HETATM   27  H   UNL     1      -9.048  16.273  67.943  1.00  0.00     0.000 HD 
ENDBRANCH  15  18
ENDBRANCH  14  15
ENDBRANCH  12  14
ENDBRANCH   2  12
TORSDOF 6
ENDMDL
MODEL      247
REMARK 921   NORMALIZED FREE ENERGY PREDICTED BY IDOCK:   -4.77 KCAL/MOL
REMARK 922        TOTAL FREE ENERGY PREDICTED BY IDOCK:   -7.05 KCAL/MOL
REMARK 923 INTER-LIGAND FREE ENERGY PREDICTED BY IDOCK:   -6.47 KCAL/MOL
REMARK 924 INTRA-LIGAND FREE ENERGY PREDICTED BY IDOCK:   -0.58 KCAL/MOL
REMARK 927      BINDING AFFINITY PREDICTED BY RF-SCORE:    0.00 PKD
ROOT
HETATM    1  C   UNL     1      -9.544  10.846  67.922  1.00  0.00    -0.175 C  
HETATM    2  C   UNL     1     -10.439  10.717  69.163  1.00  0.00    -0.222 C  
ENDROOT
BRANCH   2   3
HETATM    3  C   UNL     1     -11.759  11.488  68.894  1.00  0.00    -0.403 C  
BRANCH   3   4
HETATM    4  C   UNL     1     -12.219  12.380  70.024  1.00  0.00    -0.264 A  
HETATM    5  C   UNL     1     -13.292  12.634  72.188  1.00  0.00    -0.570 A  
HETATM    6  H   UNL     1     -13.865  14.353  73.967  1.00  0.00     0.000 HD 
HETATM    7  C   UNL     1     -11.983  13.762  69.996  1.00  0.00    -0.407 A  
HETATM    8  C   UNL     1     -12.884  11.826  71.127  1.00  0.00    -0.365 A  
HETATM    9  C   UNL     1     -12.394  14.572  71.058  1.00  0.00    -0.417 A  
HETATM   10  O   UNL     1     -13.427  14.746  73.221  1.00  0.00    -0.561 OA 
HETATM   11  C   UNL     1     -13.036  13.998  72.151  1.00  0.00    -0.411 A  
ENDBRANCH   3   4
ENDBRANCH   2   3
BRANCH   2  12
HETATM   12  N   UNL     1     -10.704   9.311  69.504  1.00  0.00    -0.229 NA 
HETATM   13  H   UNL     1     -11.463   8.942  68.932  1.00  0.00     0.000 HD 
BRANCH  12  14
HETATM   14  C   UNL     1      -9.529   8.437  69.420  1.00  0.00    -0.158 C  
BRANCH  14  15
HETATM   15  C   UNL     1      -9.923   6.945  69.262  1.00  0.00    -0.159 C  
HETATM   16  H   UNL     1     -11.555   5.851  69.465  1.00  0.00     0.000 HD 
HETATM   17  O   UNL     1     -11.313   6.764  69.562  1.00  0.00    -0.282 OA 
BRANCH  15  18
HETATM   18  C   UNL     1      -9.642   6.439  67.859  1.00  0.00    -0.121 A  
HETATM   19  O   UNL     1      -6.981   6.522  65.315  1.00  0.00    -0.050 OA 
HETATM   20  C   UNL     1      -8.167   6.269  65.940  1.00  0.00    -0.129 A  
HETATM   21  C   UNL     1      -8.407   6.700  67.246  1.00  0.00    -0.120 A  
HETATM   22  C   UNL     1      -9.131   5.569  65.227  1.00  0.00    -0.021 A  
HETATM   23  H   UNL     1      -6.818   6.229  64.427  1.00  0.00     0.000 HD 
HETATM   24  C   UNL     1     -10.352   5.303  65.832  1.00  0.00    -0.055 A  
HETATM   25  O   UNL     1     -11.340   4.625  65.181  1.00  0.00    -0.988 OA 
HETATM   26  C   UNL     1     -10.612   5.727  67.131  1.00  0.00    -0.365 A  
HETATM   27  H   UNL     1     -12.176   4.444  65.595  1.00  0.00     0.000 HD 
ENDBRANCH  15  18
ENDBRANCH  14  15
ENDBRANCH  12  14
ENDBRANCH   2  12
TORSDOF 6
ENDMDL
MODEL      248
REMARK 921   NORMALIZED FREE ENERGY PREDICTED BY IDOCK:   -4.75 KCAL/MOL
REMARK 922        TOTAL FREE ENERGY PREDICTED BY IDOCK:   -7.03 KCAL/MOL
REMARK 923 INTER-LIGAND FREE ENERGY PREDICTED BY IDOCK:   -6.24 KCAL/MOL
REMARK 924 INTRA-LIGAND FREE ENERGY PREDICTED BY IDOCK:   -0.78 KCAL/MOL
REMARK 927      BINDING AFFINITY PREDICTED BY RF-SCORE:    0.00 PKD
ROOT
HETATM    1  C   UNL     1     -12.422  11.612  70.607  1.00  0.00    -0.386 C  
HETATM    2  C   UNL     1     -11.429  11.128  69.541  1.00  0.00    -0.303 C  
ENDROOT
BRANCH   2   3
HETATM    3  C   UNL     1     -10.792  12.374  68.868  1.00  0.00    -0.239 C  
BRANCH   3   4
HETATM    4  C   UNL     1     -11.243  12.634  67.449  1.00  0.00    -0.337 A  
HETATM    5  C   UNL     1     -11.119  12.105  65.082  1.00  0.00    -0.369 A  
HETATM    6  H   UNL     1     -12.127  12.695  62.827  1.00  0.00     0.000 HD 
HETATM    7  C   UNL     1     -12.215  13.604  67.166  1.00  0.00    -0.340 A  
HETATM    8  C   UNL     1     -10.694  11.893  66.393  1.00  0.00    -0.303 A  
HETATM    9  C   UNL     1     -12.640  13.819  65.852  1.00  0.00    -0.494 A  
HETATM   10  O   UNL     1     -12.500  13.214  63.530  1.00  0.00    -0.714 OA 
HETATM   11  C   UNL     1     -12.094  13.059  64.822  1.00  0.00    -0.415 A  
ENDBRANCH   3   4
ENDBRANCH   2   3
BRANCH   2  12
HETATM   12  N   UNL     1     -10.398  10.246  70.110  1.00  0.00    -0.426 NA 
HETATM   13  H   UNL     1     -10.494  10.194  71.124  1.00  0.00     0.000 HD 
BRANCH  12  14
HETATM   14  C   UNL     1     -10.369   8.899  69.529  1.00  0.00    -0.213 C  
BRANCH  14  15
HETATM   15  C   UNL     1      -8.972   8.544  68.954  1.00  0.00    -0.146 C  
HETATM   16  H   UNL     1      -8.251   7.737  67.302  1.00  0.00     0.000 HD 
HETATM   17  O   UNL     1      -9.106   7.954  67.654  1.00  0.00    -0.133 OA 
BRANCH  15  18
HETATM   18  C   UNL     1      -8.080   9.768  68.861  1.00  0.00    -0.101 A  
HETATM   19  O   UNL     1      -6.777  12.120  66.346  1.00  0.00    -0.366 OA 
HETATM   20  C   UNL     1      -7.013  11.498  67.537  1.00  0.00    -0.102 A  
HETATM   21  C   UNL     1      -7.867  10.398  67.626  1.00  0.00    -0.105 A  
HETATM   22  C   UNL     1      -6.367  11.998  68.660  1.00  0.00    -0.059 A  
HETATM   23  H   UNL     1      -6.196  12.869  66.286  1.00  0.00     0.000 HD 
HETATM   24  C   UNL     1      -6.579  11.382  69.886  1.00  0.00    -0.081 A  
HETATM   25  O   UNL     1      -5.970  11.823  71.023  1.00  0.00    -0.469 OA 
HETATM   26  C   UNL     1      -7.425  10.282  69.994  1.00  0.00    -0.143 A  
HETATM   27  H   UNL     1      -6.115  11.400  71.862  1.00  0.00     0.000 HD 
ENDBRANCH  15  18
ENDBRANCH  14  15
ENDBRANCH  12  14
ENDBRANCH   2  12
TORSDOF 6
ENDMDL
MODEL      249
REMARK 921   NORMALIZED FREE ENERGY PREDICTED BY IDOCK:   -4.74 KCAL/MOL
REMARK 922        TOTAL FREE ENERGY PREDICTED BY IDOCK:   -7.02 KCAL/MOL
REMARK 923 INTER-LIGAND FREE ENERGY PREDICTED BY IDOCK:   -6.48 KCAL/MOL
REMARK 924 INTRA-LIGAND FREE ENERGY PREDICTED BY IDOCK:   -0.54 KCAL/MOL
REMARK 927      BINDING AFFINITY PREDICTED BY RF-SCORE:    0.00 PKD
ROOT
HETATM    1  C   UNL     1     -12.408  11.533  70.643  1.00  0.00    -0.457 C  
HETATM    2  C   UNL     1     -11.457  10.789  69.696  1.00  0.00    -0.305 C  
ENDROOT
BRANCH   2   3
HETATM    3  C   UNL     1     -10.639  11.843  68.901  1.00  0.00    -0.205 C  
BRANCH   3   4
HETATM    4  C   UNL     1     -10.936  11.898  67.420  1.00  0.00    -0.315 A  
HETATM    5  C   UNL     1     -10.620  10.998  65.186  1.00  0.00    -0.295 A  
HETATM    6  H   UNL     1     -11.371  11.272  62.775  1.00  0.00     0.000 HD 
HETATM    7  C   UNL     1     -11.815  12.855  66.894  1.00  0.00    -0.444 A  
HETATM    8  C   UNL     1     -10.337  10.975  66.551  1.00  0.00    -0.295 A  
HETATM    9  C   UNL     1     -12.099  12.880  65.525  1.00  0.00    -0.507 A  
HETATM   10  O   UNL     1     -11.776  11.912  63.349  1.00  0.00    -0.447 OA 
HETATM   11  C   UNL     1     -11.505  11.943  64.685  1.00  0.00    -0.279 A  
ENDBRANCH   3   4
ENDBRANCH   2   3
BRANCH   2  12
HETATM   12  N   UNL     1     -10.571   9.865  70.420  1.00  0.00    -0.291 NA 
HETATM   13  H   UNL     1      -9.822  10.379  70.884  1.00  0.00     0.000 HD 
BRANCH  12  14
HETATM   14  C   UNL     1     -11.261   8.992  71.376  1.00  0.00    -0.324 C  
BRANCH  14  15
HETATM   15  C   UNL     1     -11.012   7.490  71.078  1.00  0.00    -0.251 C  
HETATM   16  H   UNL     1     -12.099   5.850  70.907  1.00  0.00     0.000 HD 
HETATM   17  O   UNL     1     -12.251   6.770  71.090  1.00  0.00    -0.368 OA 
BRANCH  15  18
HETATM   18  C   UNL     1     -10.330   7.294  69.737  1.00  0.00    -0.227 A  
HETATM   19  O   UNL     1     -11.140   6.321  66.279  1.00  0.00    -0.591 OA 
HETATM   20  C   UNL     1     -10.440   6.700  67.387  1.00  0.00    -0.260 A  
HETATM   21  C   UNL     1     -11.077   6.920  68.609  1.00  0.00    -0.152 A  
HETATM   22  C   UNL     1      -9.066   6.855  67.255  1.00  0.00    -0.127 A  
HETATM   23  H   UNL     1     -10.706   6.172  65.447  1.00  0.00     0.000 HD 
HETATM   24  C   UNL     1      -8.324   7.232  68.366  1.00  0.00    -0.125 A  
HETATM   25  O   UNL     1      -6.972   7.395  68.301  1.00  0.00    -0.073 OA 
HETATM   26  C   UNL     1      -8.940   7.452  69.594  1.00  0.00    -0.141 A  
HETATM   27  H   UNL     1      -6.464   7.652  69.062  1.00  0.00     0.000 HD 
ENDBRANCH  15  18
ENDBRANCH  14  15
ENDBRANCH  12  14
ENDBRANCH   2  12
TORSDOF 6
ENDMDL
MODEL      250
REMARK 921   NORMALIZED FREE ENERGY PREDICTED BY IDOCK:   -4.73 KCAL/MOL
REMARK 922        TOTAL FREE ENERGY PREDICTED BY IDOCK:   -7.00 KCAL/MOL
REMARK 923 INTER-LIGAND FREE ENERGY PREDICTED BY IDOCK:   -6.61 KCAL/MOL
REMARK 924 INTRA-LIGAND FREE ENERGY PREDICTED BY IDOCK:   -0.39 KCAL/MOL
REMARK 927      BINDING AFFINITY PREDICTED BY RF-SCORE:    0.00 PKD
ROOT
HETATM    1  C   UNL     1     -10.644   5.885  67.046  1.00  0.00    -0.376 C  
HETATM    2  C   UNL     1     -10.370   7.102  67.941  1.00  0.00    -0.198 C  
ENDROOT
BRANCH   2   3
HETATM    3  C   UNL     1     -10.612   8.386  67.103  1.00  0.00    -0.326 C  
BRANCH   3   4
HETATM    4  C   UNL     1      -9.459   8.795  66.215  1.00  0.00    -0.300 A  
HETATM    5  C   UNL     1      -7.424   8.211  65.023  1.00  0.00    -0.087 A  
HETATM    6  H   UNL     1      -5.663   9.154  63.454  1.00  0.00     0.000 HD 
HETATM    7  C   UNL     1      -9.354  10.103  65.723  1.00  0.00    -0.239 A  
HETATM    8  C   UNL     1      -8.479   7.855  65.862  1.00  0.00    -0.147 A  
HETATM    9  C   UNL     1      -8.295  10.462  64.884  1.00  0.00    -0.165 A  
HETATM   10  O   UNL     1      -6.312   9.806  63.694  1.00  0.00    -0.105 OA 
HETATM   11  C   UNL     1      -7.344   9.508  64.533  1.00  0.00    -0.114 A  
ENDBRANCH   3   4
ENDBRANCH   2   3
BRANCH   2  12
HETATM   12  N   UNL     1     -11.206   7.092  69.152  1.00  0.00    -0.486 NA 
HETATM   13  H   UNL     1     -11.214   6.162  69.571  1.00  0.00     0.000 HD 
BRANCH  12  14
HETATM   14  C   UNL     1     -10.833   8.100  70.150  1.00  0.00    -0.241 C  
BRANCH  14  15
HETATM   15  C   UNL     1     -12.048   8.554  71.000  1.00  0.00    -0.205 C  
HETATM   16  H   UNL     1     -12.653   8.374  72.872  1.00  0.00     0.000 HD 
HETATM   17  O   UNL     1     -11.908   8.096  72.352  1.00  0.00    -0.352 OA 
BRANCH  15  18
HETATM   18  C   UNL     1     -12.199  10.064  70.995  1.00  0.00    -0.462 A  
HETATM   19  O   UNL     1     -10.964  13.013  69.168  1.00  0.00    -0.359 OA 
HETATM   20  C   UNL     1     -11.627  12.233  70.070  1.00  0.00    -0.157 A  
HETATM   21  C   UNL     1     -11.518  10.841  70.046  1.00  0.00    -0.412 A  
HETATM   22  C   UNL     1     -12.413  12.875  71.018  1.00  0.00    -0.374 A  
HETATM   23  H   UNL     1     -11.038  13.959  69.185  1.00  0.00     0.000 HD 
HETATM   24  C   UNL     1     -13.093  12.110  71.955  1.00  0.00    -0.357 A  
HETATM   25  O   UNL     1     -13.876  12.682  72.913  1.00  0.00    -0.628 OA 
HETATM   26  C   UNL     1     -12.995  10.722  71.950  1.00  0.00    -0.524 A  
HETATM   27  H   UNL     1     -14.341  12.159  73.555  1.00  0.00     0.000 HD 
ENDBRANCH  15  18
ENDBRANCH  14  15
ENDBRANCH  12  14
ENDBRANCH   2  12
TORSDOF 6
ENDMDL
MODEL      251
REMARK 921   NORMALIZED FREE ENERGY PREDICTED BY IDOCK:   -4.73 KCAL/MOL
REMARK 922        TOTAL FREE ENERGY PREDICTED BY IDOCK:   -7.00 KCAL/MOL
REMARK 923 INTER-LIGAND FREE ENERGY PREDICTED BY IDOCK:   -6.48 KCAL/MOL
REMARK 924 INTRA-LIGAND FREE ENERGY PREDICTED BY IDOCK:   -0.52 KCAL/MOL
REMARK 927      BINDING AFFINITY PREDICTED BY RF-SCORE:    0.00 PKD
ROOT
HETATM    1  C   UNL     1      -9.690  12.328  67.912  1.00  0.00    -0.202 C  
HETATM    2  C   UNL     1     -11.022  12.792  68.517  1.00  0.00    -0.258 C  
ENDROOT
BRANCH   2   3
HETATM    3  C   UNL     1     -11.674  13.806  67.539  1.00  0.00    -0.410 C  
BRANCH   3   4
HETATM    4  C   UNL     1     -10.969  15.140  67.439  1.00  0.00    -0.314 A  
HETATM    5  C   UNL     1     -10.113  17.142  68.517  1.00  0.00    -0.329 A  
HETATM    6  H   UNL     1      -8.825  19.284  68.063  1.00  0.00     0.000 HD 
HETATM    7  C   UNL     1     -10.486  15.613  66.211  1.00  0.00    -0.313 A  
HETATM    8  C   UNL     1     -10.782  15.921  68.589  1.00  0.00    -0.274 A  
HETATM    9  C   UNL     1      -9.816  16.838  66.137  1.00  0.00    -0.330 A  
HETATM   10  O   UNL     1      -8.955  18.773  67.273  1.00  0.00    -0.270 OA 
HETATM   11  C   UNL     1      -9.627  17.587  67.294  1.00  0.00    -0.273 A  
ENDBRANCH   3   4
ENDBRANCH   2   3
BRANCH   2  12
HETATM   12  N   UNL     1     -11.924  11.663  68.792  1.00  0.00    -0.408 NA 
HETATM   13  H   UNL     1     -12.371  11.347  67.931  1.00  0.00     0.000 HD 
BRANCH  12  14
HETATM   14  C   UNL     1     -11.287  10.536  69.481  1.00  0.00    -0.278 C  
BRANCH  14  15
HETATM   15  C   UNL     1     -11.704  10.457  70.974  1.00  0.00    -0.337 C  
HETATM   16  H   UNL     1     -13.313  10.849  72.049  1.00  0.00     0.000 HD 
HETATM   17  O   UNL     1     -13.058  10.897  71.136  1.00  0.00    -0.355 OA 
BRANCH  15  18
HETATM   18  C   UNL     1     -11.565   9.047  71.517  1.00  0.00    -0.413 A  
HETATM   19  O   UNL     1     -13.659   6.153  72.410  1.00  0.00    -0.391 OA 
HETATM   20  C   UNL     1     -12.572   6.956  72.224  1.00  0.00    -0.005 A  
HETATM   21  C   UNL     1     -12.698   8.237  71.684  1.00  0.00    -0.351 A  
HETATM   22  C   UNL     1     -11.332   6.452  72.594  1.00  0.00    -0.266 A  
HETATM   23  H   UNL     1     -13.573   5.282  72.777  1.00  0.00     0.000 HD 
HETATM   24  C   UNL     1     -10.207   7.248  72.426  1.00  0.00    -0.196 A  
HETATM   25  O   UNL     1      -8.964   6.812  72.775  1.00  0.00    -0.128 OA 
HETATM   26  C   UNL     1     -10.313   8.529  71.893  1.00  0.00    -0.378 A  
HETATM   27  H   UNL     1      -8.194   7.357  72.660  1.00  0.00     0.000 HD 
ENDBRANCH  15  18
ENDBRANCH  14  15
ENDBRANCH  12  14
ENDBRANCH   2  12
TORSDOF 6
ENDMDL
MODEL      252
REMARK 921   NORMALIZED FREE ENERGY PREDICTED BY IDOCK:   -4.68 KCAL/MOL
REMARK 922        TOTAL FREE ENERGY PREDICTED BY IDOCK:   -6.93 KCAL/MOL
REMARK 923 INTER-LIGAND FREE ENERGY PREDICTED BY IDOCK:   -6.08 KCAL/MOL
REMARK 924 INTRA-LIGAND FREE ENERGY PREDICTED BY IDOCK:   -0.85 KCAL/MOL
REMARK 927      BINDING AFFINITY PREDICTED BY RF-SCORE:    0.00 PKD
ROOT
HETATM    1  C   UNL     1      -9.853   4.011  70.647  1.00  0.00    -0.229 C  
HETATM    2  C   UNL     1      -9.992   5.502  70.308  1.00  0.00    -0.216 C  
ENDROOT
BRANCH   2   3
HETATM    3  C   UNL     1     -10.721   5.624  68.943  1.00  0.00    -0.280 C  
BRANCH   3   4
HETATM    4  C   UNL     1      -9.917   6.284  67.846  1.00  0.00    -0.147 A  
HETATM    5  C   UNL     1      -9.632   8.105  66.264  1.00  0.00    -0.248 A  
HETATM    6  H   UNL     1      -8.036   9.029  64.517  1.00  0.00     0.000 HD 
HETATM    7  C   UNL     1      -8.705   5.732  67.407  1.00  0.00    -0.107 A  
HETATM    8  C   UNL     1     -10.375   7.472  67.259  1.00  0.00    -0.366 A  
HETATM    9  C   UNL     1      -7.960   6.365  66.407  1.00  0.00    -0.110 A  
HETATM   10  O   UNL     1      -7.718   8.218  64.896  1.00  0.00    -0.101 OA 
HETATM   11  C   UNL     1      -8.426   7.552  65.852  1.00  0.00    -0.147 A  
ENDBRANCH   3   4
ENDBRANCH   2   3
BRANCH   2  12
HETATM   12  N   UNL     1     -10.706   6.240  71.361  1.00  0.00    -0.239 NA 
HETATM   13  H   UNL     1     -10.071   6.875  71.845  1.00  0.00     0.000 HD 
BRANCH  12  14
HETATM   14  C   UNL     1     -11.893   6.964  70.891  1.00  0.00    -0.376 C  
BRANCH  14  15
HETATM   15  C   UNL     1     -12.443   7.938  71.966  1.00  0.00    -0.304 C  
HETATM   16  H   UNL     1     -12.024   8.416  73.836  1.00  0.00     0.000 HD 
HETATM   17  O   UNL     1     -11.687   7.819  73.178  1.00  0.00    -0.226 OA 
BRANCH  15  18
HETATM   18  C   UNL     1     -12.400   9.378  71.487  1.00  0.00    -0.452 A  
HETATM   19  O   UNL     1     -13.771  12.681  72.364  1.00  0.00    -0.566 OA 
HETATM   20  C   UNL     1     -13.090  11.693  71.715  1.00  0.00    -0.382 A  
HETATM   21  C   UNL     1     -13.097  10.377  72.183  1.00  0.00    -0.427 A  
HETATM   22  C   UNL     1     -12.391  12.043  70.568  1.00  0.00    -0.369 A  
HETATM   23  H   UNL     1     -13.766  13.575  72.046  1.00  0.00     0.000 HD 
HETATM   24  C   UNL     1     -11.695  11.059  69.880  1.00  0.00    -0.346 A  
HETATM   25  O   UNL     1     -10.994  11.340  68.745  1.00  0.00    -0.190 OA 
HETATM   26  C   UNL     1     -11.692   9.741  70.327  1.00  0.00    -0.253 A  
HETATM   27  H   UNL     1     -10.518  10.666  68.273  1.00  0.00     0.000 HD 
ENDBRANCH  15  18
ENDBRANCH  14  15
ENDBRANCH  12  14
ENDBRANCH   2  12
TORSDOF 6
ENDMDL
MODEL      253
REMARK 921   NORMALIZED FREE ENERGY PREDICTED BY IDOCK:   -4.67 KCAL/MOL
REMARK 922        TOTAL FREE ENERGY PREDICTED BY IDOCK:   -6.92 KCAL/MOL
REMARK 923 INTER-LIGAND FREE ENERGY PREDICTED BY IDOCK:   -6.13 KCAL/MOL
REMARK 924 INTRA-LIGAND FREE ENERGY PREDICTED BY IDOCK:   -0.79 KCAL/MOL
REMARK 927      BINDING AFFINITY PREDICTED BY RF-SCORE:    0.00 PKD
ROOT
HETATM    1  C   UNL     1     -11.943  12.294  70.116  1.00  0.00    -0.377 C  
HETATM    2  C   UNL     1     -11.840  11.559  68.772  1.00  0.00    -0.330 C  
ENDROOT
BRANCH   2   3
HETATM    3  C   UNL     1     -12.020  12.600  67.634  1.00  0.00    -0.309 C  
BRANCH   3   4
HETATM    4  C   UNL     1     -11.069  13.773  67.686  1.00  0.00    -0.292 A  
HETATM    5  C   UNL     1      -8.797  14.632  67.635  1.00  0.00    -0.184 A  
HETATM    6  H   UNL     1      -7.454  16.787  67.657  1.00  0.00     0.000 HD 
HETATM    7  C   UNL     1     -11.547  15.087  67.797  1.00  0.00    -0.336 A  
HETATM    8  C   UNL     1      -9.685  13.557  67.613  1.00  0.00    -0.229 A  
HETATM    9  C   UNL     1     -10.657  16.165  67.821  1.00  0.00    -0.309 A  
HETATM   10  O   UNL     1      -8.388  16.950  67.720  1.00  0.00    -0.189 OA 
HETATM   11  C   UNL     1      -9.289  15.927  67.729  1.00  0.00    -0.207 A  
ENDBRANCH   3   4
ENDBRANCH   2   3
BRANCH   2  12
HETATM   12  N   UNL     1     -10.565  10.838  68.636  1.00  0.00    -0.186 NA 
HETATM   13  H   UNL     1     -10.257  10.484  69.542  1.00  0.00     0.000 HD 
BRANCH  12  14
HETATM   14  C   UNL     1     -10.586   9.757  67.645  1.00  0.00    -0.276 C  
BRANCH  14  15
HETATM   15  C   UNL     1      -9.225   9.611  66.914  1.00  0.00    -0.143 C  
HETATM   16  H   UNL     1      -7.981   8.148  66.452  1.00  0.00     0.000 HD 
HETATM   17  O   UNL     1      -8.814   8.237  66.899  1.00  0.00    -0.132 OA 
BRANCH  15  18
HETATM   18  C   UNL     1      -9.298  10.129  65.490  1.00  0.00    -0.260 A  
HETATM   19  O   UNL     1      -7.103  10.736  62.597  1.00  0.00    -0.308 OA 
HETATM   20  C   UNL     1      -8.209  10.678  63.392  1.00  0.00    -0.038 A  
HETATM   21  C   UNL     1      -8.147  10.162  64.688  1.00  0.00    -0.153 A  
HETATM   22  C   UNL     1      -9.403  11.157  62.867  1.00  0.00    -0.385 A  
HETATM   23  H   UNL     1      -7.146  11.087  61.715  1.00  0.00     0.000 HD 
HETATM   24  C   UNL     1     -10.545  11.120  63.655  1.00  0.00    -0.347 A  
HETATM   25  O   UNL     1     -11.745  11.579  63.197  1.00  0.00    -0.854 OA 
HETATM   26  C   UNL     1     -10.503  10.613  64.950  1.00  0.00    -0.282 A  
HETATM   27  H   UNL     1     -12.526  11.555  63.737  1.00  0.00     0.000 HD 
ENDBRANCH  15  18
ENDBRANCH  14  15
ENDBRANCH  12  14
ENDBRANCH   2  12
TORSDOF 6
ENDMDL
MODEL      254
REMARK 921   NORMALIZED FREE ENERGY PREDICTED BY IDOCK:   -4.65 KCAL/MOL
REMARK 922        TOTAL FREE ENERGY PREDICTED BY IDOCK:   -6.89 KCAL/MOL
REMARK 923 INTER-LIGAND FREE ENERGY PREDICTED BY IDOCK:   -6.27 KCAL/MOL
REMARK 924 INTRA-LIGAND FREE ENERGY PREDICTED BY IDOCK:   -0.62 KCAL/MOL
REMARK 927      BINDING AFFINITY PREDICTED BY RF-SCORE:    0.00 PKD
ROOT
HETATM    1  C   UNL     1     -11.136  12.629  64.426  1.00  0.00    -0.385 C  
HETATM    2  C   UNL     1     -10.477  13.264  65.659  1.00  0.00    -0.281 C  
ENDROOT
BRANCH   2   3
HETATM    3  C   UNL     1     -11.578  13.988  66.480  1.00  0.00    -0.389 C  
BRANCH   3   4
HETATM    4  C   UNL     1     -11.181  15.340  67.028  1.00  0.00    -0.275 A  
HETATM    5  C   UNL     1     -10.896  16.830  68.925  1.00  0.00    -0.301 A  
HETATM    6  H   UNL     1     -10.078  19.147  69.566  1.00  0.00     0.000 HD 
HETATM    7  C   UNL     1     -10.699  16.349  66.182  1.00  0.00    -0.174 A  
HETATM    8  C   UNL     1     -11.282  15.596  68.403  1.00  0.00    -0.352 A  
HETATM    9  C   UNL     1     -10.314  17.587  66.705  1.00  0.00    -0.319 A  
HETATM   10  O   UNL     1     -10.015  18.994  68.631  1.00  0.00    -0.383 OA 
HETATM   11  C   UNL     1     -10.407  17.812  68.075  1.00  0.00    -0.393 A  
ENDBRANCH   3   4
ENDBRANCH   2   3
BRANCH   2  12
HETATM   12  N   UNL     1      -9.771  12.268  66.479  1.00  0.00    -0.228 NA 
HETATM   13  H   UNL     1      -9.888  12.475  67.471  1.00  0.00     0.000 HD 
BRANCH  12  14
HETATM   14  C   UNL     1     -10.149  10.878  66.199  1.00  0.00    -0.239 C  
BRANCH  14  15
HETATM   15  C   UNL     1      -9.295   9.868  67.009  1.00  0.00    -0.147 C  
HETATM   16  H   UNL     1      -7.391   9.634  67.479  1.00  0.00     0.000 HD 
HETATM   17  O   UNL     1      -7.914  10.252  66.983  1.00  0.00    -0.109 OA 
BRANCH  15  18
HETATM   18  C   UNL     1      -9.763   9.771  68.449  1.00  0.00    -0.162 A  
HETATM   19  O   UNL     1      -8.460   8.903  71.782  1.00  0.00    -0.321 OA 
HETATM   20  C   UNL     1      -9.308   9.274  70.780  1.00  0.00    -0.258 A  
HETATM   21  C   UNL     1      -8.865   9.403  69.463  1.00  0.00    -0.165 A  
HETATM   22  C   UNL     1     -10.634   9.516  71.118  1.00  0.00    -0.388 A  
HETATM   23  H   UNL     1      -8.762   8.815  72.678  1.00  0.00     0.000 HD 
HETATM   24  C   UNL     1     -11.524   9.887  70.119  1.00  0.00    -0.248 A  
HETATM   25  O   UNL     1     -12.837  10.133  70.388  1.00  0.00    -0.537 OA 
HETATM   26  C   UNL     1     -11.102  10.017  68.800  1.00  0.00    -0.219 A  
HETATM   27  H   UNL     1     -13.447  10.386  69.704  1.00  0.00     0.000 HD 
ENDBRANCH  15  18
ENDBRANCH  14  15
ENDBRANCH  12  14
ENDBRANCH   2  12
TORSDOF 6
ENDMDL
MODEL      255
REMARK 921   NORMALIZED FREE ENERGY PREDICTED BY IDOCK:   -4.65 KCAL/MOL
REMARK 922        TOTAL FREE ENERGY PREDICTED BY IDOCK:   -6.89 KCAL/MOL
REMARK 923 INTER-LIGAND FREE ENERGY PREDICTED BY IDOCK:   -6.46 KCAL/MOL
REMARK 924 INTRA-LIGAND FREE ENERGY PREDICTED BY IDOCK:   -0.43 KCAL/MOL
REMARK 927      BINDING AFFINITY PREDICTED BY RF-SCORE:    0.00 PKD
ROOT
HETATM    1  C   UNL     1      -9.775  10.587  67.374  1.00  0.00    -0.190 C  
HETATM    2  C   UNL     1     -10.698  10.909  68.557  1.00  0.00    -0.204 C  
ENDROOT
BRANCH   2   3
HETATM    3  C   UNL     1     -11.716  11.988  68.100  1.00  0.00    -0.398 C  
BRANCH   3   4
HETATM    4  C   UNL     1     -11.920  13.127  69.074  1.00  0.00    -0.329 A  
HETATM    5  C   UNL     1     -12.500  13.898  71.303  1.00  0.00    -0.440 A  
HETATM    6  H   UNL     1     -12.674  15.989  72.733  1.00  0.00     0.000 HD 
HETATM    7  C   UNL     1     -11.694  14.456  68.689  1.00  0.00    -0.367 A  
HETATM    8  C   UNL     1     -12.332  12.860  70.388  1.00  0.00    -0.333 A  
HETATM    9  C   UNL     1     -11.864  15.497  69.606  1.00  0.00    -0.384 A  
HETATM   10  O   UNL     1     -12.406  16.188  71.843  1.00  0.00    -0.465 OA 
HETATM   11  C   UNL     1     -12.257  15.206  70.909  1.00  0.00    -0.342 A  
ENDBRANCH   3   4
ENDBRANCH   2   3
BRANCH   2  12
HETATM   12  N   UNL     1     -11.384   9.710  69.061  1.00  0.00    -0.460 NA 
HETATM   13  H   UNL     1     -12.079   9.387  68.387  1.00  0.00     0.000 HD 
BRANCH  12  14
HETATM   14  C   UNL     1     -10.486   8.612  69.434  1.00  0.00    -0.218 C  
BRANCH  14  15
HETATM   15  C   UNL     1     -11.261   7.303  69.736  1.00  0.00    -0.126 C  
HETATM   16  H   UNL     1     -11.736   5.647  68.770  1.00  0.00     0.000 HD 
HETATM   17  O   UNL     1     -11.262   6.449  68.585  1.00  0.00    -0.329 OA 
BRANCH  15  18
HETATM   18  C   UNL     1     -10.660   6.558  70.914  1.00  0.00    -0.275 A  
HETATM   19  O   UNL     1      -9.427   3.201  71.792  1.00  0.00    -0.122 OA 
HETATM   20  C   UNL     1      -9.778   4.516  71.884  1.00  0.00    -0.168 A  
HETATM   21  C   UNL     1     -10.292   5.209  70.787  1.00  0.00    -0.294 A  
HETATM   22  C   UNL     1      -9.609   5.140  73.113  1.00  0.00    -0.155 A  
HETATM   23  H   UNL     1      -9.077   2.729  72.538  1.00  0.00     0.000 HD 
HETATM   24  C   UNL     1      -9.965   6.476  73.241  1.00  0.00    -0.185 A  
HETATM   25  O   UNL     1      -9.827   7.142  74.422  1.00  0.00    -0.444 OA 
HETATM   26  C   UNL     1     -10.482   7.184  72.160  1.00  0.00    -0.231 A  
HETATM   27  H   UNL     1     -10.071   8.056  74.511  1.00  0.00     0.000 HD 
ENDBRANCH  15  18
ENDBRANCH  14  15
ENDBRANCH  12  14
ENDBRANCH   2  12
TORSDOF 6
ENDMDL
MODEL      256
REMARK 921   NORMALIZED FREE ENERGY PREDICTED BY IDOCK:   -4.64 KCAL/MOL
REMARK 922        TOTAL FREE ENERGY PREDICTED BY IDOCK:   -6.87 KCAL/MOL
REMARK 923 INTER-LIGAND FREE ENERGY PREDICTED BY IDOCK:   -5.90 KCAL/MOL
REMARK 924 INTRA-LIGAND FREE ENERGY PREDICTED BY IDOCK:   -0.98 KCAL/MOL
REMARK 927      BINDING AFFINITY PREDICTED BY RF-SCORE:    0.00 PKD
ROOT
HETATM    1  C   UNL     1     -10.268   5.695  69.639  1.00  0.00    -0.321 C  
HETATM    2  C   UNL     1     -11.034   7.003  69.397  1.00  0.00    -0.201 C  
ENDROOT
BRANCH   2   3
HETATM    3  C   UNL     1     -10.339   8.131  70.206  1.00  0.00    -0.209 C  
BRANCH   3   4
HETATM    4  C   UNL     1     -11.267   9.197  70.742  1.00  0.00    -0.336 A  
HETATM    5  C   UNL     1     -12.130  11.466  70.643  1.00  0.00    -0.469 A  
HETATM    6  H   UNL     1     -13.850  13.018  71.684  1.00  0.00     0.000 HD 
HETATM    7  C   UNL     1     -12.147   8.925  71.799  1.00  0.00    -0.432 A  
HETATM    8  C   UNL     1     -11.262  10.480  70.174  1.00  0.00    -0.389 A  
HETATM    9  C   UNL     1     -13.016   9.913  72.270  1.00  0.00    -0.387 A  
HETATM   10  O   UNL     1     -13.856  12.158  72.088  1.00  0.00    -0.229 OA 
HETATM   11  C   UNL     1     -13.006  11.173  71.679  1.00  0.00    -0.443 A  
ENDBRANCH   3   4
ENDBRANCH   2   3
BRANCH   2  12
HETATM   12  N   UNL     1     -11.106   7.341  67.967  1.00  0.00    -0.491 NA 
HETATM   13  H   UNL     1     -11.824   8.046  67.803  1.00  0.00     0.000 HD 
BRANCH  12  14
HETATM   14  C   UNL     1      -9.829   7.765  67.382  1.00  0.00    -0.175 C  
BRANCH  14  15
HETATM   15  C   UNL     1      -9.963   9.098  66.599  1.00  0.00    -0.273 C  
HETATM   16  H   UNL     1     -11.221  10.619  66.536  1.00  0.00     0.000 HD 
HETATM   17  O   UNL     1     -11.140   9.803  67.015  1.00  0.00    -0.093 OA 
BRANCH  15  18
HETATM   18  C   UNL     1      -8.748   9.986  66.799  1.00  0.00    -0.137 A  
HETATM   19  O   UNL     1      -5.751  11.111  64.981  1.00  0.00    -0.454 OA 
HETATM   20  C   UNL     1      -6.679  10.940  65.965  1.00  0.00    -0.073 A  
HETATM   21  C   UNL     1      -7.817  10.157  65.764  1.00  0.00    -0.139 A  
HETATM   22  C   UNL     1      -6.450  11.574  67.180  1.00  0.00    -0.123 A  
HETATM   23  H   UNL     1      -4.977  11.644  65.118  1.00  0.00     0.000 HD 
HETATM   24  C   UNL     1      -7.372  11.412  68.205  1.00  0.00    -0.089 A  
HETATM   25  O   UNL     1      -7.200  12.004  69.421  1.00  0.00    -0.315 OA 
HETATM   26  C   UNL     1      -8.510  10.633  68.025  1.00  0.00    -0.119 A  
HETATM   27  H   UNL     1      -7.831  11.893  70.123  1.00  0.00     0.000 HD 
ENDBRANCH  15  18
ENDBRANCH  14  15
ENDBRANCH  12  14
ENDBRANCH   2  12
TORSDOF 6
ENDMDL
MODEL      257
REMARK 921   NORMALIZED FREE ENERGY PREDICTED BY IDOCK:   -4.64 KCAL/MOL
REMARK 922        TOTAL FREE ENERGY PREDICTED BY IDOCK:   -6.87 KCAL/MOL
REMARK 923 INTER-LIGAND FREE ENERGY PREDICTED BY IDOCK:   -6.28 KCAL/MOL
REMARK 924 INTRA-LIGAND FREE ENERGY PREDICTED BY IDOCK:   -0.59 KCAL/MOL
REMARK 927      BINDING AFFINITY PREDICTED BY RF-SCORE:    0.00 PKD
ROOT
HETATM    1  C   UNL     1      -9.024  17.395  68.482  1.00  0.00    -0.276 C  
HETATM    2  C   UNL     1      -8.755  15.932  68.862  1.00  0.00    -0.225 C  
ENDROOT
BRANCH   2   3
HETATM    3  C   UNL     1      -7.312  15.834  69.428  1.00  0.00    -0.217 C  
BRANCH   3   4
HETATM    4  C   UNL     1      -6.770  14.429  69.551  1.00  0.00    -0.141 A  
HETATM    5  C   UNL     1      -6.568  12.176  68.666  1.00  0.00    -0.077 A  
HETATM    6  H   UNL     1      -5.448   9.935  69.086  1.00  0.00     0.000 HD 
HETATM    7  C   UNL     1      -5.945  14.064  70.625  1.00  0.00    -0.186 A  
HETATM    8  C   UNL     1      -7.081  13.469  68.577  1.00  0.00    -0.108 A  
HETATM    9  C   UNL     1      -5.432  12.767  70.716  1.00  0.00    -0.179 A  
HETATM   10  O   UNL     1      -5.238  10.570  69.761  1.00  0.00    -0.038 OA 
HETATM   11  C   UNL     1      -5.741  11.837  69.728  1.00  0.00    -0.102 A  
ENDBRANCH   3   4
ENDBRANCH   2   3
BRANCH   2  12
HETATM   12  N   UNL     1      -9.741  15.426  69.830  1.00  0.00    -0.406 NA 
HETATM   13  H   UNL     1      -9.587  15.844  70.747  1.00  0.00     0.000 HD 
BRANCH  12  14
HETATM   14  C   UNL     1     -11.137  15.601  69.415  1.00  0.00    -0.303 C  
BRANCH  14  15
HETATM   15  C   UNL     1     -11.713  14.321  68.756  1.00  0.00    -0.343 C  
HETATM   16  H   UNL     1     -11.114  12.977  67.439  1.00  0.00     0.000 HD 
HETATM   17  O   UNL     1     -10.762  13.761  67.842  1.00  0.00    -0.241 OA 
BRANCH  15  18
HETATM   18  C   UNL     1     -12.085  13.279  69.795  1.00  0.00    -0.355 A  
HETATM   19  O   UNL     1     -11.967   9.632  70.294  1.00  0.00    -0.440 OA 
HETATM   20  C   UNL     1     -12.200  10.960  70.502  1.00  0.00    -0.367 A  
HETATM   21  C   UNL     1     -11.819  11.920  69.563  1.00  0.00    -0.395 A  
HETATM   22  C   UNL     1     -12.836  11.323  71.682  1.00  0.00    -0.510 A  
HETATM   23  H   UNL     1     -12.226   8.979  70.933  1.00  0.00     0.000 HD 
HETATM   24  C   UNL     1     -13.096  12.666  71.919  1.00  0.00    -0.366 A  
HETATM   25  O   UNL     1     -13.721  13.084  73.056  1.00  0.00    -0.600 OA 
HETATM   26  C   UNL     1     -12.726  13.638  70.994  1.00  0.00    -0.408 A  
HETATM   27  H   UNL     1     -13.899  14.003  73.217  1.00  0.00     0.000 HD 
ENDBRANCH  15  18
ENDBRANCH  14  15
ENDBRANCH  12  14
ENDBRANCH   2  12
TORSDOF 6
ENDMDL
MODEL      258
REMARK 921   NORMALIZED FREE ENERGY PREDICTED BY IDOCK:   -4.63 KCAL/MOL
REMARK 922        TOTAL FREE ENERGY PREDICTED BY IDOCK:   -6.86 KCAL/MOL
REMARK 923 INTER-LIGAND FREE ENERGY PREDICTED BY IDOCK:   -6.38 KCAL/MOL
REMARK 924 INTRA-LIGAND FREE ENERGY PREDICTED BY IDOCK:   -0.47 KCAL/MOL
REMARK 927      BINDING AFFINITY PREDICTED BY RF-SCORE:    0.00 PKD
ROOT
HETATM    1  C   UNL     1      -9.668  10.990  67.046  1.00  0.00    -0.208 C  
HETATM    2  C   UNL     1     -10.645  10.717  68.198  1.00  0.00    -0.203 C  
ENDROOT
BRANCH   2   3
HETATM    3  C   UNL     1     -11.747  11.810  68.171  1.00  0.00    -0.377 C  
BRANCH   3   4
HETATM    4  C   UNL     1     -12.197  12.297  69.530  1.00  0.00    -0.153 A  
HETATM    5  C   UNL     1     -12.545  14.127  71.089  1.00  0.00    -0.439 A  
HETATM    6  H   UNL     1     -13.453  14.663  73.400  1.00  0.00     0.000 HD 
HETATM    7  C   UNL     1     -12.713  11.407  70.482  1.00  0.00    -0.221 A  
HETATM    8  C   UNL     1     -12.111  13.660  69.849  1.00  0.00    -0.406 A  
HETATM    9  C   UNL     1     -13.146  11.874  71.726  1.00  0.00    -0.465 A  
HETATM   10  O   UNL     1     -13.506  13.735  73.204  1.00  0.00    -0.504 OA 
HETATM   11  C   UNL     1     -13.068  13.233  72.014  1.00  0.00    -0.377 A  
ENDBRANCH   3   4
ENDBRANCH   2   3
BRANCH   2  12
HETATM   12  N   UNL     1     -11.231   9.370  68.114  1.00  0.00    -0.497 NA 
HETATM   13  H   UNL     1     -12.099   9.392  67.580  1.00  0.00     0.000 HD 
BRANCH  12  14
HETATM   14  C   UNL     1     -10.323   8.350  67.577  1.00  0.00    -0.265 C  
BRANCH  14  15
HETATM   15  C   UNL     1     -10.941   6.929  67.642  1.00  0.00    -0.233 C  
HETATM   16  H   UNL     1     -10.950   5.302  66.523  1.00  0.00     0.000 HD 
HETATM   17  O   UNL     1     -10.572   6.173  66.482  1.00  0.00    -0.215 OA 
BRANCH  15  18
HETATM   18  C   UNL     1     -10.499   6.186  68.889  1.00  0.00    -0.293 A  
HETATM   19  O   UNL     1     -11.508   5.719  72.399  1.00  0.00    -0.293 OA 
HETATM   20  C   UNL     1     -10.811   5.630  71.230  1.00  0.00    -0.219 A  
HETATM   21  C   UNL     1     -11.244   6.282  70.074  1.00  0.00    -0.480 A  
HETATM   22  C   UNL     1      -9.649   4.869  71.233  1.00  0.00    -0.229 A  
HETATM   23  H   UNL     1     -11.214   5.276  73.185  1.00  0.00     0.000 HD 
HETATM   24  C   UNL     1      -8.912   4.766  70.061  1.00  0.00    -0.095 A  
HETATM   25  O   UNL     1      -7.761   4.039  70.002  1.00  0.00    -0.051 OA 
HETATM   26  C   UNL     1      -9.325   5.411  68.899  1.00  0.00    -0.161 A  
HETATM   27  H   UNL     1      -7.256   3.969  69.200  1.00  0.00     0.000 HD 
ENDBRANCH  15  18
ENDBRANCH  14  15
ENDBRANCH  12  14
ENDBRANCH   2  12
TORSDOF 6
ENDMDL
MODEL      259
REMARK 921   NORMALIZED FREE ENERGY PREDICTED BY IDOCK:   -4.62 KCAL/MOL
REMARK 922        TOTAL FREE ENERGY PREDICTED BY IDOCK:   -6.84 KCAL/MOL
REMARK 923 INTER-LIGAND FREE ENERGY PREDICTED BY IDOCK:   -6.19 KCAL/MOL
REMARK 924 INTRA-LIGAND FREE ENERGY PREDICTED BY IDOCK:   -0.65 KCAL/MOL
REMARK 927      BINDING AFFINITY PREDICTED BY RF-SCORE:    0.00 PKD
ROOT
HETATM    1  C   UNL     1      -7.668   4.872  70.771  1.00  0.00    -0.070 C  
HETATM    2  C   UNL     1      -8.782   5.225  69.776  1.00  0.00    -0.105 C  
ENDROOT
BRANCH   2   3
HETATM    3  C   UNL     1      -9.471   3.908  69.329  1.00  0.00    -0.256 C  
BRANCH   3   4
HETATM    4  C   UNL     1      -9.475   3.663  67.837  1.00  0.00    -0.224 A  
HETATM    5  C   UNL     1      -9.083   2.175  65.957  1.00  0.00    -0.055 A  
HETATM    6  H   UNL     1      -9.279   2.022  63.430  1.00  0.00     0.000 HD 
HETATM    7  C   UNL     1      -9.897   4.657  66.943  1.00  0.00    -0.235 A  
HETATM    8  C   UNL     1      -9.061   2.423  67.329  1.00  0.00    -0.180 A  
HETATM    9  C   UNL     1      -9.917   4.410  65.567  1.00  0.00    -0.242 A  
HETATM   10  O   UNL     1      -9.551   2.872  63.757  1.00  0.00    -0.111 OA 
HETATM   11  C   UNL     1      -9.519   3.166  65.088  1.00  0.00    -0.122 A  
ENDBRANCH   3   4
ENDBRANCH   2   3
BRANCH   2  12
HETATM   12  N   UNL     1      -9.756   6.165  70.352  1.00  0.00    -0.167 NA 
HETATM   13  H   UNL     1     -10.695   5.767  70.325  1.00  0.00     0.000 HD 
BRANCH  12  14
HETATM   14  C   UNL     1      -9.430   6.615  71.709  1.00  0.00    -0.151 C  
BRANCH  14  15
HETATM   15  C   UNL     1      -9.394   8.162  71.816  1.00  0.00    -0.181 C  
HETATM   16  H   UNL     1      -8.460   9.654  70.919  1.00  0.00     0.000 HD 
HETATM   17  O   UNL     1      -8.482   8.706  70.854  1.00  0.00    -0.134 OA 
BRANCH  15  18
HETATM   18  C   UNL     1     -10.769   8.768  71.603  1.00  0.00    -0.397 A  
HETATM   19  O   UNL     1     -12.518  11.047  69.299  1.00  0.00    -0.537 OA 
HETATM   20  C   UNL     1     -12.263  10.205  70.342  1.00  0.00    -0.218 A  
HETATM   21  C   UNL     1     -11.009   9.617  70.512  1.00  0.00    -0.374 A  
HETATM   22  C   UNL     1     -13.299   9.957  71.234  1.00  0.00    -0.419 A  
HETATM   23  H   UNL     1     -13.371  11.446  69.184  1.00  0.00     0.000 HD 
HETATM   24  C   UNL     1     -13.069   9.112  72.311  1.00  0.00    -0.438 A  
HETATM   25  O   UNL     1     -14.043   8.834  73.223  1.00  0.00    -1.180 OA 
HETATM   26  C   UNL     1     -11.824   8.519  72.499  1.00  0.00    -0.398 A  
HETATM   27  H   UNL     1     -13.886   8.257  73.960  1.00  0.00     0.000 HD 
ENDBRANCH  15  18
ENDBRANCH  14  15
ENDBRANCH  12  14
ENDBRANCH   2  12
TORSDOF 6
ENDMDL
MODEL      260
REMARK 921   NORMALIZED FREE ENERGY PREDICTED BY IDOCK:   -4.61 KCAL/MOL
REMARK 922        TOTAL FREE ENERGY PREDICTED BY IDOCK:   -6.83 KCAL/MOL
REMARK 923 INTER-LIGAND FREE ENERGY PREDICTED BY IDOCK:   -5.91 KCAL/MOL
REMARK 924 INTRA-LIGAND FREE ENERGY PREDICTED BY IDOCK:   -0.93 KCAL/MOL
REMARK 927      BINDING AFFINITY PREDICTED BY RF-SCORE:    0.00 PKD
ROOT
HETATM    1  C   UNL     1      -7.396  16.042  68.643  1.00  0.00    -0.159 C  
HETATM    2  C   UNL     1      -8.034  14.937  67.789  1.00  0.00    -0.150 C  
ENDROOT
BRANCH   2   3
HETATM    3  C   UNL     1      -7.714  13.568  68.448  1.00  0.00    -0.135 C  
BRANCH   3   4
HETATM    4  C   UNL     1      -7.468  12.435  67.478  1.00  0.00    -0.150 A  
HETATM    5  C   UNL     1      -5.912  11.021  66.260  1.00  0.00    -0.143 A  
HETATM    6  H   UNL     1      -5.802   9.031  64.686  1.00  0.00     0.000 HD 
HETATM    7  C   UNL     1      -8.534  11.718  66.918  1.00  0.00    -0.174 A  
HETATM    8  C   UNL     1      -6.155  12.080  67.134  1.00  0.00    -0.155 A  
HETATM    9  C   UNL     1      -8.292  10.657  66.040  1.00  0.00    -0.160 A  
HETATM   10  O   UNL     1      -6.697   9.267  64.899  1.00  0.00    -0.076 OA 
HETATM   11  C   UNL     1      -6.980  10.312  65.727  1.00  0.00    -0.128 A  
ENDBRANCH   3   4
ENDBRANCH   2   3
BRANCH   2  12
HETATM   12  N   UNL     1      -9.484  15.128  67.636  1.00  0.00    -0.201 NA 
HETATM   13  H   UNL     1      -9.878  14.405  67.034  1.00  0.00     0.000 HD 
BRANCH  12  14
HETATM   14  C   UNL     1     -10.220  15.195  68.903  1.00  0.00    -0.236 C  
BRANCH  14  15
HETATM   15  C   UNL     1     -11.705  14.777  68.736  1.00  0.00    -0.323 C  
HETATM   16  H   UNL     1     -12.932  14.361  67.246  1.00  0.00     0.000 HD 
HETATM   17  O   UNL     1     -12.023  14.617  67.348  1.00  0.00    -0.384 OA 
BRANCH  15  18
HETATM   18  C   UNL     1     -12.006  13.484  69.472  1.00  0.00    -0.390 A  
HETATM   19  O   UNL     1     -13.432  12.325  72.663  1.00  0.00    -0.597 OA 
HETATM   20  C   UNL     1     -12.853  12.324  71.428  1.00  0.00    -0.271 A  
HETATM   21  C   UNL     1     -12.616  13.513  70.735  1.00  0.00    -0.382 A  
HETATM   22  C   UNL     1     -12.505  11.095  70.884  1.00  0.00    -0.509 A  
HETATM   23  H   UNL     1     -13.593  11.517  73.134  1.00  0.00     0.000 HD 
HETATM   24  C   UNL     1     -11.906  11.061  69.632  1.00  0.00    -0.342 A  
HETATM   25  O   UNL     1     -11.537   9.886  69.047  1.00  0.00    -0.473 OA 
HETATM   26  C   UNL     1     -11.658  12.235  68.927  1.00  0.00    -0.367 A  
HETATM   27  H   UNL     1     -11.127   9.863  68.191  1.00  0.00     0.000 HD 
ENDBRANCH  15  18
ENDBRANCH  14  15
ENDBRANCH  12  14
ENDBRANCH   2  12
TORSDOF 6
ENDMDL
MODEL      261
REMARK 921   NORMALIZED FREE ENERGY PREDICTED BY IDOCK:   -4.59 KCAL/MOL
REMARK 922        TOTAL FREE ENERGY PREDICTED BY IDOCK:   -6.81 KCAL/MOL
REMARK 923 INTER-LIGAND FREE ENERGY PREDICTED BY IDOCK:   -5.98 KCAL/MOL
REMARK 924 INTRA-LIGAND FREE ENERGY PREDICTED BY IDOCK:   -0.83 KCAL/MOL
REMARK 927      BINDING AFFINITY PREDICTED BY RF-SCORE:    0.00 PKD
ROOT
HETATM    1  C   UNL     1     -10.206   5.241  65.927  1.00  0.00    -0.098 C  
HETATM    2  C   UNL     1     -10.011   6.205  67.106  1.00  0.00    -0.154 C  
ENDROOT
BRANCH   2   3
HETATM    3  C   UNL     1     -10.289   7.648  66.606  1.00  0.00    -0.258 C  
BRANCH   3   4
HETATM    4  C   UNL     1      -9.062   8.516  66.446  1.00  0.00    -0.229 A  
HETATM    5  C   UNL     1      -7.151   9.218  65.122  1.00  0.00    -0.090 A  
HETATM    6  H   UNL     1      -5.212  10.858  65.088  1.00  0.00     0.000 HD 
HETATM    7  C   UNL     1      -8.701   9.445  67.433  1.00  0.00    -0.128 A  
HETATM    8  C   UNL     1      -8.271   8.406  65.293  1.00  0.00    -0.151 A  
HETATM    9  C   UNL     1      -7.576  10.258  67.262  1.00  0.00    -0.095 A  
HETATM   10  O   UNL     1      -5.730  10.936  65.881  1.00  0.00    -0.132 OA 
HETATM   11  C   UNL     1      -6.817  10.143  66.102  1.00  0.00    -0.108 A  
ENDBRANCH   3   4
ENDBRANCH   2   3
BRANCH   2  12
HETATM   12  N   UNL     1     -10.875   5.861  68.246  1.00  0.00    -0.267 NA 
HETATM   13  H   UNL     1     -11.354   4.977  68.076  1.00  0.00     0.000 HD 
BRANCH  12  14
HETATM   14  C   UNL     1     -10.183   5.827  69.539  1.00  0.00    -0.239 C  
BRANCH  14  15
HETATM   15  C   UNL     1     -11.174   5.877  70.731  1.00  0.00    -0.211 C  
HETATM   16  H   UNL     1     -11.213   5.262  72.607  1.00  0.00     0.000 HD 
HETATM   17  O   UNL     1     -10.606   5.232  71.877  1.00  0.00    -0.220 OA 
BRANCH  15  18
HETATM   18  C   UNL     1     -11.544   7.304  71.089  1.00  0.00    -0.323 A  
HETATM   19  O   UNL     1     -13.982   9.154  73.138  1.00  0.00    -1.101 OA 
HETATM   20  C   UNL     1     -12.957   8.876  72.281  1.00  0.00    -0.419 A  
HETATM   21  C   UNL     1     -12.592   7.561  71.986  1.00  0.00    -0.268 A  
HETATM   22  C   UNL     1     -12.290   9.952  71.709  1.00  0.00    -0.456 A  
HETATM   23  H   UNL     1     -14.230  10.048  73.339  1.00  0.00     0.000 HD 
HETATM   24  C   UNL     1     -11.248   9.702  70.826  1.00  0.00    -0.336 A  
HETATM   25  O   UNL     1     -10.559  10.716  70.229  1.00  0.00    -0.453 OA 
HETATM   26  C   UNL     1     -10.872   8.399  70.517  1.00  0.00    -0.250 A  
HETATM   27  H   UNL     1      -9.846  10.545  69.625  1.00  0.00     0.000 HD 
ENDBRANCH  15  18
ENDBRANCH  14  15
ENDBRANCH  12  14
ENDBRANCH   2  12
TORSDOF 6
ENDMDL
MODEL      262
REMARK 921   NORMALIZED FREE ENERGY PREDICTED BY IDOCK:   -4.58 KCAL/MOL
REMARK 922        TOTAL FREE ENERGY PREDICTED BY IDOCK:   -6.80 KCAL/MOL
REMARK 923 INTER-LIGAND FREE ENERGY PREDICTED BY IDOCK:   -6.09 KCAL/MOL
REMARK 924 INTRA-LIGAND FREE ENERGY PREDICTED BY IDOCK:   -0.71 KCAL/MOL
REMARK 927      BINDING AFFINITY PREDICTED BY RF-SCORE:    0.00 PKD
ROOT
HETATM    1  C   UNL     1      -7.998   8.997  66.261  1.00  0.00    -0.103 C  
HETATM    2  C   UNL     1      -9.527   9.082  66.146  1.00  0.00    -0.253 C  
ENDROOT
BRANCH   2   3
HETATM    3  C   UNL     1      -9.879   9.623  64.734  1.00  0.00     0.015 C  
BRANCH   3   4
HETATM    4  C   UNL     1     -10.368  11.053  64.702  1.00  0.00    -0.410 A  
HETATM    5  C   UNL     1     -11.046  13.062  65.887  1.00  0.00    -0.303 A  
HETATM    6  H   UNL     1     -11.769  15.469  65.528  1.00  0.00     0.000 HD 
HETATM    7  C   UNL     1     -10.568  11.721  63.486  1.00  0.00    -0.499 A  
HETATM    8  C   UNL     1     -10.618  11.735  65.902  1.00  0.00    -0.314 A  
HETATM    9  C   UNL     1     -10.998  13.051  63.471  1.00  0.00    -0.100 A  
HETATM   10  O   UNL     1     -11.616  15.018  64.706  1.00  0.00    -0.401 OA 
HETATM   11  C   UNL     1     -11.224  13.712  64.674  1.00  0.00    -0.373 A  
ENDBRANCH   3   4
ENDBRANCH   2   3
BRANCH   2  12
HETATM   12  N   UNL     1     -10.169   7.782  66.393  1.00  0.00    -0.487 NA 
HETATM   13  H   UNL     1     -10.140   7.205  65.552  1.00  0.00     0.000 HD 
BRANCH  12  14
HETATM   14  C   UNL     1      -9.621   7.046  67.538  1.00  0.00    -0.130 C  
BRANCH  14  15
HETATM   15  C   UNL     1     -10.688   6.804  68.638  1.00  0.00    -0.234 C  
HETATM   16  H   UNL     1     -11.515   5.251  69.534  1.00  0.00     0.000 HD 
HETATM   17  O   UNL     1     -10.862   5.399  68.861  1.00  0.00    -0.152 OA 
BRANCH  15  18
HETATM   18  C   UNL     1     -10.304   7.476  69.943  1.00  0.00    -0.224 A  
HETATM   19  O   UNL     1      -7.777   9.795  71.282  1.00  0.00    -0.265 OA 
HETATM   20  C   UNL     1      -8.840   8.944  71.204  1.00  0.00    -0.237 A  
HETATM   21  C   UNL     1      -9.216   8.360  69.992  1.00  0.00    -0.158 A  
HETATM   22  C   UNL     1      -9.535   8.676  72.376  1.00  0.00    -0.295 A  
HETATM   23  H   UNL     1      -7.522  10.193  72.106  1.00  0.00     0.000 HD 
HETATM   24  C   UNL     1     -10.616   7.806  72.331  1.00  0.00    -0.278 A  
HETATM   25  O   UNL     1     -11.334   7.500  73.448  1.00  0.00    -0.611 OA 
HETATM   26  C   UNL     1     -11.004   7.212  71.134  1.00  0.00    -0.272 A  
HETATM   27  H   UNL     1     -12.074   6.904  73.418  1.00  0.00     0.000 HD 
ENDBRANCH  15  18
ENDBRANCH  14  15
ENDBRANCH  12  14
ENDBRANCH   2  12
TORSDOF 6
ENDMDL
MODEL      263
REMARK 921   NORMALIZED FREE ENERGY PREDICTED BY IDOCK:   -4.58 KCAL/MOL
REMARK 922        TOTAL FREE ENERGY PREDICTED BY IDOCK:   -6.79 KCAL/MOL
REMARK 923 INTER-LIGAND FREE ENERGY PREDICTED BY IDOCK:   -5.69 KCAL/MOL
REMARK 924 INTRA-LIGAND FREE ENERGY PREDICTED BY IDOCK:   -1.10 KCAL/MOL
REMARK 927      BINDING AFFINITY PREDICTED BY RF-SCORE:    0.00 PKD
ROOT
HETATM    1  C   UNL     1      -6.837  15.151  69.985  1.00  0.00    -0.109 C  
HETATM    2  C   UNL     1      -6.714  16.050  68.746  1.00  0.00    -0.129 C  
ENDROOT
BRANCH   2   3
HETATM    3  C   UNL     1      -6.478  15.143  67.509  1.00  0.00    -0.138 C  
BRANCH   3   4
HETATM    4  C   UNL     1      -7.032  13.742  67.629  1.00  0.00    -0.186 A  
HETATM    5  C   UNL     1      -6.720  11.411  68.240  1.00  0.00    -0.059 A  
HETATM    6  H   UNL     1      -7.940   9.192  68.421  1.00  0.00     0.000 HD 
HETATM    7  C   UNL     1      -8.362  13.458  67.286  1.00  0.00    -0.183 A  
HETATM    8  C   UNL     1      -6.215  12.704  68.100  1.00  0.00    -0.083 A  
HETATM    9  C   UNL     1      -8.868  12.162  67.424  1.00  0.00    -0.181 A  
HETATM   10  O   UNL     1      -8.503   9.881  68.088  1.00  0.00    -0.113 OA 
HETATM   11  C   UNL     1      -8.043  11.152  67.910  1.00  0.00    -0.119 A  
ENDBRANCH   3   4
ENDBRANCH   2   3
BRANCH   2  12
HETATM   12  N   UNL     1      -7.900  16.901  68.564  1.00  0.00    -0.229 NA 
HETATM   13  H   UNL     1      -7.812  17.756  69.112  1.00  0.00     0.000 HD 
BRANCH  12  14
HETATM   14  C   UNL     1      -8.206  17.218  67.165  1.00  0.00    -0.204 C  
BRANCH  14  15
HETATM   15  C   UNL     1      -9.696  17.600  66.968  1.00  0.00    -0.292 C  
HETATM   16  H   UNL     1     -10.746  18.751  65.754  1.00  0.00     0.000 HD 
HETATM   17  O   UNL     1      -9.834  18.518  65.875  1.00  0.00    -0.507 OA 
BRANCH  15  18
HETATM   18  C   UNL     1     -10.555  16.376  66.707  1.00  0.00    -0.238 A  
HETATM   19  O   UNL     1     -11.828  14.377  63.889  1.00  0.00    -0.663 OA 
HETATM   20  C   UNL     1     -11.593  14.826  65.155  1.00  0.00    -0.358 A  
HETATM   21  C   UNL     1     -10.768  15.926  65.395  1.00  0.00    -0.415 A  
HETATM   22  C   UNL     1     -12.208  14.149  66.201  1.00  0.00    -0.465 A  
HETATM   23  H   UNL     1     -12.389  13.628  63.726  1.00  0.00     0.000 HD 
HETATM   24  C   UNL     1     -11.996  14.587  67.501  1.00  0.00    -0.325 A  
HETATM   25  O   UNL     1     -12.575  13.967  68.568  1.00  0.00    -0.395 OA 
HETATM   26  C   UNL     1     -11.180  15.684  67.760  1.00  0.00    -0.297 A  
HETATM   27  H   UNL     1     -12.430  14.268  69.458  1.00  0.00     0.000 HD 
ENDBRANCH  15  18
ENDBRANCH  14  15
ENDBRANCH  12  14
ENDBRANCH   2  12
TORSDOF 6
ENDMDL
MODEL      264
REMARK 921   NORMALIZED FREE ENERGY PREDICTED BY IDOCK:   -4.58 KCAL/MOL
REMARK 922        TOTAL FREE ENERGY PREDICTED BY IDOCK:   -6.79 KCAL/MOL
REMARK 923 INTER-LIGAND FREE ENERGY PREDICTED BY IDOCK:   -6.61 KCAL/MOL
REMARK 924 INTRA-LIGAND FREE ENERGY PREDICTED BY IDOCK:   -0.19 KCAL/MOL
REMARK 927      BINDING AFFINITY PREDICTED BY RF-SCORE:    0.00 PKD
ROOT
HETATM    1  C   UNL     1      -9.280  12.934  66.225  1.00  0.00    -0.087 C  
HETATM    2  C   UNL     1     -10.797  13.161  66.164  1.00  0.00    -0.279 C  
ENDROOT
BRANCH   2   3
HETATM    3  C   UNL     1     -11.434  11.986  65.374  1.00  0.00    -0.361 C  
BRANCH   3   4
HETATM    4  C   UNL     1     -10.446  11.038  64.735  1.00  0.00    -0.384 A  
HETATM    5  C   UNL     1      -9.172  10.339  62.787  1.00  0.00    -0.316 A  
HETATM    6  H   UNL     1      -7.430   8.663  62.011  1.00  0.00     0.000 HD 
HETATM    7  C   UNL     1      -9.854  10.003  65.474  1.00  0.00    -0.373 A  
HETATM    8  C   UNL     1     -10.101  11.192  63.384  1.00  0.00    -0.439 A  
HETATM    9  C   UNL     1      -8.925   9.147  64.876  1.00  0.00    -0.201 A  
HETATM   10  O   UNL     1      -7.662   8.537  62.924  1.00  0.00    -0.111 OA 
HETATM   11  C   UNL     1      -8.585   9.330  63.539  1.00  0.00    -0.191 A  
ENDBRANCH   3   4
ENDBRANCH   2   3
BRANCH   2  12
HETATM   12  N   UNL     1     -11.389  13.283  67.506  1.00  0.00    -0.281 NA 
HETATM   13  H   UNL     1     -12.286  12.799  67.545  1.00  0.00     0.000 HD 
BRANCH  12  14
HETATM   14  C   UNL     1     -10.515  12.830  68.594  1.00  0.00    -0.211 C  
BRANCH  14  15
HETATM   15  C   UNL     1     -10.755  11.339  68.950  1.00  0.00    -0.207 C  
HETATM   16  H   UNL     1      -9.655   9.777  69.449  1.00  0.00     0.000 HD 
HETATM   17  O   UNL     1      -9.508  10.689  69.231  1.00  0.00    -0.197 OA 
BRANCH  15  18
HETATM   18  C   UNL     1     -11.679  11.192  70.144  1.00  0.00    -0.439 A  
HETATM   19  O   UNL     1     -12.949   8.592  72.420  1.00  0.00    -0.472 OA 
HETATM   20  C   UNL     1     -12.743   9.800  71.822  1.00  0.00    -0.426 A  
HETATM   21  C   UNL     1     -11.860   9.940  70.750  1.00  0.00    -0.415 A  
HETATM   22  C   UNL     1     -13.448  10.889  72.318  1.00  0.00    -0.049 A  
HETATM   23  H   UNL     1     -13.550   8.497  73.150  1.00  0.00     0.000 HD 
HETATM   24  C   UNL     1     -13.267  12.132  71.725  1.00  0.00    -0.320 A  
HETATM   25  O   UNL     1     -13.934  13.237  72.163  1.00  0.00    -0.471 OA 
HETATM   26  C   UNL     1     -12.394  12.291  70.654  1.00  0.00    -0.375 A  
HETATM   27  H   UNL     1     -13.811  14.087  71.757  1.00  0.00     0.000 HD 
ENDBRANCH  15  18
ENDBRANCH  14  15
ENDBRANCH  12  14
ENDBRANCH   2  12
TORSDOF 6
ENDMDL
MODEL      265
REMARK 921   NORMALIZED FREE ENERGY PREDICTED BY IDOCK:   -4.56 KCAL/MOL
REMARK 922        TOTAL FREE ENERGY PREDICTED BY IDOCK:   -6.77 KCAL/MOL
REMARK 923 INTER-LIGAND FREE ENERGY PREDICTED BY IDOCK:   -5.97 KCAL/MOL
REMARK 924 INTRA-LIGAND FREE ENERGY PREDICTED BY IDOCK:   -0.80 KCAL/MOL
REMARK 927      BINDING AFFINITY PREDICTED BY RF-SCORE:    0.00 PKD
ROOT
HETATM    1  C   UNL     1      -8.963  11.890  66.258  1.00  0.00    -0.157 C  
HETATM    2  C   UNL     1      -9.610  11.374  67.552  1.00  0.00    -0.167 C  
ENDROOT
BRANCH   2   3
HETATM    3  C   UNL     1     -11.132  11.672  67.487  1.00  0.00    -0.333 C  
BRANCH   3   4
HETATM    4  C   UNL     1     -11.613  12.747  68.434  1.00  0.00    -0.365 A  
HETATM    5  C   UNL     1     -12.378  13.402  70.645  1.00  0.00    -0.423 A  
HETATM    6  H   UNL     1     -13.065  15.418  72.027  1.00  0.00     0.000 HD 
HETATM    7  C   UNL     1     -11.716  14.082  68.019  1.00  0.00    -0.394 A  
HETATM    8  C   UNL     1     -11.955  12.416  69.753  1.00  0.00    -0.359 A  
HETATM    9  C   UNL     1     -12.142  15.070  68.912  1.00  0.00    -0.223 A  
HETATM   10  O   UNL     1     -12.849  15.657  71.133  1.00  0.00    -0.462 OA 
HETATM   11  C   UNL     1     -12.459  14.721  70.221  1.00  0.00    -0.340 A  
ENDBRANCH   3   4
ENDBRANCH   2   3
BRANCH   2  12
HETATM   12  N   UNL     1      -9.356   9.940  67.759  1.00  0.00    -0.140 NA 
HETATM   13  H   UNL     1      -9.608   9.410  66.925  1.00  0.00     0.000 HD 
BRANCH  12  14
HETATM   14  C   UNL     1      -7.985   9.623  68.173  1.00  0.00    -0.100 C  
BRANCH  14  15
HETATM   15  C   UNL     1      -7.921   9.120  69.639  1.00  0.00    -0.103 C  
HETATM   16  H   UNL     1      -7.521   9.887  71.414  1.00  0.00     0.000 HD 
HETATM   17  O   UNL     1      -7.559  10.195  70.517  1.00  0.00    -0.269 OA 
BRANCH  15  18
HETATM   18  C   UNL     1      -9.246   8.531  70.084  1.00  0.00    -0.159 A  
HETATM   19  O   UNL     1     -12.267   9.490  71.959  1.00  0.00    -0.358 OA 
HETATM   20  C   UNL     1     -11.365   8.757  71.247  1.00  0.00    -0.291 A  
HETATM   21  C   UNL     1     -10.164   9.314  70.802  1.00  0.00    -0.353 A  
HETATM   22  C   UNL     1     -11.682   7.430  70.983  1.00  0.00    -0.326 A  
HETATM   23  H   UNL     1     -13.084   9.111  72.261  1.00  0.00     0.000 HD 
HETATM   24  C   UNL     1     -10.779   6.654  70.268  1.00  0.00    -0.246 A  
HETATM   25  O   UNL     1     -11.031   5.345  69.982  1.00  0.00    -0.249 OA 
HETATM   26  C   UNL     1      -9.576   7.190  69.819  1.00  0.00    -0.155 A  
HETATM   27  H   UNL     1     -10.413   4.814  69.493  1.00  0.00     0.000 HD 
ENDBRANCH  15  18
ENDBRANCH  14  15
ENDBRANCH  12  14
ENDBRANCH   2  12
TORSDOF 6
ENDMDL
MODEL      266
REMARK 921   NORMALIZED FREE ENERGY PREDICTED BY IDOCK:   -4.56 KCAL/MOL
REMARK 922        TOTAL FREE ENERGY PREDICTED BY IDOCK:   -6.77 KCAL/MOL
REMARK 923 INTER-LIGAND FREE ENERGY PREDICTED BY IDOCK:   -6.03 KCAL/MOL
REMARK 924 INTRA-LIGAND FREE ENERGY PREDICTED BY IDOCK:   -0.74 KCAL/MOL
REMARK 927      BINDING AFFINITY PREDICTED BY RF-SCORE:    0.00 PKD
ROOT
HETATM    1  C   UNL     1      -8.770  13.357  67.802  1.00  0.00    -0.197 C  
HETATM    2  C   UNL     1      -9.413  11.974  67.974  1.00  0.00    -0.199 C  
ENDROOT
BRANCH   2   3
HETATM    3  C   UNL     1     -10.954  12.140  67.891  1.00  0.00    -0.272 C  
BRANCH   3   4
HETATM    4  C   UNL     1     -11.639  12.409  69.211  1.00  0.00    -0.379 A  
HETATM    5  C   UNL     1     -12.573  11.578  71.295  1.00  0.00    -0.452 A  
HETATM    6  H   UNL     1     -13.633  12.336  73.475  1.00  0.00     0.000 HD 
HETATM    7  C   UNL     1     -11.951  13.716  69.610  1.00  0.00    -0.402 A  
HETATM    8  C   UNL     1     -11.963  11.343  70.063  1.00  0.00    -0.442 A  
HETATM    9  C   UNL     1     -12.564  13.953  70.844  1.00  0.00    -0.431 A  
HETATM   10  O   UNL     1     -13.431  13.069  72.904  1.00  0.00    -0.483 OA 
HETATM   11  C   UNL     1     -12.860  12.881  71.680  1.00  0.00    -0.268 A  
ENDBRANCH   3   4
ENDBRANCH   2   3
BRANCH   2  12
HETATM   12  N   UNL     1      -8.927  11.014  66.971  1.00  0.00    -0.146 NA 
HETATM   13  H   UNL     1      -9.030  11.397  66.031  1.00  0.00     0.000 HD 
BRANCH  12  14
HETATM   14  C   UNL     1      -7.550  10.558  67.189  1.00  0.00    -0.097 C  
BRANCH  14  15
HETATM   15  C   UNL     1      -7.428   9.014  67.110  1.00  0.00    -0.087 C  
HETATM   16  H   UNL     1      -6.245   7.616  67.848  1.00  0.00     0.000 HD 
HETATM   17  O   UNL     1      -6.319   8.562  67.896  1.00  0.00    -0.054 OA 
BRANCH  15  18
HETATM   18  C   UNL     1      -8.695   8.330  67.588  1.00  0.00    -0.133 A  
HETATM   19  O   UNL     1     -10.700   7.937  70.652  1.00  0.00    -0.220 OA 
HETATM   20  C   UNL     1     -10.269   7.818  69.364  1.00  0.00    -0.208 A  
HETATM   21  C   UNL     1      -9.126   8.482  68.915  1.00  0.00    -0.146 A  
HETATM   22  C   UNL     1     -11.008   7.007  68.512  1.00  0.00    -0.135 A  
HETATM   23  H   UNL     1     -11.478   7.485  70.956  1.00  0.00     0.000 HD 
HETATM   24  C   UNL     1     -10.589   6.858  67.196  1.00  0.00    -0.338 A  
HETATM   25  O   UNL     1     -11.270   6.072  66.315  1.00  0.00    -0.709 OA 
HETATM   26  C   UNL     1      -9.451   7.509  66.732  1.00  0.00    -0.230 A  
HETATM   27  H   UNL     1     -10.983   5.970  65.414  1.00  0.00     0.000 HD 
ENDBRANCH  15  18
ENDBRANCH  14  15
ENDBRANCH  12  14
ENDBRANCH   2  12
TORSDOF 6
ENDMDL
MODEL      267
REMARK 921   NORMALIZED FREE ENERGY PREDICTED BY IDOCK:   -4.56 KCAL/MOL
REMARK 922        TOTAL FREE ENERGY PREDICTED BY IDOCK:   -6.77 KCAL/MOL
REMARK 923 INTER-LIGAND FREE ENERGY PREDICTED BY IDOCK:   -5.73 KCAL/MOL
REMARK 924 INTRA-LIGAND FREE ENERGY PREDICTED BY IDOCK:   -1.04 KCAL/MOL
REMARK 927      BINDING AFFINITY PREDICTED BY RF-SCORE:    0.00 PKD
ROOT
HETATM    1  C   UNL     1     -13.338   9.772  71.983  1.00  0.00    -0.547 C  
HETATM    2  C   UNL     1     -12.037  10.181  71.277  1.00  0.00    -0.394 C  
ENDROOT
BRANCH   2   3
HETATM    3  C   UNL     1     -10.892   9.277  71.807  1.00  0.00    -0.358 C  
BRANCH   3   4
HETATM    4  C   UNL     1     -10.311   8.321  70.790  1.00  0.00    -0.221 A  
HETATM    5  C   UNL     1      -8.607   7.799  69.139  1.00  0.00    -0.138 A  
HETATM    6  H   UNL     1      -7.808   5.966  67.574  1.00  0.00     0.000 HD 
HETATM    7  C   UNL     1     -10.892   7.065  70.565  1.00  0.00    -0.279 A  
HETATM    8  C   UNL     1      -9.168   8.681  70.063  1.00  0.00    -0.160 A  
HETATM    9  C   UNL     1     -10.332   6.181  69.638  1.00  0.00    -0.277 A  
HETATM   10  O   UNL     1      -8.590   5.712  68.050  1.00  0.00    -0.103 OA 
HETATM   11  C   UNL     1      -9.187   6.554  68.941  1.00  0.00    -0.129 A  
ENDBRANCH   3   4
ENDBRANCH   2   3
BRANCH   2  12
HETATM   12  N   UNL     1     -12.154  10.089  69.814  1.00  0.00    -0.480 NA 
HETATM   13  H   UNL     1     -13.125   9.935  69.543  1.00  0.00     0.000 HD 
BRANCH  12  14
HETATM   14  C   UNL     1     -11.596  11.236  69.090  1.00  0.00    -0.319 C  
BRANCH  14  15
HETATM   15  C   UNL     1     -11.644  11.034  67.553  1.00  0.00    -0.080 C  
HETATM   16  H   UNL     1     -12.192  12.084  65.973  1.00  0.00     0.000 HD 
HETATM   17  O   UNL     1     -12.163  12.208  66.914  1.00  0.00    -0.537 OA 
BRANCH  15  18
HETATM   18  C   UNL     1     -10.271  10.720  66.988  1.00  0.00    -0.261 A  
HETATM   19  O   UNL     1      -8.429   7.926  65.453  1.00  0.00    -0.141 OA 
HETATM   20  C   UNL     1      -8.724   9.153  65.968  1.00  0.00    -0.153 A  
HETATM   21  C   UNL     1     -10.000   9.453  66.449  1.00  0.00    -0.346 A  
HETATM   22  C   UNL     1      -7.705  10.097  66.002  1.00  0.00    -0.120 A  
HETATM   23  H   UNL     1      -7.561   7.722  65.126  1.00  0.00     0.000 HD 
HETATM   24  C   UNL     1      -7.970  11.353  66.529  1.00  0.00    -0.128 A  
HETATM   25  O   UNL     1      -7.011  12.319  66.593  1.00  0.00    -0.371 OA 
HETATM   26  C   UNL     1      -9.235  11.670  67.016  1.00  0.00    -0.185 A  
HETATM   27  H   UNL     1      -7.192  13.179  66.955  1.00  0.00     0.000 HD 
ENDBRANCH  15  18
ENDBRANCH  14  15
ENDBRANCH  12  14
ENDBRANCH   2  12
TORSDOF 6
ENDMDL
MODEL      268
REMARK 921   NORMALIZED FREE ENERGY PREDICTED BY IDOCK:   -4.56 KCAL/MOL
REMARK 922        TOTAL FREE ENERGY PREDICTED BY IDOCK:   -6.77 KCAL/MOL
REMARK 923 INTER-LIGAND FREE ENERGY PREDICTED BY IDOCK:   -6.19 KCAL/MOL
REMARK 924 INTRA-LIGAND FREE ENERGY PREDICTED BY IDOCK:   -0.58 KCAL/MOL
REMARK 927      BINDING AFFINITY PREDICTED BY RF-SCORE:    0.00 PKD
ROOT
HETATM    1  C   UNL     1     -11.360  14.631  69.220  1.00  0.00    -0.313 C  
HETATM    2  C   UNL     1     -10.537  13.859  68.179  1.00  0.00    -0.252 C  
ENDROOT
BRANCH   2   3
HETATM    3  C   UNL     1     -10.884  12.351  68.307  1.00  0.00    -0.264 C  
BRANCH   3   4
HETATM    4  C   UNL     1      -9.807  11.405  67.826  1.00  0.00    -0.186 A  
HETATM    5  C   UNL     1      -8.902   9.974  66.084  1.00  0.00    -0.165 A  
HETATM    6  H   UNL     1      -6.913   8.502  65.513  1.00  0.00     0.000 HD 
HETATM    7  C   UNL     1      -8.702  11.097  68.632  1.00  0.00    -0.153 A  
HETATM    8  C   UNL     1      -9.900  10.829  66.550  1.00  0.00    -0.246 A  
HETATM    9  C   UNL     1      -7.702  10.239  68.165  1.00  0.00    -0.092 A  
HETATM   10  O   UNL     1      -6.841   8.874  66.384  1.00  0.00    -0.073 OA 
HETATM   11  C   UNL     1      -7.807   9.693  66.890  1.00  0.00    -0.102 A  
ENDBRANCH   3   4
ENDBRANCH   2   3
BRANCH   2  12
HETATM   12  N   UNL     1     -10.781  14.347  66.813  1.00  0.00    -0.289 NA 
HETATM   13  H   UNL     1     -11.432  13.731  66.326  1.00  0.00     0.000 HD 
BRANCH  12  14
HETATM   14  C   UNL     1     -11.241  15.738  66.743  1.00  0.00    -0.021 C  
BRANCH  14  15
HETATM   15  C   UNL     1     -10.351  16.599  65.809  1.00  0.00    -0.321 C  
HETATM   16  H   UNL     1     -10.526  17.479  64.050  1.00  0.00     0.000 HD 
HETATM   17  O   UNL     1     -11.072  16.952  64.621  1.00  0.00    -0.934 OA 
BRANCH  15  18
HETATM   18  C   UNL     1      -9.875  17.862  66.502  1.00  0.00    -0.343 A  
HETATM   19  O   UNL     1      -7.328  20.495  66.123  1.00  0.00    -0.442 OA 
HETATM   20  C   UNL     1      -8.359  19.754  66.621  1.00  0.00    -0.327 A  
HETATM   21  C   UNL     1      -8.822  18.615  65.959  1.00  0.00     0.008 A  
HETATM   22  C   UNL     1      -8.932  20.172  67.816  1.00  0.00    -0.369 A  
HETATM   23  H   UNL     1      -7.014  21.269  66.574  1.00  0.00     0.000 HD 
HETATM   24  C   UNL     1      -9.978  19.434  68.353  1.00  0.00    -0.437 A  
HETATM   25  O   UNL     1     -10.577  19.791  69.524  1.00  0.00    -0.437 OA 
HETATM   26  C   UNL     1     -10.451  18.294  67.710  1.00  0.00    -0.430 A  
HETATM   27  H   UNL     1     -11.293  19.285  69.892  1.00  0.00     0.000 HD 
ENDBRANCH  15  18
ENDBRANCH  14  15
ENDBRANCH  12  14
ENDBRANCH   2  12
TORSDOF 6
ENDMDL
MODEL      269
REMARK 921   NORMALIZED FREE ENERGY PREDICTED BY IDOCK:   -4.55 KCAL/MOL
REMARK 922        TOTAL FREE ENERGY PREDICTED BY IDOCK:   -6.76 KCAL/MOL
REMARK 923 INTER-LIGAND FREE ENERGY PREDICTED BY IDOCK:   -5.79 KCAL/MOL
REMARK 924 INTRA-LIGAND FREE ENERGY PREDICTED BY IDOCK:   -0.97 KCAL/MOL
REMARK 927      BINDING AFFINITY PREDICTED BY RF-SCORE:    0.00 PKD
ROOT
HETATM    1  C   UNL     1      -8.439   6.502  72.128  1.00  0.00    -0.113 C  
HETATM    2  C   UNL     1      -9.607   6.676  71.146  1.00  0.00    -0.170 C  
ENDROOT
BRANCH   2   3
HETATM    3  C   UNL     1     -10.080   5.267  70.698  1.00  0.00    -0.310 C  
BRANCH   3   4
HETATM    4  C   UNL     1     -10.114   5.051  69.203  1.00  0.00    -0.257 A  
HETATM    5  C   UNL     1      -9.535   3.701  67.268  1.00  0.00    -0.235 A  
HETATM    6  H   UNL     1      -9.829   3.553  64.750  1.00  0.00     0.000 HD 
HETATM    7  C   UNL     1     -10.770   5.956  68.356  1.00  0.00    -0.323 A  
HETATM    8  C   UNL     1      -9.491   3.926  68.643  1.00  0.00    -0.217 A  
HETATM    9  C   UNL     1     -10.813   5.732  66.977  1.00  0.00    -0.328 A  
HETATM   10  O   UNL     1     -10.245   4.326  65.111  1.00  0.00    -0.227 OA 
HETATM   11  C   UNL     1     -10.202   4.599  66.447  1.00  0.00    -0.260 A  
ENDBRANCH   3   4
ENDBRANCH   2   3
BRANCH   2  12
HETATM   12  N   UNL     1     -10.712   7.445  71.738  1.00  0.00    -0.213 NA 
HETATM   13  H   UNL     1     -10.857   7.171  72.710  1.00  0.00     0.000 HD 
BRANCH  12  14
HETATM   14  C   UNL     1     -10.559   8.900  71.634  1.00  0.00    -0.352 C  
BRANCH  14  15
HETATM   15  C   UNL     1     -11.642   9.535  70.723  1.00  0.00    -0.308 C  
HETATM   16  H   UNL     1     -12.988  10.974  70.864  1.00  0.00     0.000 HD 
HETATM   17  O   UNL     1     -12.325  10.585  71.421  1.00  0.00    -0.365 OA 
BRANCH  15  18
HETATM   18  C   UNL     1     -11.041  10.090  69.445  1.00  0.00    -0.265 A  
HETATM   19  O   UNL     1      -7.898   9.977  67.530  1.00  0.00    -0.095 OA 
HETATM   20  C   UNL     1      -9.170  10.287  67.912  1.00  0.00    -0.138 A  
HETATM   21  C   UNL     1      -9.735   9.742  69.067  1.00  0.00    -0.177 A  
HETATM   22  C   UNL     1      -9.884  11.170  67.112  1.00  0.00    -0.212 A  
HETATM   23  H   UNL     1      -7.514  10.348  66.744  1.00  0.00     0.000 HD 
HETATM   24  C   UNL     1     -11.178  11.512  67.479  1.00  0.00    -0.298 A  
HETATM   25  O   UNL     1     -11.927  12.377  66.737  1.00  0.00    -0.559 OA 
HETATM   26  C   UNL     1     -11.758  10.982  68.628  1.00  0.00    -0.367 A  
HETATM   27  H   UNL     1     -12.813  12.611  66.989  1.00  0.00     0.000 HD 
ENDBRANCH  15  18
ENDBRANCH  14  15
ENDBRANCH  12  14
ENDBRANCH   2  12
TORSDOF 6
ENDMDL
MODEL      270
REMARK 921   NORMALIZED FREE ENERGY PREDICTED BY IDOCK:   -4.55 KCAL/MOL
REMARK 922        TOTAL FREE ENERGY PREDICTED BY IDOCK:   -6.75 KCAL/MOL
REMARK 923 INTER-LIGAND FREE ENERGY PREDICTED BY IDOCK:   -6.31 KCAL/MOL
REMARK 924 INTRA-LIGAND FREE ENERGY PREDICTED BY IDOCK:   -0.45 KCAL/MOL
REMARK 927      BINDING AFFINITY PREDICTED BY RF-SCORE:    0.00 PKD
ROOT
HETATM    1  C   UNL     1     -11.200  14.690  69.143  1.00  0.00    -0.291 C  
HETATM    2  C   UNL     1     -10.805  13.839  67.928  1.00  0.00    -0.244 C  
ENDROOT
BRANCH   2   3
HETATM    3  C   UNL     1     -11.646  12.534  67.956  1.00  0.00    -0.395 C  
BRANCH   3   4
HETATM    4  C   UNL     1     -10.971  11.327  67.343  1.00  0.00    -0.337 A  
HETATM    5  C   UNL     1     -10.200   9.032  67.542  1.00  0.00    -0.302 A  
HETATM    6  H   UNL     1      -9.122   7.145  66.229  1.00  0.00     0.000 HD 
HETATM    7  C   UNL     1     -10.520  11.348  66.016  1.00  0.00    -0.305 A  
HETATM    8  C   UNL     1     -10.798  10.161  68.102  1.00  0.00    -0.310 A  
HETATM    9  C   UNL     1      -9.919  10.218  65.455  1.00  0.00    -0.371 A  
HETATM   10  O   UNL     1      -9.220   7.932  65.705  1.00  0.00    -0.102 OA 
HETATM   11  C   UNL     1      -9.774   9.066  66.222  1.00  0.00    -0.275 A  
ENDBRANCH   3   4
ENDBRANCH   2   3
BRANCH   2  12
HETATM   12  N   UNL     1     -10.994  14.566  66.663  1.00  0.00    -0.315 NA 
HETATM   13  H   UNL     1     -11.816  14.217  66.171  1.00  0.00     0.000 HD 
BRANCH  12  14
HETATM   14  C   UNL     1     -11.066  16.024  66.810  1.00  0.00    -0.022 C  
BRANCH  14  15
HETATM   15  C   UNL     1     -10.123  16.755  65.819  1.00  0.00    -0.253 C  
HETATM   16  H   UNL     1     -10.234  18.295  64.586  1.00  0.00     0.000 HD 
HETATM   17  O   UNL     1     -10.811  17.847  65.193  1.00  0.00    -0.672 OA 
BRANCH  15  18
HETATM   18  C   UNL     1      -8.880  17.277  66.514  1.00  0.00    -0.290 A  
HETATM   19  O   UNL     1      -7.925  19.570  69.233  1.00  0.00    -0.291 OA 
HETATM   20  C   UNL     1      -7.845  18.685  68.198  1.00  0.00    -0.287 A  
HETATM   21  C   UNL     1      -8.992  18.174  67.588  1.00  0.00    -0.260 A  
HETATM   22  C   UNL     1      -6.577  18.313  67.769  1.00  0.00    -0.204 A  
HETATM   23  H   UNL     1      -7.145  19.917  69.648  1.00  0.00     0.000 HD 
HETATM   24  C   UNL     1      -6.462  17.421  66.712  1.00  0.00    -0.204 A  
HETATM   25  O   UNL     1      -5.246  17.021  66.243  1.00  0.00    -0.349 OA 
HETATM   26  C   UNL     1      -7.593  16.903  66.088  1.00  0.00    -0.230 A  
HETATM   27  H   UNL     1      -5.167  16.411  65.519  1.00  0.00     0.000 HD 
ENDBRANCH  15  18
ENDBRANCH  14  15
ENDBRANCH  12  14
ENDBRANCH   2  12
TORSDOF 6
ENDMDL
MODEL      271
REMARK 921   NORMALIZED FREE ENERGY PREDICTED BY IDOCK:   -4.53 KCAL/MOL
REMARK 922        TOTAL FREE ENERGY PREDICTED BY IDOCK:   -6.73 KCAL/MOL
REMARK 923 INTER-LIGAND FREE ENERGY PREDICTED BY IDOCK:   -6.24 KCAL/MOL
REMARK 924 INTRA-LIGAND FREE ENERGY PREDICTED BY IDOCK:   -0.49 KCAL/MOL
REMARK 927      BINDING AFFINITY PREDICTED BY RF-SCORE:    0.00 PKD
ROOT
HETATM    1  C   UNL     1      -6.765   8.410  68.831  1.00  0.00    -0.053 C  
HETATM    2  C   UNL     1      -7.935   7.432  68.653  1.00  0.00    -0.123 C  
ENDROOT
BRANCH   2   3
HETATM    3  C   UNL     1      -8.355   6.916  70.055  1.00  0.00    -0.139 C  
BRANCH   3   4
HETATM    4  C   UNL     1      -9.751   7.304  70.486  1.00  0.00    -0.176 A  
HETATM    5  C   UNL     1     -12.090   6.719  70.786  1.00  0.00    -0.402 A  
HETATM    6  H   UNL     1     -14.297   7.615  71.667  1.00  0.00     0.000 HD 
HETATM    7  C   UNL     1     -10.017   8.576  71.015  1.00  0.00    -0.255 A  
HETATM    8  C   UNL     1     -10.802   6.383  70.369  1.00  0.00    -0.343 A  
HETATM    9  C   UNL     1     -11.308   8.914  71.431  1.00  0.00    -0.380 A  
HETATM   10  O   UNL     1     -13.598   8.255  71.742  1.00  0.00    -0.342 OA 
HETATM   11  C   UNL     1     -12.331   7.977  71.321  1.00  0.00    -0.271 A  
ENDBRANCH   3   4
ENDBRANCH   2   3
BRANCH   2  12
HETATM   12  N   UNL     1      -9.069   8.054  67.953  1.00  0.00    -0.132 NA 
HETATM   13  H   UNL     1      -9.828   8.247  68.606  1.00  0.00     0.000 HD 
BRANCH  12  14
HETATM   14  C   UNL     1      -8.723   9.262  67.197  1.00  0.00    -0.127 C  
BRANCH  14  15
HETATM   15  C   UNL     1      -9.765  10.394  67.400  1.00  0.00    -0.163 C  
HETATM   16  H   UNL     1      -9.856  12.123  68.350  1.00  0.00     0.000 HD 
HETATM   17  O   UNL     1      -9.218  11.430  68.226  1.00  0.00    -0.170 OA 
BRANCH  15  18
HETATM   18  C   UNL     1     -10.209  10.987  66.076  1.00  0.00    -0.305 A  
HETATM   19  O   UNL     1      -8.842  11.806  62.757  1.00  0.00    -0.647 OA 
HETATM   20  C   UNL     1      -9.705  11.678  63.805  1.00  0.00    -0.254 A  
HETATM   21  C   UNL     1      -9.305  11.093  65.008  1.00  0.00    -0.232 A  
HETATM   22  C   UNL     1     -10.998  12.154  63.634  1.00  0.00    -0.527 A  
HETATM   23  H   UNL     1      -9.115  12.204  61.938  1.00  0.00     0.000 HD 
HETATM   24  C   UNL     1     -11.898  12.046  64.686  1.00  0.00    -0.268 A  
HETATM   25  O   UNL     1     -13.179  12.500  64.581  1.00  0.00    -0.848 OA 
HETATM   26  C   UNL     1     -11.517  11.470  65.894  1.00  0.00    -0.086 A  
HETATM   27  H   UNL     1     -13.795  12.426  65.301  1.00  0.00     0.000 HD 
ENDBRANCH  15  18
ENDBRANCH  14  15
ENDBRANCH  12  14
ENDBRANCH   2  12
TORSDOF 6
ENDMDL
MODEL      272
REMARK 921   NORMALIZED FREE ENERGY PREDICTED BY IDOCK:   -4.52 KCAL/MOL
REMARK 922        TOTAL FREE ENERGY PREDICTED BY IDOCK:   -6.72 KCAL/MOL
REMARK 923 INTER-LIGAND FREE ENERGY PREDICTED BY IDOCK:   -5.93 KCAL/MOL
REMARK 924 INTRA-LIGAND FREE ENERGY PREDICTED BY IDOCK:   -0.79 KCAL/MOL
REMARK 927      BINDING AFFINITY PREDICTED BY RF-SCORE:    0.00 PKD
ROOT
HETATM    1  C   UNL     1      -7.567  16.335  68.300  1.00  0.00    -0.153 C  
HETATM    2  C   UNL     1      -8.389  15.146  67.784  1.00  0.00    -0.151 C  
ENDROOT
BRANCH   2   3
HETATM    3  C   UNL     1      -8.249  13.980  68.799  1.00  0.00    -0.049 C  
BRANCH   3   4
HETATM    4  C   UNL     1      -8.076  12.611  68.180  1.00  0.00    -0.164 A  
HETATM    5  C   UNL     1      -6.864  10.510  68.048  1.00  0.00    -0.073 A  
HETATM    6  H   UNL     1      -6.876   8.243  66.903  1.00  0.00     0.000 HD 
HETATM    7  C   UNL     1      -8.964  12.144  67.200  1.00  0.00    -0.189 A  
HETATM    8  C   UNL     1      -7.021  11.784  68.592  1.00  0.00    -0.093 A  
HETATM    9  C   UNL     1      -8.806  10.868  66.653  1.00  0.00    -0.164 A  
HETATM   10  O   UNL     1      -7.588   8.796  66.604  1.00  0.00    -0.088 OA 
HETATM   11  C   UNL     1      -7.762  10.058  67.090  1.00  0.00    -0.092 A  
ENDBRANCH   3   4
ENDBRANCH   2   3
BRANCH   2  12
HETATM   12  N   UNL     1      -9.801  15.503  67.576  1.00  0.00    -0.220 NA 
HETATM   13  H   UNL     1     -10.245  14.843  66.937  1.00  0.00     0.000 HD 
BRANCH  12  14
HETATM   14  C   UNL     1     -10.581  15.622  68.813  1.00  0.00    -0.238 C  
BRANCH  14  15
HETATM   15  C   UNL     1     -11.977  14.958  68.686  1.00  0.00    -0.241 C  
HETATM   16  H   UNL     1     -12.767  13.423  67.726  1.00  0.00     0.000 HD 
HETATM   17  O   UNL     1     -11.913  13.830  67.803  1.00  0.00    -0.361 OA 
BRANCH  15  18
HETATM   18  C   UNL     1     -12.506  14.509  70.036  1.00  0.00    -0.348 A  
HETATM   19  O   UNL     1     -13.682  15.940  73.218  1.00  0.00    -0.699 OA 
HETATM   20  C   UNL     1     -13.326  15.040  72.257  1.00  0.00    -0.398 A  
HETATM   21  C   UNL     1     -12.880  15.456  71.001  1.00  0.00    -0.525 A  
HETATM   22  C   UNL     1     -13.421  13.692  72.574  1.00  0.00    -0.675 A  
HETATM   23  H   UNL     1     -13.986  15.657  74.072  1.00  0.00     0.000 HD 
HETATM   24  C   UNL     1     -13.058  12.751  71.620  1.00  0.00    -0.331 A  
HETATM   25  O   UNL     1     -13.123  11.413  71.874  1.00  0.00    -0.492 OA 
HETATM   26  C   UNL     1     -12.607  13.145  70.364  1.00  0.00    -0.186 A  
HETATM   27  H   UNL     1     -12.874  10.769  71.221  1.00  0.00     0.000 HD 
ENDBRANCH  15  18
ENDBRANCH  14  15
ENDBRANCH  12  14
ENDBRANCH   2  12
TORSDOF 6
ENDMDL
MODEL      273
REMARK 921   NORMALIZED FREE ENERGY PREDICTED BY IDOCK:   -4.51 KCAL/MOL
REMARK 922        TOTAL FREE ENERGY PREDICTED BY IDOCK:   -6.70 KCAL/MOL
REMARK 923 INTER-LIGAND FREE ENERGY PREDICTED BY IDOCK:   -5.35 KCAL/MOL
REMARK 924 INTRA-LIGAND FREE ENERGY PREDICTED BY IDOCK:   -1.36 KCAL/MOL
REMARK 927      BINDING AFFINITY PREDICTED BY RF-SCORE:    0.00 PKD
ROOT
HETATM    1  C   UNL     1      -5.626  12.260  69.140  1.00  0.00    -0.066 C  
HETATM    2  C   UNL     1      -7.046  12.247  68.557  1.00  0.00    -0.099 C  
ENDROOT
BRANCH   2   3
HETATM    3  C   UNL     1      -7.092  13.239  67.364  1.00  0.00    -0.111 C  
BRANCH   3   4
HETATM    4  C   UNL     1      -7.464  14.658  67.728  1.00  0.00    -0.180 A  
HETATM    5  C   UNL     1      -6.792  16.884  68.435  1.00  0.00    -0.167 A  
HETATM    6  H   UNL     1      -7.695  19.211  68.900  1.00  0.00     0.000 HD 
HETATM    7  C   UNL     1      -8.795  15.094  67.673  1.00  0.00    -0.178 A  
HETATM    8  C   UNL     1      -6.467  15.565  68.120  1.00  0.00    -0.133 A  
HETATM    9  C   UNL     1      -9.122  16.416  67.990  1.00  0.00    -0.200 A  
HETATM   10  O   UNL     1      -8.383  18.607  68.648  1.00  0.00    -0.329 OA 
HETATM   11  C   UNL     1      -8.114  17.302  68.359  1.00  0.00    -0.259 A  
ENDBRANCH   3   4
ENDBRANCH   2   3
BRANCH   2  12
HETATM   12  N   UNL     1      -7.457  10.897  68.143  1.00  0.00    -0.088 NA 
HETATM   13  H   UNL     1      -7.822  10.375  68.939  1.00  0.00     0.000 HD 
BRANCH  12  14
HETATM   14  C   UNL     1      -8.416  10.872  67.032  1.00  0.00    -0.134 C  
BRANCH  14  15
HETATM   15  C   UNL     1      -9.866  10.621  67.521  1.00  0.00    -0.168 C  
HETATM   16  H   UNL     1     -10.758  10.134  69.215  1.00  0.00     0.000 HD 
HETATM   17  O   UNL     1      -9.870  10.288  68.915  1.00  0.00    -0.176 OA 
BRANCH  15  18
HETATM   18  C   UNL     1     -10.749  11.833  67.292  1.00  0.00    -0.279 A  
HETATM   19  O   UNL     1     -12.468  14.469  69.204  1.00  0.00    -0.567 OA 
HETATM   20  C   UNL     1     -12.025  13.703  68.166  1.00  0.00    -0.355 A  
HETATM   21  C   UNL     1     -11.178  12.614  68.376  1.00  0.00    -0.316 A  
HETATM   22  C   UNL     1     -12.450  14.045  66.889  1.00  0.00    -0.187 A  
HETATM   23  H   UNL     1     -13.044  15.211  69.060  1.00  0.00     0.000 HD 
HETATM   24  C   UNL     1     -12.024  13.280  65.812  1.00  0.00    -0.417 A  
HETATM   25  O   UNL     1     -12.411  13.563  64.536  1.00  0.00    -0.556 OA 
HETATM   26  C   UNL     1     -11.182  12.188  66.002  1.00  0.00    -0.382 A  
HETATM   27  H   UNL     1     -12.120  13.038  63.799  1.00  0.00     0.000 HD 
ENDBRANCH  15  18
ENDBRANCH  14  15
ENDBRANCH  12  14
ENDBRANCH   2  12
TORSDOF 6
ENDMDL
MODEL      274
REMARK 921   NORMALIZED FREE ENERGY PREDICTED BY IDOCK:   -4.51 KCAL/MOL
REMARK 922        TOTAL FREE ENERGY PREDICTED BY IDOCK:   -6.70 KCAL/MOL
REMARK 923 INTER-LIGAND FREE ENERGY PREDICTED BY IDOCK:   -6.22 KCAL/MOL
REMARK 924 INTRA-LIGAND FREE ENERGY PREDICTED BY IDOCK:   -0.49 KCAL/MOL
REMARK 927      BINDING AFFINITY PREDICTED BY RF-SCORE:    0.00 PKD
ROOT
HETATM    1  C   UNL     1      -8.703   8.397  65.307  1.00  0.00    -0.148 C  
HETATM    2  C   UNL     1      -9.809   9.435  65.542  1.00  0.00    -0.161 C  
ENDROOT
BRANCH   2   3
HETATM    3  C   UNL     1      -9.984   9.622  67.073  1.00  0.00    -0.263 C  
BRANCH   3   4
HETATM    4  C   UNL     1      -9.987   8.341  67.876  1.00  0.00    -0.227 A  
HETATM    5  C   UNL     1     -10.938   6.150  68.321  1.00  0.00    -0.397 A  
HETATM    6  H   UNL     1     -10.647   4.079  69.762  1.00  0.00     0.000 HD 
HETATM    7  C   UNL     1      -9.044   8.121  68.890  1.00  0.00    -0.147 A  
HETATM    8  C   UNL     1     -10.938   7.347  67.605  1.00  0.00    -0.136 A  
HETATM    9  C   UNL     1      -9.044   6.922  69.610  1.00  0.00    -0.143 A  
HETATM   10  O   UNL     1     -10.004   4.748  69.967  1.00  0.00    -0.215 OA 
HETATM   11  C   UNL     1      -9.986   5.943  69.310  1.00  0.00    -0.174 A  
ENDBRANCH   3   4
ENDBRANCH   2   3
BRANCH   2  12
HETATM   12  N   UNL     1      -9.510  10.715  64.881  1.00  0.00    -0.221 NA 
HETATM   13  H   UNL     1     -10.055  10.810  64.024  1.00  0.00     0.000 HD 
BRANCH  12  14
HETATM   14  C   UNL     1      -9.692  11.893  65.736  1.00  0.00    -0.237 C  
BRANCH  14  15
HETATM   15  C   UNL     1     -10.879  12.775  65.267  1.00  0.00    -0.291 C  
HETATM   16  H   UNL     1     -12.847  12.629  65.191  1.00  0.00     0.000 HD 
HETATM   17  O   UNL     1     -12.120  12.089  65.478  1.00  0.00    -0.479 OA 
BRANCH  15  18
HETATM   18  C   UNL     1     -10.908  14.104  65.998  1.00  0.00    -0.297 A  
HETATM   19  O   UNL     1      -9.737  17.571  65.589  1.00  0.00    -0.532 OA 
HETATM   20  C   UNL     1     -10.314  16.454  66.118  1.00  0.00    -0.344 A  
HETATM   21  C   UNL     1     -10.321  15.242  65.424  1.00  0.00    -0.421 A  
HETATM   22  C   UNL     1     -10.891  16.564  67.376  1.00  0.00    -0.202 A  
HETATM   23  H   UNL     1      -9.732  18.395  66.061  1.00  0.00     0.000 HD 
HETATM   24  C   UNL     1     -11.479  15.442  67.945  1.00  0.00    -0.299 A  
HETATM   25  O   UNL     1     -12.057  15.486  69.179  1.00  0.00    -0.512 OA 
HETATM   26  C   UNL     1     -11.493  14.225  67.271  1.00  0.00    -0.371 A  
HETATM   27  H   UNL     1     -12.458  14.718  69.569  1.00  0.00     0.000 HD 
ENDBRANCH  15  18
ENDBRANCH  14  15
ENDBRANCH  12  14
ENDBRANCH   2  12
TORSDOF 6
ENDMDL
MODEL      275
REMARK 921   NORMALIZED FREE ENERGY PREDICTED BY IDOCK:   -4.50 KCAL/MOL
REMARK 922        TOTAL FREE ENERGY PREDICTED BY IDOCK:   -6.69 KCAL/MOL
REMARK 923 INTER-LIGAND FREE ENERGY PREDICTED BY IDOCK:   -5.88 KCAL/MOL
REMARK 924 INTRA-LIGAND FREE ENERGY PREDICTED BY IDOCK:   -0.81 KCAL/MOL
REMARK 927      BINDING AFFINITY PREDICTED BY RF-SCORE:    0.00 PKD
ROOT
HETATM    1  C   UNL     1     -10.238  17.695  66.106  1.00  0.00    -0.345 C  
HETATM    2  C   UNL     1     -10.263  16.248  66.619  1.00  0.00    -0.284 C  
ENDROOT
BRANCH   2   3
HETATM    3  C   UNL     1      -9.746  15.321  65.487  1.00  0.00    -0.313 C  
BRANCH   3   4
HETATM    4  C   UNL     1     -10.755  14.323  64.968  1.00  0.00    -0.435 A  
HETATM    5  C   UNL     1     -11.309  12.486  63.477  1.00  0.00    -0.556 A  
HETATM    6  H   UNL     1     -13.173  10.872  62.870  1.00  0.00     0.000 HD 
HETATM    7  C   UNL     1     -12.053  14.265  65.496  1.00  0.00    -0.397 A  
HETATM    8  C   UNL     1     -10.396  13.429  63.948  1.00  0.00     0.330 A  
HETATM    9  C   UNL     1     -12.969  13.322  65.022  1.00  0.00    -0.228 A  
HETATM   10  O   UNL     1     -13.436  11.479  63.552  1.00  0.00    -0.219 OA 
HETATM   11  C   UNL     1     -12.584  12.433  64.023  1.00  0.00    -0.412 A  
ENDBRANCH   3   4
ENDBRANCH   2   3
BRANCH   2  12
HETATM   12  N   UNL     1      -9.466  16.086  67.845  1.00  0.00    -0.209 NA 
HETATM   13  H   UNL     1      -9.371  16.979  68.329  1.00  0.00     0.000 HD 
BRANCH  12  14
HETATM   14  C   UNL     1      -9.970  15.057  68.761  1.00  0.00    -0.228 C  
BRANCH  14  15
HETATM   15  C   UNL     1      -9.658  13.624  68.256  1.00  0.00    -0.215 C  
HETATM   16  H   UNL     1      -8.100  12.412  68.216  1.00  0.00     0.000 HD 
HETATM   17  O   UNL     1      -8.291  13.290  68.525  1.00  0.00    -0.148 OA 
BRANCH  15  18
HETATM   18  C   UNL     1     -10.565  12.595  68.905  1.00  0.00    -0.157 A  
HETATM   19  O   UNL     1     -13.211  12.380  71.456  1.00  0.00    -0.345 OA 
HETATM   20  C   UNL     1     -12.304  12.030  70.500  1.00  0.00    -0.282 A  
HETATM   21  C   UNL     1     -11.501  12.985  69.875  1.00  0.00    -0.151 A  
HETATM   22  C   UNL     1     -12.205  10.684  70.172  1.00  0.00    -0.398 A  
HETATM   23  H   UNL     1     -13.757  11.730  71.881  1.00  0.00     0.000 HD 
HETATM   24  C   UNL     1     -11.285  10.294  69.208  1.00  0.00    -0.228 A  
HETATM   25  O   UNL     1     -11.138   8.987  68.847  1.00  0.00    -0.439 OA 
HETATM   26  C   UNL     1     -10.473  11.231  68.576  1.00  0.00    -0.218 A  
HETATM   27  H   UNL     1     -10.508   8.720  68.188  1.00  0.00     0.000 HD 
ENDBRANCH  15  18
ENDBRANCH  14  15
ENDBRANCH  12  14
ENDBRANCH   2  12
TORSDOF 6
ENDMDL
MODEL      276
REMARK 921   NORMALIZED FREE ENERGY PREDICTED BY IDOCK:   -4.49 KCAL/MOL
REMARK 922        TOTAL FREE ENERGY PREDICTED BY IDOCK:   -6.68 KCAL/MOL
REMARK 923 INTER-LIGAND FREE ENERGY PREDICTED BY IDOCK:   -4.56 KCAL/MOL
REMARK 924 INTRA-LIGAND FREE ENERGY PREDICTED BY IDOCK:   -2.12 KCAL/MOL
REMARK 927      BINDING AFFINITY PREDICTED BY RF-SCORE:    0.00 PKD
ROOT
HETATM    1  C   UNL     1      -7.175   3.519  67.853  1.00  0.00    -0.051 C  
HETATM    2  C   UNL     1      -7.866   4.604  68.690  1.00  0.00    -0.079 C  
ENDROOT
BRANCH   2   3
HETATM    3  C   UNL     1      -9.063   5.161  67.873  1.00  0.00    -0.121 C  
BRANCH   3   4
HETATM    4  C   UNL     1      -9.169   6.668  67.841  1.00  0.00    -0.111 A  
HETATM    5  C   UNL     1     -10.486   8.668  67.429  1.00  0.00    -0.351 A  
HETATM    6  H   UNL     1     -10.401  11.202  67.560  1.00  0.00     0.000 HD 
HETATM    7  C   UNL     1      -8.087   7.477  68.219  1.00  0.00    -0.124 A  
HETATM    8  C   UNL     1     -10.366   7.278  67.439  1.00  0.00    -0.330 A  
HETATM    9  C   UNL     1      -8.206   8.870  68.207  1.00  0.00    -0.121 A  
HETATM   10  O   UNL     1      -9.579  10.805  67.823  1.00  0.00    -0.159 OA 
HETATM   11  C   UNL     1      -9.410   9.452  67.821  1.00  0.00    -0.128 A  
ENDBRANCH   3   4
ENDBRANCH   2   3
BRANCH   2  12
HETATM   12  N   UNL     1      -8.308   4.092  69.997  1.00  0.00    -0.061 NA 
HETATM   13  H   UNL     1      -7.895   4.640  70.752  1.00  0.00     0.000 HD 
BRANCH  12  14
HETATM   14  C   UNL     1      -9.764   4.018  70.155  1.00  0.00    -0.195 C  
BRANCH  14  15
HETATM   15  C   UNL     1     -10.235   4.634  71.498  1.00  0.00    -0.154 C  
HETATM   16  H   UNL     1      -9.650   4.613  73.385  1.00  0.00     0.000 HD 
HETATM   17  O   UNL     1      -9.361   4.235  72.562  1.00  0.00    -0.116 OA 
BRANCH  15  18
HETATM   18  C   UNL     1     -10.284   6.149  71.430  1.00  0.00    -0.248 A  
HETATM   19  O   UNL     1      -8.155   9.071  72.131  1.00  0.00    -0.359 OA 
HETATM   20  C   UNL     1      -9.225   8.306  71.769  1.00  0.00    -0.198 A  
HETATM   21  C   UNL     1      -9.163   6.912  71.793  1.00  0.00    -0.143 A  
HETATM   22  C   UNL     1     -10.382   8.966  71.377  1.00  0.00    -0.377 A  
HETATM   23  H   UNL     1      -8.197  10.019  72.114  1.00  0.00     0.000 HD 
HETATM   24  C   UNL     1     -11.491   8.216  71.011  1.00  0.00    -0.279 A  
HETATM   25  O   UNL     1     -12.657   8.806  70.622  1.00  0.00    -0.482 OA 
HETATM   26  C   UNL     1     -11.451   6.825  71.032  1.00  0.00    -0.372 A  
HETATM   27  H   UNL     1     -13.417   8.293  70.372  1.00  0.00     0.000 HD 
ENDBRANCH  15  18
ENDBRANCH  14  15
ENDBRANCH  12  14
ENDBRANCH   2  12
TORSDOF 6
ENDMDL
MODEL      277
REMARK 921   NORMALIZED FREE ENERGY PREDICTED BY IDOCK:   -4.48 KCAL/MOL
REMARK 922        TOTAL FREE ENERGY PREDICTED BY IDOCK:   -6.66 KCAL/MOL
REMARK 923 INTER-LIGAND FREE ENERGY PREDICTED BY IDOCK:   -6.31 KCAL/MOL
REMARK 924 INTRA-LIGAND FREE ENERGY PREDICTED BY IDOCK:   -0.35 KCAL/MOL
REMARK 927      BINDING AFFINITY PREDICTED BY RF-SCORE:    0.00 PKD
ROOT
HETATM    1  C   UNL     1      -8.383   7.502  68.004  1.00  0.00    -0.124 C  
HETATM    2  C   UNL     1      -9.430   7.073  66.966  1.00  0.00    -0.149 C  
ENDROOT
BRANCH   2   3
HETATM    3  C   UNL     1     -10.786   6.876  67.695  1.00  0.00    -0.344 C  
BRANCH   3   4
HETATM    4  C   UNL     1     -10.677   6.414  69.130  1.00  0.00    -0.339 A  
HETATM    5  C   UNL     1     -11.100   6.797  71.492  1.00  0.00    -0.289 A  
HETATM    6  H   UNL     1     -10.862   5.728  73.783  1.00  0.00     0.000 HD 
HETATM    7  C   UNL     1     -10.096   5.179  69.450  1.00  0.00    -0.305 A  
HETATM    8  C   UNL     1     -11.171   7.221  70.165  1.00  0.00    -0.264 A  
HETATM    9  C   UNL     1     -10.023   4.753  70.780  1.00  0.00    -0.291 A  
HETATM   10  O   UNL     1     -10.511   5.175  73.095  1.00  0.00    -0.181 OA 
HETATM   11  C   UNL     1     -10.535   5.564  71.788  1.00  0.00    -0.228 A  
ENDBRANCH   3   4
ENDBRANCH   2   3
BRANCH   2  12
HETATM   12  N   UNL     1      -9.551   8.050  65.872  1.00  0.00    -0.438 NA 
HETATM   13  H   UNL     1      -9.907   7.599  65.030  1.00  0.00     0.000 HD 
BRANCH  12  14
HETATM   14  C   UNL     1     -10.359   9.229  66.202  1.00  0.00    -0.048 C  
BRANCH  14  15
HETATM   15  C   UNL     1      -9.544  10.543  66.086  1.00  0.00    -0.190 C  
HETATM   16  H   UNL     1      -8.511  11.486  64.692  1.00  0.00     0.000 HD 
HETATM   17  O   UNL     1      -9.009  10.681  64.763  1.00  0.00    -0.190 OA 
BRANCH  15  18
HETATM   18  C   UNL     1     -10.395  11.757  66.413  1.00  0.00    -0.257 A  
HETATM   19  O   UNL     1     -12.876  13.968  64.828  1.00  0.00    -0.681 OA 
HETATM   20  C   UNL     1     -12.024  13.426  65.745  1.00  0.00    -0.407 A  
HETATM   21  C   UNL     1     -11.275  12.285  65.456  1.00  0.00    -0.376 A  
HETATM   22  C   UNL     1     -11.927  14.054  66.980  1.00  0.00    -0.472 A  
HETATM   23  H   UNL     1     -13.386  14.744  65.025  1.00  0.00     0.000 HD 
HETATM   24  C   UNL     1     -11.063  13.532  67.932  1.00  0.00    -0.265 A  
HETATM   25  O   UNL     1     -10.920  14.107  69.160  1.00  0.00    -0.252 OA 
HETATM   26  C   UNL     1     -10.304  12.397  67.662  1.00  0.00    -0.223 A  
HETATM   27  H   UNL     1     -10.328  13.750  69.812  1.00  0.00     0.000 HD 
ENDBRANCH  15  18
ENDBRANCH  14  15
ENDBRANCH  12  14
ENDBRANCH   2  12
TORSDOF 6
ENDMDL
MODEL      278
REMARK 921   NORMALIZED FREE ENERGY PREDICTED BY IDOCK:   -4.48 KCAL/MOL
REMARK 922        TOTAL FREE ENERGY PREDICTED BY IDOCK:   -6.66 KCAL/MOL
REMARK 923 INTER-LIGAND FREE ENERGY PREDICTED BY IDOCK:   -6.33 KCAL/MOL
REMARK 924 INTRA-LIGAND FREE ENERGY PREDICTED BY IDOCK:   -0.32 KCAL/MOL
REMARK 927      BINDING AFFINITY PREDICTED BY RF-SCORE:    0.00 PKD
ROOT
HETATM    1  C   UNL     1     -12.250   9.809  70.753  1.00  0.00    -0.342 C  
HETATM    2  C   UNL     1     -10.745   9.659  70.489  1.00  0.00    -0.311 C  
ENDROOT
BRANCH   2   3
HETATM    3  C   UNL     1     -10.501   8.266  69.848  1.00  0.00    -0.223 C  
BRANCH   3   4
HETATM    4  C   UNL     1     -10.347   7.128  70.831  1.00  0.00    -0.214 A  
HETATM    5  C   UNL     1     -10.409   6.315  73.119  1.00  0.00    -0.240 A  
HETATM    6  H   UNL     1     -10.179   4.208  74.518  1.00  0.00     0.000 HD 
HETATM    7  C   UNL     1     -10.040   5.832  70.394  1.00  0.00    -0.271 A  
HETATM    8  C   UNL     1     -10.523   7.360  72.203  1.00  0.00    -0.243 A  
HETATM    9  C   UNL     1      -9.923   4.784  71.312  1.00  0.00    -0.270 A  
HETATM   10  O   UNL     1     -10.044   4.037  73.593  1.00  0.00    -0.118 OA 
HETATM   11  C   UNL     1     -10.119   5.035  72.667  1.00  0.00    -0.182 A  
ENDBRANCH   3   4
ENDBRANCH   2   3
BRANCH   2  12
HETATM   12  N   UNL     1     -10.227  10.737  69.633  1.00  0.00    -0.436 NA 
HETATM   13  H   UNL     1      -9.231  10.879  69.803  1.00  0.00     0.000 HD 
BRANCH  12  14
HETATM   14  C   UNL     1     -10.480  10.545  68.201  1.00  0.00    -0.186 C  
BRANCH  14  15
HETATM   15  C   UNL     1      -9.716  11.578  67.332  1.00  0.00    -0.179 C  
HETATM   16  H   UNL     1      -7.849  12.181  67.107  1.00  0.00     0.000 HD 
HETATM   17  O   UNL     1      -8.317  11.549  67.640  1.00  0.00    -0.127 OA 
BRANCH  15  18
HETATM   18  C   UNL     1      -9.910  11.312  65.851  1.00  0.00    -0.272 A  
HETATM   19  O   UNL     1      -8.801   8.963  63.241  1.00  0.00    -0.424 OA 
HETATM   20  C   UNL     1      -9.421  10.006  63.865  1.00  0.00    -0.220 A  
HETATM   21  C   UNL     1      -9.274  10.223  65.237  1.00  0.00    -0.244 A  
HETATM   22  C   UNL     1     -10.203  10.847  63.085  1.00  0.00    -0.253 A  
HETATM   23  H   UNL     1      -8.901   8.816  62.308  1.00  0.00     0.000 HD 
HETATM   24  C   UNL     1     -10.840  11.923  63.690  1.00  0.00    -0.444 A  
HETATM   25  O   UNL     1     -11.617  12.787  62.976  1.00  0.00    -0.800 OA 
HETATM   26  C   UNL     1     -10.703  12.158  65.054  1.00  0.00    -0.338 A  
HETATM   27  H   UNL     1     -12.052  13.523  63.390  1.00  0.00     0.000 HD 
ENDBRANCH  15  18
ENDBRANCH  14  15
ENDBRANCH  12  14
ENDBRANCH   2  12
TORSDOF 6
ENDMDL
MODEL      279
REMARK 921   NORMALIZED FREE ENERGY PREDICTED BY IDOCK:   -4.47 KCAL/MOL
REMARK 922        TOTAL FREE ENERGY PREDICTED BY IDOCK:   -6.65 KCAL/MOL
REMARK 923 INTER-LIGAND FREE ENERGY PREDICTED BY IDOCK:   -5.16 KCAL/MOL
REMARK 924 INTRA-LIGAND FREE ENERGY PREDICTED BY IDOCK:   -1.49 KCAL/MOL
REMARK 927      BINDING AFFINITY PREDICTED BY RF-SCORE:    0.00 PKD
ROOT
HETATM    1  C   UNL     1     -11.420  14.534  69.421  1.00  0.00    -0.323 C  
HETATM    2  C   UNL     1     -11.911  13.124  69.061  1.00  0.00    -0.313 C  
ENDROOT
BRANCH   2   3
HETATM    3  C   UNL     1     -11.778  12.941  67.525  1.00  0.00    -0.422 C  
BRANCH   3   4
HETATM    4  C   UNL     1     -10.560  12.166  67.078  1.00  0.00    -0.256 A  
HETATM    5  C   UNL     1      -9.599  10.218  65.989  1.00  0.00    -0.259 A  
HETATM    6  H   UNL     1      -7.390   9.191  65.275  1.00  0.00     0.000 HD 
HETATM    7  C   UNL     1      -9.267  12.666  67.291  1.00  0.00    -0.195 A  
HETATM    8  C   UNL     1     -10.713  10.932  66.429  1.00  0.00    -0.257 A  
HETATM    9  C   UNL     1      -8.150  11.950  66.851  1.00  0.00    -0.146 A  
HETATM   10  O   UNL     1      -7.268  10.019  65.724  1.00  0.00    -0.104 OA 
HETATM   11  C   UNL     1      -8.328  10.736  66.195  1.00  0.00    -0.166 A  
ENDBRANCH   3   4
ENDBRANCH   2   3
BRANCH   2  12
HETATM   12  N   UNL     1     -11.168  12.082  69.787  1.00  0.00    -0.490 NA 
HETATM   13  H   UNL     1     -10.800  12.452  70.664  1.00  0.00     0.000 HD 
BRANCH  12  14
HETATM   14  C   UNL     1     -11.933  10.855  70.030  1.00  0.00    -0.350 C  
BRANCH  14  15
HETATM   15  C   UNL     1     -11.120   9.814  70.844  1.00  0.00    -0.357 C  
HETATM   16  H   UNL     1     -11.496   8.175  71.881  1.00  0.00     0.000 HD 
HETATM   17  O   UNL     1     -11.993   8.813  71.383  1.00  0.00    -0.286 OA 
BRANCH  15  18
HETATM   18  C   UNL     1     -10.056   9.148  69.992  1.00  0.00    -0.230 A  
HETATM   19  O   UNL     1      -9.717   6.451  67.508  1.00  0.00    -0.118 OA 
HETATM   20  C   UNL     1      -9.412   7.471  68.360  1.00  0.00    -0.148 A  
HETATM   21  C   UNL     1     -10.400   8.111  69.112  1.00  0.00    -0.228 A  
HETATM   22  C   UNL     1      -8.079   7.851  68.456  1.00  0.00    -0.123 A  
HETATM   23  H   UNL     1      -9.045   6.017  66.997  1.00  0.00     0.000 HD 
HETATM   24  C   UNL     1      -7.736   8.881  69.321  1.00  0.00    -0.094 A  
HETATM   25  O   UNL     1      -6.444   9.295  69.463  1.00  0.00    -0.042 OA 
HETATM   26  C   UNL     1      -8.705   9.528  70.081  1.00  0.00    -0.258 A  
HETATM   27  H   UNL     1      -6.209   9.999  70.056  1.00  0.00     0.000 HD 
ENDBRANCH  15  18
ENDBRANCH  14  15
ENDBRANCH  12  14
ENDBRANCH   2  12
TORSDOF 6
ENDMDL
MODEL      280
REMARK 921   NORMALIZED FREE ENERGY PREDICTED BY IDOCK:   -4.46 KCAL/MOL
REMARK 922        TOTAL FREE ENERGY PREDICTED BY IDOCK:   -6.63 KCAL/MOL
REMARK 923 INTER-LIGAND FREE ENERGY PREDICTED BY IDOCK:   -5.95 KCAL/MOL
REMARK 924 INTRA-LIGAND FREE ENERGY PREDICTED BY IDOCK:   -0.69 KCAL/MOL
REMARK 927      BINDING AFFINITY PREDICTED BY RF-SCORE:    0.00 PKD
ROOT
HETATM    1  C   UNL     1      -6.257  14.278  68.139  1.00  0.00    -0.138 C  
HETATM    2  C   UNL     1      -7.629  14.888  67.818  1.00  0.00    -0.156 C  
ENDROOT
BRANCH   2   3
HETATM    3  C   UNL     1      -8.707  13.789  68.013  1.00  0.00    -0.181 C  
BRANCH   3   4
HETATM    4  C   UNL     1      -9.420  13.362  66.750  1.00  0.00    -0.263 A  
HETATM    5  C   UNL     1     -10.240  11.589  65.306  1.00  0.00    -0.315 A  
HETATM    6  H   UNL     1     -11.553  11.171  63.172  1.00  0.00     0.000 HD 
HETATM    7  C   UNL     1      -9.952  14.309  65.865  1.00  0.00    -0.340 A  
HETATM    8  C   UNL     1      -9.564  11.998  66.455  1.00  0.00    -0.239 A  
HETATM    9  C   UNL     1     -10.629  13.900  64.712  1.00  0.00    -0.444 A  
HETATM   10  O   UNL     1     -11.452  12.098  63.352  1.00  0.00    -0.427 OA 
HETATM   11  C   UNL     1     -10.775  12.542  64.449  1.00  0.00    -0.350 A  
ENDBRANCH   3   4
ENDBRANCH   2   3
BRANCH   2  12
HETATM   12  N   UNL     1      -7.914  16.067  68.650  1.00  0.00    -0.162 NA 
HETATM   13  H   UNL     1      -7.049  16.549  68.894  1.00  0.00     0.000 HD 
BRANCH  12  14
HETATM   14  C   UNL     1      -8.873  17.006  68.057  1.00  0.00    -0.223 C  
BRANCH  14  15
HETATM   15  C   UNL     1      -9.841  17.594  69.117  1.00  0.00    -0.145 C  
HETATM   16  H   UNL     1     -11.239  18.988  69.183  1.00  0.00     0.000 HD 
HETATM   17  O   UNL     1     -10.645  18.628  68.535  1.00  0.00    -0.228 OA 
BRANCH  15  18
HETATM   18  C   UNL     1     -10.745  16.524  69.701  1.00  0.00    -0.323 A  
HETATM   19  O   UNL     1     -12.527  13.471  68.671  1.00  0.00    -0.219 OA 
HETATM   20  C   UNL     1     -12.062  14.504  69.431  1.00  0.00    -0.290 A  
HETATM   21  C   UNL     1     -11.197  15.463  68.901  1.00  0.00    -0.296 A  
HETATM   22  C   UNL     1     -12.483  14.569  70.753  1.00  0.00    -0.420 A  
HETATM   23  H   UNL     1     -13.115  12.818  69.032  1.00  0.00     0.000 HD 
HETATM   24  C   UNL     1     -12.033  15.613  71.549  1.00  0.00    -0.417 A  
HETATM   25  O   UNL     1     -12.416  15.734  72.852  1.00  0.00    -0.375 OA 
HETATM   26  C   UNL     1     -11.174  16.581  71.039  1.00  0.00     0.004 A  
HETATM   27  H   UNL     1     -12.109  16.449  73.398  1.00  0.00     0.000 HD 
ENDBRANCH  15  18
ENDBRANCH  14  15
ENDBRANCH  12  14
ENDBRANCH   2  12
TORSDOF 6
ENDMDL
MODEL      281
REMARK 921   NORMALIZED FREE ENERGY PREDICTED BY IDOCK:   -4.46 KCAL/MOL
REMARK 922        TOTAL FREE ENERGY PREDICTED BY IDOCK:   -6.63 KCAL/MOL
REMARK 923 INTER-LIGAND FREE ENERGY PREDICTED BY IDOCK:   -6.13 KCAL/MOL
REMARK 924 INTRA-LIGAND FREE ENERGY PREDICTED BY IDOCK:   -0.50 KCAL/MOL
REMARK 927      BINDING AFFINITY PREDICTED BY RF-SCORE:    0.00 PKD
ROOT
HETATM    1  C   UNL     1     -13.214  14.973  70.148  1.00  0.00     0.095 C  
HETATM    2  C   UNL     1     -11.924  14.148  70.050  1.00  0.00    -0.340 C  
ENDROOT
BRANCH   2   3
HETATM    3  C   UNL     1     -10.721  15.094  70.310  1.00  0.00    -0.232 C  
BRANCH   3   4
HETATM    4  C   UNL     1     -10.100  15.692  69.068  1.00  0.00    -0.227 A  
HETATM    5  C   UNL     1      -8.664  15.456  67.123  1.00  0.00    -0.243 A  
HETATM    6  H   UNL     1      -7.846  16.688  65.058  1.00  0.00     0.000 HD 
HETATM    7  C   UNL     1     -10.391  17.006  68.676  1.00  0.00    -0.351 A  
HETATM    8  C   UNL     1      -9.225  14.926  68.284  1.00  0.00    -0.187 A  
HETATM    9  C   UNL     1      -9.827  17.539  67.513  1.00  0.00    -0.293 A  
HETATM   10  O   UNL     1      -8.427  17.224  65.584  1.00  0.00    -0.475 OA 
HETATM   11  C   UNL     1      -8.976  16.754  66.741  1.00  0.00    -0.240 A  
ENDBRANCH   3   4
ENDBRANCH   2   3
BRANCH   2  12
HETATM   12  N   UNL     1     -11.923  13.016  70.990  1.00  0.00    -0.356 NA 
HETATM   13  H   UNL     1     -12.625  13.156  71.717  1.00  0.00     0.000 HD 
BRANCH  12  14
HETATM   14  C   UNL     1     -12.097  11.705  70.356  1.00  0.00    -0.373 C  
BRANCH  14  15
HETATM   15  C   UNL     1     -12.572  10.628  71.367  1.00  0.00    -0.421 C  
HETATM   16  H   UNL     1     -14.069   9.349  71.521  1.00  0.00     0.000 HD 
HETATM   17  O   UNL     1     -13.778  10.008  70.902  1.00  0.00    -0.217 OA 
BRANCH  15  18
HETATM   18  C   UNL     1     -11.513   9.564  71.588  1.00  0.00    -0.433 A  
HETATM   19  O   UNL     1      -8.407   8.319  70.050  1.00  0.00    -0.117 OA 
HETATM   20  C   UNL     1      -9.470   8.453  70.895  1.00  0.00    -0.169 A  
HETATM   21  C   UNL     1     -10.421   9.459  70.713  1.00  0.00    -0.372 A  
HETATM   22  C   UNL     1      -9.575   7.547  71.942  1.00  0.00    -0.178 A  
HETATM   23  H   UNL     1      -7.761   7.635  70.174  1.00  0.00     0.000 HD 
HETATM   24  C   UNL     1     -10.651   7.652  72.814  1.00  0.00    -0.325 A  
HETATM   25  O   UNL     1     -10.811   6.790  73.858  1.00  0.00    -0.502 OA 
HETATM   26  C   UNL     1     -11.610   8.645  72.648  1.00  0.00    -0.177 A  
HETATM   27  H   UNL     1     -11.548   6.860  74.454  1.00  0.00     0.000 HD 
ENDBRANCH  15  18
ENDBRANCH  14  15
ENDBRANCH  12  14
ENDBRANCH   2  12
TORSDOF 6
ENDMDL
MODEL      282
REMARK 921   NORMALIZED FREE ENERGY PREDICTED BY IDOCK:   -4.45 KCAL/MOL
REMARK 922        TOTAL FREE ENERGY PREDICTED BY IDOCK:   -6.62 KCAL/MOL
REMARK 923 INTER-LIGAND FREE ENERGY PREDICTED BY IDOCK:   -6.24 KCAL/MOL
REMARK 924 INTRA-LIGAND FREE ENERGY PREDICTED BY IDOCK:   -0.38 KCAL/MOL
REMARK 927      BINDING AFFINITY PREDICTED BY RF-SCORE:    0.00 PKD
ROOT
HETATM    1  C   UNL     1     -10.350  18.116  66.312  1.00  0.00    -0.407 C  
HETATM    2  C   UNL     1     -10.116  16.605  66.168  1.00  0.00    -0.345 C  
ENDROOT
BRANCH   2   3
HETATM    3  C   UNL     1      -8.592  16.363  65.998  1.00  0.00    -0.246 C  
BRANCH   3   4
HETATM    4  C   UNL     1      -7.705  17.321  66.760  1.00  0.00    -0.279 A  
HETATM    5  C   UNL     1      -6.722  18.045  68.861  1.00  0.00    -0.245 A  
HETATM    6  H   UNL     1      -5.107  19.733  69.856  1.00  0.00     0.000 HD 
HETATM    7  C   UNL     1      -7.013  18.346  66.100  1.00  0.00    -0.299 A  
HETATM    8  C   UNL     1      -7.557  17.185  68.148  1.00  0.00    -0.208 A  
HETATM    9  C   UNL     1      -6.178  19.211  66.814  1.00  0.00    -0.185 A  
HETATM   10  O   UNL     1      -5.206  19.847  68.918  1.00  0.00    -0.189 OA 
HETATM   11  C   UNL     1      -6.033  19.045  68.188  1.00  0.00    -0.209 A  
ENDBRANCH   3   4
ENDBRANCH   2   3
BRANCH   2  12
HETATM   12  N   UNL     1     -10.649  15.855  67.315  1.00  0.00    -0.312 NA 
HETATM   13  H   UNL     1     -11.227  16.459  67.899  1.00  0.00     0.000 HD 
BRANCH  12  14
HETATM   14  C   UNL     1     -11.385  14.639  66.952  1.00  0.00    -0.356 C  
BRANCH  14  15
HETATM   15  C   UNL     1     -11.057  13.455  67.899  1.00  0.00    -0.265 C  
HETATM   16  H   UNL     1     -11.950  12.492  69.374  1.00  0.00     0.000 HD 
HETATM   17  O   UNL     1     -12.151  13.217  68.794  1.00  0.00    -0.310 OA 
BRANCH  15  18
HETATM   18  C   UNL     1     -10.757  12.186  67.122  1.00  0.00    -0.267 A  
HETATM   19  O   UNL     1     -10.887   8.530  67.541  1.00  0.00    -0.484 OA 
HETATM   20  C   UNL     1     -10.679   9.764  66.998  1.00  0.00    -0.166 A  
HETATM   21  C   UNL     1     -10.995  10.929  67.699  1.00  0.00    -0.350 A  
HETATM   22  C   UNL     1     -10.138   9.820  65.720  1.00  0.00    -0.308 A  
HETATM   23  H   UNL     1     -10.672   7.738  67.063  1.00  0.00     0.000 HD 
HETATM   24  C   UNL     1      -9.907  11.062  65.143  1.00  0.00    -0.268 A  
HETATM   25  O   UNL     1      -9.373  11.182  63.894  1.00  0.00    -0.263 OA 
HETATM   26  C   UNL     1     -10.212  12.234  65.827  1.00  0.00    -0.281 A  
HETATM   27  H   UNL     1      -9.215  12.031  63.499  1.00  0.00     0.000 HD 
ENDBRANCH  15  18
ENDBRANCH  14  15
ENDBRANCH  12  14
ENDBRANCH   2  12
TORSDOF 6
ENDMDL
MODEL      283
REMARK 921   NORMALIZED FREE ENERGY PREDICTED BY IDOCK:   -4.45 KCAL/MOL
REMARK 922        TOTAL FREE ENERGY PREDICTED BY IDOCK:   -6.62 KCAL/MOL
REMARK 923 INTER-LIGAND FREE ENERGY PREDICTED BY IDOCK:   -6.05 KCAL/MOL
REMARK 924 INTRA-LIGAND FREE ENERGY PREDICTED BY IDOCK:   -0.57 KCAL/MOL
REMARK 927      BINDING AFFINITY PREDICTED BY RF-SCORE:    0.00 PKD
ROOT
HETATM    1  C   UNL     1     -11.771  12.646  67.366  1.00  0.00    -0.432 C  
HETATM    2  C   UNL     1     -11.519  12.641  68.880  1.00  0.00    -0.306 C  
ENDROOT
BRANCH   2   3
HETATM    3  C   UNL     1     -11.881  14.043  69.438  1.00  0.00    -0.381 C  
BRANCH   3   4
HETATM    4  C   UNL     1     -10.914  15.146  69.071  1.00  0.00    -0.245 A  
HETATM    5  C   UNL     1     -10.513  17.367  68.174  1.00  0.00    -0.389 A  
HETATM    6  H   UNL     1      -8.677  19.069  67.747  1.00  0.00     0.000 HD 
HETATM    7  C   UNL     1      -9.539  15.009  69.307  1.00  0.00    -0.181 A  
HETATM    8  C   UNL     1     -11.390  16.332  68.495  1.00  0.00    -0.330 A  
HETATM    9  C   UNL     1      -8.658  16.045  68.984  1.00  0.00    -0.244 A  
HETATM   10  O   UNL     1      -8.337  18.267  68.125  1.00  0.00    -0.268 OA 
HETATM   11  C   UNL     1      -9.156  17.220  68.429  1.00  0.00    -0.265 A  
ENDBRANCH   3   4
ENDBRANCH   2   3
BRANCH   2  12
HETATM   12  N   UNL     1     -12.284  11.584  69.561  1.00  0.00    -0.263 NA 
HETATM   13  H   UNL     1     -12.887  11.097  68.898  1.00  0.00     0.000 HD 
BRANCH  12  14
HETATM   14  C   UNL     1     -11.459  10.625  70.302  1.00  0.00    -0.337 C  
BRANCH  14  15
HETATM   15  C   UNL     1     -10.471   9.869  69.375  1.00  0.00    -0.231 C  
HETATM   16  H   UNL     1      -8.518   9.809  69.084  1.00  0.00     0.000 HD 
HETATM   17  O   UNL     1      -9.123  10.272  69.652  1.00  0.00    -0.196 OA 
BRANCH  15  18
HETATM   18  C   UNL     1     -10.590   8.365  69.542  1.00  0.00    -0.217 A  
HETATM   19  O   UNL     1     -11.115   5.857  72.186  1.00  0.00    -0.256 OA 
HETATM   20  C   UNL     1     -10.897   6.423  70.965  1.00  0.00    -0.262 A  
HETATM   21  C   UNL     1     -10.830   7.809  70.808  1.00  0.00    -0.245 A  
HETATM   22  C   UNL     1     -10.740   5.570  69.881  1.00  0.00    -0.358 A  
HETATM   23  H   UNL     1     -11.160   4.914  72.293  1.00  0.00     0.000 HD 
HETATM   24  C   UNL     1     -10.508   6.116  68.625  1.00  0.00    -0.236 A  
HETATM   25  O   UNL     1     -10.341   5.330  67.524  1.00  0.00    -0.192 OA 
HETATM   26  C   UNL     1     -10.435   7.494  68.449  1.00  0.00    -0.212 A  
HETATM   27  H   UNL     1     -10.182   5.704  66.665  1.00  0.00     0.000 HD 
ENDBRANCH  15  18
ENDBRANCH  14  15
ENDBRANCH  12  14
ENDBRANCH   2  12
TORSDOF 6
ENDMDL
MODEL      284
REMARK 921   NORMALIZED FREE ENERGY PREDICTED BY IDOCK:   -4.43 KCAL/MOL
REMARK 922        TOTAL FREE ENERGY PREDICTED BY IDOCK:   -6.59 KCAL/MOL
REMARK 923 INTER-LIGAND FREE ENERGY PREDICTED BY IDOCK:   -6.00 KCAL/MOL
REMARK 924 INTRA-LIGAND FREE ENERGY PREDICTED BY IDOCK:   -0.59 KCAL/MOL
REMARK 927      BINDING AFFINITY PREDICTED BY RF-SCORE:    0.00 PKD
ROOT
HETATM    1  C   UNL     1      -7.327   4.985  71.197  1.00  0.00    -0.073 C  
HETATM    2  C   UNL     1      -7.951   5.631  69.952  1.00  0.00    -0.095 C  
ENDROOT
BRANCH   2   3
HETATM    3  C   UNL     1      -8.850   4.575  69.254  1.00  0.00    -0.128 C  
BRANCH   3   4
HETATM    4  C   UNL     1      -8.761   4.558  67.746  1.00  0.00    -0.112 A  
HETATM    5  C   UNL     1      -9.868   4.537  65.583  1.00  0.00    -0.227 A  
HETATM    6  H   UNL     1      -9.416   4.605  63.085  1.00  0.00     0.000 HD 
HETATM    7  C   UNL     1      -7.520   4.582  67.094  1.00  0.00    -0.081 A  
HETATM    8  C   UNL     1      -9.933   4.528  66.976  1.00  0.00    -0.215 A  
HETATM    9  C   UNL     1      -7.454   4.589  65.697  1.00  0.00    -0.081 A  
HETATM   10  O   UNL     1      -8.612   4.613  63.592  1.00  0.00    -0.122 OA 
HETATM   11  C   UNL     1      -8.630   4.577  64.955  1.00  0.00    -0.135 A  
ENDBRANCH   3   4
ENDBRANCH   2   3
BRANCH   2  12
HETATM   12  N   UNL     1      -8.715   6.843  70.287  1.00  0.00    -0.143 NA 
HETATM   13  H   UNL     1      -9.420   7.028  69.573  1.00  0.00     0.000 HD 
BRANCH  12  14
HETATM   14  C   UNL     1      -9.328   6.820  71.619  1.00  0.00    -0.151 C  
BRANCH  14  15
HETATM   15  C   UNL     1      -9.514   8.248  72.198  1.00  0.00    -0.258 C  
HETATM   16  H   UNL     1      -8.606   9.996  72.055  1.00  0.00     0.000 HD 
HETATM   17  O   UNL     1      -8.492   9.122  71.701  1.00  0.00    -0.344 OA 
BRANCH  15  18
HETATM   18  C   UNL     1     -10.876   8.818  71.849  1.00  0.00    -0.431 A  
HETATM   19  O   UNL     1     -14.334   8.831  73.116  1.00  0.00    -1.119 OA 
HETATM   20  C   UNL     1     -13.241   9.065  72.334  1.00  0.00    -0.447 A  
HETATM   21  C   UNL     1     -11.981   8.575  72.680  1.00  0.00    -0.309 A  
HETATM   22  C   UNL     1     -13.429   9.809  71.176  1.00  0.00    -0.304 A  
HETATM   23  H   UNL     1     -15.191   9.165  72.881  1.00  0.00     0.000 HD 
HETATM   24  C   UNL     1     -12.338  10.057  70.354  1.00  0.00    -0.135 A  
HETATM   25  O   UNL     1     -12.460  10.775  69.202  1.00  0.00    -0.724 OA 
HETATM   26  C   UNL     1     -11.074   9.573  70.679  1.00  0.00    -0.364 A  
HETATM   27  H   UNL     1     -11.713  10.945  68.639  1.00  0.00     0.000 HD 
ENDBRANCH  15  18
ENDBRANCH  14  15
ENDBRANCH  12  14
ENDBRANCH   2  12
TORSDOF 6
ENDMDL
MODEL      285
REMARK 921   NORMALIZED FREE ENERGY PREDICTED BY IDOCK:   -4.42 KCAL/MOL
REMARK 922        TOTAL FREE ENERGY PREDICTED BY IDOCK:   -6.58 KCAL/MOL
REMARK 923 INTER-LIGAND FREE ENERGY PREDICTED BY IDOCK:   -6.19 KCAL/MOL
REMARK 924 INTRA-LIGAND FREE ENERGY PREDICTED BY IDOCK:   -0.38 KCAL/MOL
REMARK 927      BINDING AFFINITY PREDICTED BY RF-SCORE:    0.00 PKD
ROOT
HETATM    1  C   UNL     1     -11.079  11.580  69.296  1.00  0.00    -0.305 C  
HETATM    2  C   UNL     1     -10.507  11.758  67.883  1.00  0.00    -0.196 C  
ENDROOT
BRANCH   2   3
HETATM    3  C   UNL     1      -9.825  13.151  67.806  1.00  0.00    -0.228 C  
BRANCH   3   4
HETATM    4  C   UNL     1     -10.302  14.034  66.676  1.00  0.00    -0.278 A  
HETATM    5  C   UNL     1     -11.700  14.355  64.716  1.00  0.00    -0.420 A  
HETATM    6  H   UNL     1     -12.383  16.084  62.986  1.00  0.00     0.000 HD 
HETATM    7  C   UNL     1      -9.835  15.349  66.540  1.00  0.00    -0.288 A  
HETATM    8  C   UNL     1     -11.233  13.543  65.749  1.00  0.00    -0.308 A  
HETATM    9  C   UNL     1     -10.302  16.162  65.503  1.00  0.00    -0.391 A  
HETATM   10  O   UNL     1     -11.743  16.427  63.598  1.00  0.00    -0.933 OA 
HETATM   11  C   UNL     1     -11.239  15.660  64.606  1.00  0.00    -0.369 A  
ENDBRANCH   3   4
ENDBRANCH   2   3
BRANCH   2  12
HETATM   12  N   UNL     1      -9.564  10.684  67.532  1.00  0.00    -0.160 NA 
HETATM   13  H   UNL     1      -9.537   9.979  68.268  1.00  0.00     0.000 HD 
BRANCH  12  14
HETATM   14  C   UNL     1      -9.822  10.057  66.231  1.00  0.00    -0.236 C  
BRANCH  14  15
HETATM   15  C   UNL     1      -8.819   8.912  65.929  1.00  0.00    -0.179 C  
HETATM   16  H   UNL     1      -6.868   8.628  66.053  1.00  0.00     0.000 HD 
HETATM   17  O   UNL     1      -7.482   9.329  66.238  1.00  0.00    -0.094 OA 
BRANCH  15  18
HETATM   18  C   UNL     1      -9.149   7.659  66.718  1.00  0.00    -0.181 A  
HETATM   19  O   UNL     1     -11.640   6.424  69.133  1.00  0.00    -0.608 OA 
HETATM   20  C   UNL     1     -10.557   6.481  68.306  1.00  0.00    -0.249 A  
HETATM   21  C   UNL     1     -10.279   7.621  67.549  1.00  0.00    -0.294 A  
HETATM   22  C   UNL     1      -9.736   5.362  68.245  1.00  0.00    -0.175 A  
HETATM   23  H   UNL     1     -11.829   5.648  69.647  1.00  0.00     0.000 HD 
HETATM   24  C   UNL     1      -8.621   5.393  67.419  1.00  0.00    -0.108 A  
HETATM   25  O   UNL     1      -7.774   4.328  67.321  1.00  0.00    -0.080 OA 
HETATM   26  C   UNL     1      -8.325   6.521  66.660  1.00  0.00    -0.113 A  
HETATM   27  H   UNL     1      -7.011   4.349  66.757  1.00  0.00     0.000 HD 
ENDBRANCH  15  18
ENDBRANCH  14  15
ENDBRANCH  12  14
ENDBRANCH   2  12
TORSDOF 6
ENDMDL
MODEL      286
REMARK 921   NORMALIZED FREE ENERGY PREDICTED BY IDOCK:   -4.41 KCAL/MOL
REMARK 922        TOTAL FREE ENERGY PREDICTED BY IDOCK:   -6.56 KCAL/MOL
REMARK 923 INTER-LIGAND FREE ENERGY PREDICTED BY IDOCK:   -5.35 KCAL/MOL
REMARK 924 INTRA-LIGAND FREE ENERGY PREDICTED BY IDOCK:   -1.21 KCAL/MOL
REMARK 927      BINDING AFFINITY PREDICTED BY RF-SCORE:    0.00 PKD
ROOT
HETATM    1  C   UNL     1      -8.977  11.717  67.189  1.00  0.00    -0.177 C  
HETATM    2  C   UNL     1     -10.351  11.197  67.635  1.00  0.00    -0.192 C  
ENDROOT
BRANCH   2   3
HETATM    3  C   UNL     1     -10.585   9.813  66.973  1.00  0.00    -0.269 C  
BRANCH   3   4
HETATM    4  C   UNL     1      -9.921   8.650  67.674  1.00  0.00    -0.248 A  
HETATM    5  C   UNL     1      -7.911   7.605  68.552  1.00  0.00    -0.123 A  
HETATM    6  H   UNL     1      -7.089   5.568  69.827  1.00  0.00     0.000 HD 
HETATM    7  C   UNL     1     -10.670   7.555  68.128  1.00  0.00    -0.145 A  
HETATM    8  C   UNL     1      -8.534   8.659  67.886  1.00  0.00    -0.129 A  
HETATM    9  C   UNL     1     -10.046   6.497  68.794  1.00  0.00    -0.178 A  
HETATM   10  O   UNL     1      -8.027   5.540  69.680  1.00  0.00    -0.090 OA 
HETATM   11  C   UNL     1      -8.672   6.537  69.009  1.00  0.00    -0.128 A  
ENDBRANCH   3   4
ENDBRANCH   2   3
BRANCH   2  12
HETATM   12  N   UNL     1     -10.456  11.111  69.100  1.00  0.00    -0.306 NA 
HETATM   13  H   UNL     1     -10.150  11.983  69.532  1.00  0.00     0.000 HD 
BRANCH  12  14
HETATM   14  C   UNL     1     -11.789  10.739  69.588  1.00  0.00    -0.320 C  
BRANCH  14  15
HETATM   15  C   UNL     1     -11.825  10.601  71.133  1.00  0.00    -0.241 C  
HETATM   16  H   UNL     1     -13.172  10.759  72.568  1.00  0.00     0.000 HD 
HETATM   17  O   UNL     1     -13.150  10.844  71.623  1.00  0.00    -0.430 OA 
BRANCH  15  18
HETATM   18  C   UNL     1     -11.368   9.225  71.581  1.00  0.00    -0.467 A  
HETATM   19  O   UNL     1      -8.261   7.373  72.268  1.00  0.00    -0.099 OA 
HETATM   20  C   UNL     1      -9.583   7.671  72.116  1.00  0.00    -0.160 A  
HETATM   21  C   UNL     1     -10.002   8.950  71.745  1.00  0.00    -0.397 A  
HETATM   22  C   UNL     1     -10.501   6.652  72.341  1.00  0.00    -0.232 A  
HETATM   23  H   UNL     1      -7.976   6.503  72.521  1.00  0.00     0.000 HD 
HETATM   24  C   UNL     1     -11.854   6.922  72.186  1.00  0.00    -0.281 A  
HETATM   25  O   UNL     1     -12.801   5.963  72.388  1.00  0.00    -0.380 OA 
HETATM   26  C   UNL     1     -12.291   8.189  71.813  1.00  0.00    -0.357 A  
HETATM   27  H   UNL     1     -13.727   6.147  72.281  1.00  0.00     0.000 HD 
ENDBRANCH  15  18
ENDBRANCH  14  15
ENDBRANCH  12  14
ENDBRANCH   2  12
TORSDOF 6
ENDMDL
MODEL      287
REMARK 921   NORMALIZED FREE ENERGY PREDICTED BY IDOCK:   -4.39 KCAL/MOL
REMARK 922        TOTAL FREE ENERGY PREDICTED BY IDOCK:   -6.54 KCAL/MOL
REMARK 923 INTER-LIGAND FREE ENERGY PREDICTED BY IDOCK:   -6.49 KCAL/MOL
REMARK 924 INTRA-LIGAND FREE ENERGY PREDICTED BY IDOCK:   -0.06 KCAL/MOL
REMARK 927      BINDING AFFINITY PREDICTED BY RF-SCORE:    0.00 PKD
ROOT
HETATM    1  C   UNL     1     -11.544  11.071  70.818  1.00  0.00    -0.159 C  
HETATM    2  C   UNL     1     -12.475  11.576  69.706  1.00  0.00    -0.057 C  
ENDROOT
BRANCH   2   3
HETATM    3  C   UNL     1     -12.194  13.087  69.486  1.00  0.00    -0.198 C  
BRANCH   3   4
HETATM    4  C   UNL     1     -12.392  13.957  70.707  1.00  0.00    -0.449 A  
HETATM    5  C   UNL     1     -11.976  16.042  71.883  1.00  0.00    -0.606 A  
HETATM    6  H   UNL     1     -12.555  17.312  74.004  1.00  0.00     0.000 HD 
HETATM    7  C   UNL     1     -13.189  13.529  71.778  1.00  0.00    -0.490 A  
HETATM    8  C   UNL     1     -11.782  15.218  70.774  1.00  0.00    -0.377 A  
HETATM    9  C   UNL     1     -13.382  14.353  72.891  1.00  0.00    -0.575 A  
HETATM   10  O   UNL     1     -12.965  16.455  73.979  1.00  0.00    -0.698 OA 
HETATM   11  C   UNL     1     -12.780  15.608  72.928  1.00  0.00    -0.453 A  
ENDBRANCH   3   4
ENDBRANCH   2   3
BRANCH   2  12
HETATM   12  N   UNL     1     -12.303  10.816  68.458  1.00  0.00    -0.735 NA 
HETATM   13  H   UNL     1     -13.027  11.067  67.786  1.00  0.00     0.000 HD 
BRANCH  12  14
HETATM   14  C   UNL     1     -10.974  10.946  67.851  1.00  0.00    -0.271 C  
BRANCH  14  15
HETATM   15  C   UNL     1     -10.088   9.701  68.118  1.00  0.00    -0.175 C  
HETATM   16  H   UNL     1     -10.367   7.795  68.558  1.00  0.00     0.000 HD 
HETATM   17  O   UNL     1     -10.909   8.558  68.395  1.00  0.00    -0.081 OA 
BRANCH  15  18
HETATM   18  C   UNL     1      -9.185   9.396  66.938  1.00  0.00    -0.173 A  
HETATM   19  O   UNL     1      -7.782  11.051  63.962  1.00  0.00    -0.240 OA 
HETATM   20  C   UNL     1      -8.082  10.101  64.895  1.00  0.00    -0.153 A  
HETATM   21  C   UNL     1      -8.879  10.396  66.002  1.00  0.00    -0.175 A  
HETATM   22  C   UNL     1      -7.566   8.826  64.700  1.00  0.00    -0.109 A  
HETATM   23  H   UNL     1      -7.239  10.850  63.209  1.00  0.00     0.000 HD 
HETATM   24  C   UNL     1      -7.861   7.835  65.627  1.00  0.00    -0.107 A  
HETATM   25  O   UNL     1      -7.388   6.564  65.489  1.00  0.00    -0.071 OA 
HETATM   26  C   UNL     1      -8.657   8.108  66.735  1.00  0.00    -0.136 A  
HETATM   27  H   UNL     1      -7.590   5.885  66.123  1.00  0.00     0.000 HD 
ENDBRANCH  15  18
ENDBRANCH  14  15
ENDBRANCH  12  14
ENDBRANCH   2  12
TORSDOF 6
ENDMDL
MODEL      288
REMARK 921   NORMALIZED FREE ENERGY PREDICTED BY IDOCK:   -4.36 KCAL/MOL
REMARK 922        TOTAL FREE ENERGY PREDICTED BY IDOCK:   -6.50 KCAL/MOL
REMARK 923 INTER-LIGAND FREE ENERGY PREDICTED BY IDOCK:   -5.85 KCAL/MOL
REMARK 924 INTRA-LIGAND FREE ENERGY PREDICTED BY IDOCK:   -0.65 KCAL/MOL
REMARK 927      BINDING AFFINITY PREDICTED BY RF-SCORE:    0.00 PKD
ROOT
HETATM    1  C   UNL     1      -6.709  12.193  69.328  1.00  0.00    -0.084 C  
HETATM    2  C   UNL     1      -7.799  12.238  68.248  1.00  0.00    -0.153 C  
ENDROOT
BRANCH   2   3
HETATM    3  C   UNL     1      -7.494  13.426  67.298  1.00  0.00    -0.062 C  
BRANCH   3   4
HETATM    4  C   UNL     1      -8.416  14.615  67.444  1.00  0.00    -0.219 A  
HETATM    5  C   UNL     1      -9.179  16.528  68.732  1.00  0.00    -0.252 A  
HETATM    6  H   UNL     1     -10.780  18.498  68.663  1.00  0.00     0.000 HD 
HETATM    7  C   UNL     1      -9.338  14.943  66.440  1.00  0.00    -0.327 A  
HETATM    8  C   UNL     1      -8.351  15.415  68.594  1.00  0.00    -0.168 A  
HETATM    9  C   UNL     1     -10.170  16.058  66.578  1.00  0.00    -0.301 A  
HETATM   10  O   UNL     1     -10.845  17.960  67.883  1.00  0.00    -0.365 OA 
HETATM   11  C   UNL     1     -10.074  16.847  67.720  1.00  0.00    -0.292 A  
ENDBRANCH   3   4
ENDBRANCH   2   3
BRANCH   2  12
HETATM   12  N   UNL     1      -7.889  10.972  67.505  1.00  0.00    -0.113 NA 
HETATM   13  H   UNL     1      -7.691  10.182  68.120  1.00  0.00     0.000 HD 
BRANCH  12  14
HETATM   14  C   UNL     1      -9.163  10.770  66.807  1.00  0.00    -0.157 C  
BRANCH  14  15
HETATM   15  C   UNL     1     -10.345  10.588  67.795  1.00  0.00    -0.212 C  
HETATM   16  H   UNL     1     -12.278  10.991  67.829  1.00  0.00     0.000 HD 
HETATM   17  O   UNL     1     -11.555  11.103  67.224  1.00  0.00    -0.514 OA 
BRANCH  15  18
HETATM   18  C   UNL     1     -10.545   9.129  68.162  1.00  0.00    -0.235 A  
HETATM   19  O   UNL     1     -11.015   5.855  66.543  1.00  0.00    -0.628 OA 
HETATM   20  C   UNL     1     -10.885   6.820  67.499  1.00  0.00    -0.318 A  
HETATM   21  C   UNL     1     -10.659   8.155  67.159  1.00  0.00    -0.355 A  
HETATM   22  C   UNL     1     -10.989   6.425  68.827  1.00  0.00    -0.404 A  
HETATM   23  H   UNL     1     -11.168   4.947  66.775  1.00  0.00     0.000 HD 
HETATM   24  C   UNL     1     -10.870   7.385  69.823  1.00  0.00    -0.234 A  
HETATM   25  O   UNL     1     -10.968   7.060  71.143  1.00  0.00    -0.238 OA 
HETATM   26  C   UNL     1     -10.648   8.721  69.504  1.00  0.00    -0.224 A  
HETATM   27  H   UNL     1     -10.887   7.717  71.825  1.00  0.00     0.000 HD 
ENDBRANCH  15  18
ENDBRANCH  14  15
ENDBRANCH  12  14
ENDBRANCH   2  12
TORSDOF 6
ENDMDL
MODEL      289
REMARK 921   NORMALIZED FREE ENERGY PREDICTED BY IDOCK:   -4.36 KCAL/MOL
REMARK 922        TOTAL FREE ENERGY PREDICTED BY IDOCK:   -6.49 KCAL/MOL
REMARK 923 INTER-LIGAND FREE ENERGY PREDICTED BY IDOCK:   -6.54 KCAL/MOL
REMARK 924 INTRA-LIGAND FREE ENERGY PREDICTED BY IDOCK:    0.05 KCAL/MOL
REMARK 927      BINDING AFFINITY PREDICTED BY RF-SCORE:    0.00 PKD
ROOT
HETATM    1  C   UNL     1      -8.328  15.662  67.598  1.00  0.00    -0.168 C  
HETATM    2  C   UNL     1      -9.036  16.477  66.507  1.00  0.00    -0.278 C  
ENDROOT
BRANCH   2   3
HETATM    3  C   UNL     1      -9.667  15.486  65.492  1.00  0.00    -0.307 C  
BRANCH   3   4
HETATM    4  C   UNL     1     -10.185  14.200  66.094  1.00  0.00    -0.313 A  
HETATM    5  C   UNL     1     -12.058  12.812  66.776  1.00  0.00    -0.290 A  
HETATM    6  H   UNL     1     -12.636  10.530  67.729  1.00  0.00     0.000 HD 
HETATM    7  C   UNL     1      -9.305  13.186  66.499  1.00  0.00    -0.222 A  
HETATM    8  C   UNL     1     -11.565  14.003  66.245  1.00  0.00    -0.379 A  
HETATM    9  C   UNL     1      -9.799  11.992  67.033  1.00  0.00    -0.205 A  
HETATM   10  O   UNL     1     -11.698  10.653  67.645  1.00  0.00    -0.480 OA 
HETATM   11  C   UNL     1     -11.173  11.812  67.157  1.00  0.00    -0.316 A  
ENDBRANCH   3   4
ENDBRANCH   2   3
BRANCH   2  12
HETATM   12  N   UNL     1     -10.051  17.382  67.068  1.00  0.00    -0.303 NA 
HETATM   13  H   UNL     1     -10.548  17.868  66.322  1.00  0.00     0.000 HD 
BRANCH  12  14
HETATM   14  C   UNL     1     -11.001  16.733  67.978  1.00  0.00    -0.296 C  
BRANCH  14  15
HETATM   15  C   UNL     1     -10.474  16.689  69.436  1.00  0.00    -0.320 C  
HETATM   16  H   UNL     1     -10.200  17.969  70.914  1.00  0.00     0.000 HD 
HETATM   17  O   UNL     1     -10.522  17.996  70.022  1.00  0.00     0.491 OA 
BRANCH  15  18
HETATM   18  C   UNL     1     -11.277  15.725  70.290  1.00  0.00    -0.377 A  
HETATM   19  O   UNL     1     -12.384  12.213  70.294  1.00  0.00    -0.271 OA 
HETATM   20  C   UNL     1     -12.205  13.514  70.662  1.00  0.00    -0.358 A  
HETATM   21  C   UNL     1     -11.431  14.387  69.896  1.00  0.00    -0.314 A  
HETATM   22  C   UNL     1     -12.826  13.942  71.829  1.00  0.00    -0.421 A  
HETATM   23  H   UNL     1     -12.910  11.620  70.816  1.00  0.00     0.000 HD 
HETATM   24  C   UNL     1     -12.671  15.263  72.227  1.00  0.00    -0.351 A  
HETATM   25  O   UNL     1     -13.259  15.743  73.359  1.00  0.00    -0.537 OA 
HETATM   26  C   UNL     1     -11.906  16.149  71.474  1.00  0.00    -0.528 A  
HETATM   27  H   UNL     1     -13.153  16.647  73.631  1.00  0.00     0.000 HD 
ENDBRANCH  15  18
ENDBRANCH  14  15
ENDBRANCH  12  14
ENDBRANCH   2  12
TORSDOF 6
ENDMDL
MODEL      290
REMARK 921   NORMALIZED FREE ENERGY PREDICTED BY IDOCK:   -4.32 KCAL/MOL
REMARK 922        TOTAL FREE ENERGY PREDICTED BY IDOCK:   -6.44 KCAL/MOL
REMARK 923 INTER-LIGAND FREE ENERGY PREDICTED BY IDOCK:   -6.15 KCAL/MOL
REMARK 924 INTRA-LIGAND FREE ENERGY PREDICTED BY IDOCK:   -0.30 KCAL/MOL
REMARK 927      BINDING AFFINITY PREDICTED BY RF-SCORE:    0.00 PKD
ROOT
HETATM    1  C   UNL     1     -10.895  15.197  67.546  1.00  0.00    -0.301 C  
HETATM    2  C   UNL     1     -11.196  14.951  66.061  1.00  0.00    -0.327 C  
ENDROOT
BRANCH   2   3
HETATM    3  C   UNL     1     -10.680  16.170  65.251  1.00  0.00    -0.386 C  
BRANCH   3   4
HETATM    4  C   UNL     1      -9.834  17.146  66.036  1.00  0.00    -0.239 A  
HETATM    5  C   UNL     1      -9.617  19.271  67.193  1.00  0.00    -0.397 A  
HETATM    6  H   UNL     1      -7.997  20.665  68.566  1.00  0.00     0.000 HD 
HETATM    7  C   UNL     1      -8.507  16.844  66.373  1.00  0.00    -0.325 A  
HETATM    8  C   UNL     1     -10.378  18.372  66.447  1.00  0.00    -0.430 A  
HETATM    9  C   UNL     1      -7.743  17.746  67.119  1.00  0.00    -0.224 A  
HETATM   10  O   UNL     1      -7.610  19.844  68.284  1.00  0.00    -0.302 OA 
HETATM   11  C   UNL     1      -8.310  18.948  67.531  1.00  0.00    -0.273 A  
ENDBRANCH   3   4
ENDBRANCH   2   3
BRANCH   2  12
HETATM   12  N   UNL     1     -10.594  13.698  65.579  1.00  0.00    -0.287 NA 
HETATM   13  H   UNL     1      -9.803  13.434  66.165  1.00  0.00     0.000 HD 
BRANCH  12  14
HETATM   14  C   UNL     1     -11.538  12.581  65.460  1.00  0.00    -0.386 C  
BRANCH  14  15
HETATM   15  C   UNL     1     -10.865  11.217  65.764  1.00  0.00    -0.151 C  
HETATM   16  H   UNL     1      -9.104  10.374  65.466  1.00  0.00     0.000 HD 
HETATM   17  O   UNL     1      -9.516  11.209  65.280  1.00  0.00    -0.215 OA 
BRANCH  15  18
HETATM   18  C   UNL     1     -10.868  10.913  67.251  1.00  0.00    -0.342 A  
HETATM   19  O   UNL     1      -8.937   9.007  69.740  1.00  0.00    -0.140 OA 
HETATM   20  C   UNL     1      -9.892   9.798  69.172  1.00  0.00    -0.188 A  
HETATM   21  C   UNL     1      -9.863  10.110  67.812  1.00  0.00    -0.190 A  
HETATM   22  C   UNL     1     -10.899  10.281  69.998  1.00  0.00    -0.364 A  
HETATM   23  H   UNL     1      -8.956   8.795  70.665  1.00  0.00     0.000 HD 
HETATM   24  C   UNL     1     -11.891  11.081  69.448  1.00  0.00    -0.335 A  
HETATM   25  O   UNL     1     -12.908  11.581  70.206  1.00  0.00    -0.054 OA 
HETATM   26  C   UNL     1     -11.882  11.400  68.094  1.00  0.00    -0.288 A  
HETATM   27  H   UNL     1     -13.588  12.128  69.830  1.00  0.00     0.000 HD 
ENDBRANCH  15  18
ENDBRANCH  14  15
ENDBRANCH  12  14
ENDBRANCH   2  12
TORSDOF 6
ENDMDL
MODEL      291
REMARK 921   NORMALIZED FREE ENERGY PREDICTED BY IDOCK:   -4.28 KCAL/MOL
REMARK 922        TOTAL FREE ENERGY PREDICTED BY IDOCK:   -6.39 KCAL/MOL
REMARK 923 INTER-LIGAND FREE ENERGY PREDICTED BY IDOCK:   -5.81 KCAL/MOL
REMARK 924 INTRA-LIGAND FREE ENERGY PREDICTED BY IDOCK:   -0.58 KCAL/MOL
REMARK 927      BINDING AFFINITY PREDICTED BY RF-SCORE:    0.00 PKD
ROOT
HETATM    1  C   UNL     1     -11.256  12.338  66.708  1.00  0.00    -0.371 C  
HETATM    2  C   UNL     1     -11.431  12.689  68.192  1.00  0.00    -0.313 C  
ENDROOT
BRANCH   2   3
HETATM    3  C   UNL     1     -11.967  14.143  68.288  1.00  0.00    -0.367 C  
BRANCH   3   4
HETATM    4  C   UNL     1     -10.902  15.209  68.408  1.00  0.00    -0.255 A  
HETATM    5  C   UNL     1      -8.912  16.068  69.505  1.00  0.00    -0.071 A  
HETATM    6  H   UNL     1      -7.209  17.950  69.413  1.00  0.00     0.000 HD 
HETATM    7  C   UNL     1     -10.875  16.306  67.535  1.00  0.00    -0.268 A  
HETATM    8  C   UNL     1      -9.914  15.104  69.398  1.00  0.00    -0.232 A  
HETATM    9  C   UNL     1      -9.872  17.273  67.643  1.00  0.00    -0.279 A  
HETATM   10  O   UNL     1      -7.878  18.042  68.744  1.00  0.00    -0.301 OA 
HETATM   11  C   UNL     1      -8.892  17.139  68.622  1.00  0.00    -0.266 A  
ENDBRANCH   3   4
ENDBRANCH   2   3
BRANCH   2  12
HETATM   12  N   UNL     1     -12.328  11.746  68.878  1.00  0.00    -0.233 NA 
HETATM   13  H   UNL     1     -12.619  11.004  68.241  1.00  0.00     0.000 HD 
BRANCH  12  14
HETATM   14  C   UNL     1     -11.774  11.174  70.110  1.00  0.00    -0.353 C  
BRANCH  14  15
HETATM   15  C   UNL     1     -10.850   9.962  69.825  1.00  0.00    -0.269 C  
HETATM   16  H   UNL     1      -8.916   9.567  69.906  1.00  0.00     0.000 HD 
HETATM   17  O   UNL     1      -9.482  10.309  70.080  1.00  0.00    -0.059 OA 
BRANCH  15  18
HETATM   18  C   UNL     1     -11.229   8.761  70.671  1.00  0.00    -0.294 A  
HETATM   19  O   UNL     1      -9.656   5.874  72.331  1.00  0.00    -0.156 OA 
HETATM   20  C   UNL     1     -10.596   6.753  71.879  1.00  0.00    -0.209 A  
HETATM   21  C   UNL     1     -10.239   7.881  71.137  1.00  0.00    -0.221 A  
HETATM   22  C   UNL     1     -11.924   6.484  72.182  1.00  0.00    -0.334 A  
HETATM   23  H   UNL     1      -9.898   5.108  72.836  1.00  0.00     0.000 HD 
HETATM   24  C   UNL     1     -12.906   7.355  71.729  1.00  0.00    -0.329 A  
HETATM   25  O   UNL     1     -14.227   7.142  71.990  1.00  0.00    -0.574 OA 
HETATM   26  C   UNL     1     -12.571   8.482  70.985  1.00  0.00    -0.060 A  
HETATM   27  H   UNL     1     -14.898   7.738  71.679  1.00  0.00     0.000 HD 
ENDBRANCH  15  18
ENDBRANCH  14  15
ENDBRANCH  12  14
ENDBRANCH   2  12
TORSDOF 6
ENDMDL
MODEL      292
REMARK 921   NORMALIZED FREE ENERGY PREDICTED BY IDOCK:   -4.26 KCAL/MOL
REMARK 922        TOTAL FREE ENERGY PREDICTED BY IDOCK:   -6.37 KCAL/MOL
REMARK 923 INTER-LIGAND FREE ENERGY PREDICTED BY IDOCK:   -5.43 KCAL/MOL
REMARK 924 INTRA-LIGAND FREE ENERGY PREDICTED BY IDOCK:   -0.94 KCAL/MOL
REMARK 927      BINDING AFFINITY PREDICTED BY RF-SCORE:    0.00 PKD
ROOT
HETATM    1  C   UNL     1     -11.288  12.225  66.545  1.00  0.00    -0.403 C  
HETATM    2  C   UNL     1     -11.335  12.150  68.077  1.00  0.00    -0.295 C  
ENDROOT
BRANCH   2   3
HETATM    3  C   UNL     1     -12.012  13.442  68.607  1.00  0.00    -0.362 C  
BRANCH   3   4
HETATM    4  C   UNL     1     -11.124  14.665  68.632  1.00  0.00    -0.276 A  
HETATM    5  C   UNL     1      -8.988  15.691  69.169  1.00  0.00    -0.257 A  
HETATM    6  H   UNL     1      -7.699  17.873  68.999  1.00  0.00     0.000 HD 
HETATM    7  C   UNL     1     -11.569  15.893  68.123  1.00  0.00    -0.224 A  
HETATM    8  C   UNL     1      -9.828  14.578  69.162  1.00  0.00    -0.087 A  
HETATM    9  C   UNL     1     -10.729  17.010  68.132  1.00  0.00    -0.374 A  
HETATM   10  O   UNL     1      -8.578  17.951  68.648  1.00  0.00    -0.302 OA 
HETATM   11  C   UNL     1      -9.441  16.895  68.646  1.00  0.00    -0.268 A  
ENDBRANCH   3   4
ENDBRANCH   2   3
BRANCH   2  12
HETATM   12  N   UNL     1     -12.041  10.948  68.547  1.00  0.00    -0.812 NA 
HETATM   13  H   UNL     1     -12.412  10.421  67.757  1.00  0.00     0.000 HD 
BRANCH  12  14
HETATM   14  C   UNL     1     -11.239  10.076  69.412  1.00  0.00    -0.188 C  
BRANCH  14  15
HETATM   15  C   UNL     1     -10.327   9.125  68.594  1.00  0.00    -0.209 C  
HETATM   16  H   UNL     1     -10.340   8.294  66.802  1.00  0.00     0.000 HD 
HETATM   17  O   UNL     1     -10.899   8.877  67.303  1.00  0.00    -0.216 OA 
BRANCH  15  18
HETATM   18  C   UNL     1      -8.932   9.699  68.424  1.00  0.00    -0.123 A  
HETATM   19  O   UNL     1      -6.248   9.882  65.910  1.00  0.00    -0.070 OA 
HETATM   20  C   UNL     1      -6.945  10.034  67.072  1.00  0.00    -0.088 A  
HETATM   21  C   UNL     1      -8.244   9.542  67.211  1.00  0.00    -0.114 A  
HETATM   22  C   UNL     1      -6.313  10.696  68.117  1.00  0.00    -0.058 A  
HETATM   23  H   UNL     1      -5.365  10.218  65.816  1.00  0.00     0.000 HD 
HETATM   24  C   UNL     1      -6.993  10.859  69.317  1.00  0.00    -0.112 A  
HETATM   25  O   UNL     1      -6.424  11.495  70.380  1.00  0.00    -0.469 OA 
HETATM   26  C   UNL     1      -8.287  10.372  69.476  1.00  0.00    -0.126 A  
HETATM   27  H   UNL     1      -6.889  11.606  71.202  1.00  0.00     0.000 HD 
ENDBRANCH  15  18
ENDBRANCH  14  15
ENDBRANCH  12  14
ENDBRANCH   2  12
TORSDOF 6
ENDMDL
MODEL      293
REMARK 921   NORMALIZED FREE ENERGY PREDICTED BY IDOCK:   -4.25 KCAL/MOL
REMARK 922        TOTAL FREE ENERGY PREDICTED BY IDOCK:   -6.36 KCAL/MOL
REMARK 923 INTER-LIGAND FREE ENERGY PREDICTED BY IDOCK:   -6.26 KCAL/MOL
REMARK 924 INTRA-LIGAND FREE ENERGY PREDICTED BY IDOCK:   -0.10 KCAL/MOL
REMARK 927      BINDING AFFINITY PREDICTED BY RF-SCORE:    0.00 PKD
ROOT
HETATM    1  C   UNL     1     -11.910  11.567  69.154  1.00  0.00    -0.406 C  
HETATM    2  C   UNL     1     -11.363  10.890  67.889  1.00  0.00    -0.308 C  
ENDROOT
BRANCH   2   3
HETATM    3  C   UNL     1     -11.410  11.920  66.728  1.00  0.00    -0.393 C  
BRANCH   3   4
HETATM    4  C   UNL     1     -10.887  13.296  67.074  1.00  0.00    -0.278 A  
HETATM    5  C   UNL     1      -9.037  14.866  67.186  1.00  0.00    -0.236 A  
HETATM    6  H   UNL     1      -8.465  17.272  67.764  1.00  0.00     0.000 HD 
HETATM    7  C   UNL     1     -11.743  14.291  67.566  1.00  0.00    -0.415 A  
HETATM    8  C   UNL     1      -9.529  13.594  66.894  1.00  0.00    -0.263 A  
HETATM    9  C   UNL     1     -11.250  15.566  67.860  1.00  0.00    -0.325 A  
HETATM   10  O   UNL     1      -9.386  17.082  67.903  1.00  0.00    -0.234 OA 
HETATM   11  C   UNL     1      -9.902  15.845  67.657  1.00  0.00    -0.233 A  
ENDBRANCH   3   4
ENDBRANCH   2   3
BRANCH   2  12
HETATM   12  N   UNL     1     -10.000  10.373  68.087  1.00  0.00    -0.147 NA 
HETATM   13  H   UNL     1      -9.395  10.662  67.320  1.00  0.00     0.000 HD 
BRANCH  12  14
HETATM   14  C   UNL     1      -9.400  10.734  69.376  1.00  0.00     0.003 C  
BRANCH  14  15
HETATM   15  C   UNL     1      -8.810   9.500  70.108  1.00  0.00    -0.235 C  
HETATM   16  H   UNL     1      -7.233   9.100  71.228  1.00  0.00     0.000 HD 
HETATM   17  O   UNL     1      -7.594   9.855  70.780  1.00  0.00    -0.305 OA 
BRANCH  15  18
HETATM   18  C   UNL     1      -9.790   8.927  71.115  1.00  0.00    -0.345 A  
HETATM   19  O   UNL     1     -10.064   6.146  73.513  1.00  0.00    -0.180 OA 
HETATM   20  C   UNL     1     -10.367   7.250  72.771  1.00  0.00    -0.240 A  
HETATM   21  C   UNL     1      -9.447   7.800  71.877  1.00  0.00    -0.197 A  
HETATM   22  C   UNL     1     -11.629   7.807  72.936  1.00  0.00    -0.301 A  
HETATM   23  H   UNL     1     -10.690   5.773  74.122  1.00  0.00     0.000 HD 
HETATM   24  C   UNL     1     -11.971   8.925  72.188  1.00  0.00    -0.349 A  
HETATM   25  O   UNL     1     -13.195   9.514  72.301  1.00  0.00    -0.422 OA 
HETATM   26  C   UNL     1     -11.069   9.486  71.289  1.00  0.00    -0.449 A  
HETATM   27  H   UNL     1     -13.430  10.279  71.789  1.00  0.00     0.000 HD 
ENDBRANCH  15  18
ENDBRANCH  14  15
ENDBRANCH  12  14
ENDBRANCH   2  12
TORSDOF 6
ENDMDL
MODEL      294
REMARK 921   NORMALIZED FREE ENERGY PREDICTED BY IDOCK:   -4.25 KCAL/MOL
REMARK 922        TOTAL FREE ENERGY PREDICTED BY IDOCK:   -6.35 KCAL/MOL
REMARK 923 INTER-LIGAND FREE ENERGY PREDICTED BY IDOCK:   -5.74 KCAL/MOL
REMARK 924 INTRA-LIGAND FREE ENERGY PREDICTED BY IDOCK:   -0.61 KCAL/MOL
REMARK 927      BINDING AFFINITY PREDICTED BY RF-SCORE:    0.00 PKD
ROOT
HETATM    1  C   UNL     1      -9.021  15.026  66.861  1.00  0.00    -0.276 C  
HETATM    2  C   UNL     1      -9.562  14.216  68.047  1.00  0.00    -0.218 C  
ENDROOT
BRANCH   2   3
HETATM    3  C   UNL     1     -11.113  14.255  67.996  1.00  0.00    -0.286 C  
BRANCH   3   4
HETATM    4  C   UNL     1     -11.798  14.173  69.341  1.00  0.00    -0.378 A  
HETATM    5  C   UNL     1     -12.771  12.832  71.117  1.00  0.00    -0.355 A  
HETATM    6  H   UNL     1     -13.822  12.995  73.424  1.00  0.00     0.000 HD 
HETATM    7  C   UNL     1     -12.073  15.330  70.084  1.00  0.00    -0.394 A  
HETATM    8  C   UNL     1     -12.161  12.925  69.867  1.00  0.00    -0.335 A  
HETATM    9  C   UNL     1     -12.687  15.238  71.336  1.00  0.00    -0.462 A  
HETATM   10  O   UNL     1     -13.595  13.849  73.076  1.00  0.00    -0.628 OA 
HETATM   11  C   UNL     1     -13.021  13.987  71.846  1.00  0.00    -0.360 A  
ENDBRANCH   3   4
ENDBRANCH   2   3
BRANCH   2  12
HETATM   12  N   UNL     1      -9.065  12.831  68.039  1.00  0.00    -0.201 NA 
HETATM   13  H   UNL     1      -9.098  12.435  68.978  1.00  0.00     0.000 HD 
BRANCH  12  14
HETATM   14  C   UNL     1      -9.749  11.950  67.087  1.00  0.00    -0.185 C  
BRANCH  14  15
HETATM   15  C   UNL     1      -9.757  10.474  67.563  1.00  0.00    -0.166 C  
HETATM   16  H   UNL     1     -11.093   9.039  67.803  1.00  0.00     0.000 HD 
HETATM   17  O   UNL     1     -11.088   9.943  67.511  1.00  0.00    -0.257 OA 
BRANCH  15  18
HETATM   18  C   UNL     1      -8.838   9.610  66.720  1.00  0.00    -0.148 A  
HETATM   19  O   UNL     1      -5.615   7.848  66.968  1.00  0.00    -0.031 OA 
HETATM   20  C   UNL     1      -6.785   8.342  66.470  1.00  0.00    -0.063 A  
HETATM   21  C   UNL     1      -7.648   9.101  67.262  1.00  0.00    -0.088 A  
HETATM   22  C   UNL     1      -7.085   8.065  65.143  1.00  0.00    -0.063 A  
HETATM   23  H   UNL     1      -5.028   7.331  66.429  1.00  0.00     0.000 HD 
HETATM   24  C   UNL     1      -8.264   8.561  64.604  1.00  0.00    -0.160 A  
HETATM   25  O   UNL     1      -8.612   8.327  63.307  1.00  0.00    -0.411 OA 
HETATM   26  C   UNL     1      -9.136   9.322  65.376  1.00  0.00    -0.277 A  
HETATM   27  H   UNL     1      -9.419   8.667  62.938  1.00  0.00     0.000 HD 
ENDBRANCH  15  18
ENDBRANCH  14  15
ENDBRANCH  12  14
ENDBRANCH   2  12
TORSDOF 6
ENDMDL
MODEL      295
REMARK 921   NORMALIZED FREE ENERGY PREDICTED BY IDOCK:   -4.24 KCAL/MOL
REMARK 922        TOTAL FREE ENERGY PREDICTED BY IDOCK:   -6.34 KCAL/MOL
REMARK 923 INTER-LIGAND FREE ENERGY PREDICTED BY IDOCK:   -6.23 KCAL/MOL
REMARK 924 INTRA-LIGAND FREE ENERGY PREDICTED BY IDOCK:   -0.10 KCAL/MOL
REMARK 927      BINDING AFFINITY PREDICTED BY RF-SCORE:    0.00 PKD
ROOT
HETATM    1  C   UNL     1     -10.891  15.293  67.490  1.00  0.00    -0.304 C  
HETATM    2  C   UNL     1     -11.250  15.068  66.014  1.00  0.00    -0.310 C  
ENDROOT
BRANCH   2   3
HETATM    3  C   UNL     1     -10.773  16.303  65.204  1.00  0.00    -0.350 C  
BRANCH   3   4
HETATM    4  C   UNL     1      -9.922  17.284  65.977  1.00  0.00    -0.249 A  
HETATM    5  C   UNL     1      -9.702  19.409  67.134  1.00  0.00    -0.425 A  
HETATM    6  H   UNL     1      -8.072  20.812  68.484  1.00  0.00     0.000 HD 
HETATM    7  C   UNL     1      -8.587  16.991  66.294  1.00  0.00    -0.298 A  
HETATM    8  C   UNL     1     -10.468  18.505  66.398  1.00  0.00    -0.443 A  
HETATM    9  C   UNL     1      -7.818  17.897  67.029  1.00  0.00    -0.234 A  
HETATM   10  O   UNL     1      -7.683  19.995  68.196  1.00  0.00    -0.294 OA 
HETATM   11  C   UNL     1      -8.388  19.095  67.452  1.00  0.00    -0.281 A  
ENDBRANCH   3   4
ENDBRANCH   2   3
BRANCH   2  12
HETATM   12  N   UNL     1     -10.660  13.827  65.489  1.00  0.00    -0.295 NA 
HETATM   13  H   UNL     1      -9.867  13.539  66.061  1.00  0.00     0.000 HD 
BRANCH  12  14
HETATM   14  C   UNL     1     -11.613  12.721  65.341  1.00  0.00    -0.358 C  
BRANCH  14  15
HETATM   15  C   UNL     1     -11.121  11.661  64.322  1.00  0.00    -0.338 C  
HETATM   16  H   UNL     1     -10.160  11.649  62.596  1.00  0.00     0.000 HD 
HETATM   17  O   UNL     1     -10.462  12.299  63.220  1.00  0.00    -0.417 OA 
BRANCH  15  18
HETATM   18  C   UNL     1     -10.173  10.666  64.966  1.00  0.00    -0.380 A  
HETATM   19  O   UNL     1      -7.321   8.512  64.081  1.00  0.00    -0.095 OA 
HETATM   20  C   UNL     1      -8.310   9.120  64.796  1.00  0.00    -0.169 A  
HETATM   21  C   UNL     1      -9.153  10.066  64.211  1.00  0.00    -0.296 A  
HETATM   22  C   UNL     1      -8.450   8.762  66.131  1.00  0.00    -0.138 A  
HETATM   23  H   UNL     1      -6.747   7.868  64.479  1.00  0.00     0.000 HD 
HETATM   24  C   UNL     1      -9.453   9.358  66.884  1.00  0.00    -0.156 A  
HETATM   25  O   UNL     1      -9.644   9.044  68.196  1.00  0.00    -0.145 OA 
HETATM   26  C   UNL     1     -10.306  10.300  66.317  1.00  0.00    -0.256 A  
HETATM   27  H   UNL     1     -10.330   9.451  68.711  1.00  0.00     0.000 HD 
ENDBRANCH  15  18
ENDBRANCH  14  15
ENDBRANCH  12  14
ENDBRANCH   2  12
TORSDOF 6
ENDMDL
MODEL      296
REMARK 921   NORMALIZED FREE ENERGY PREDICTED BY IDOCK:   -4.19 KCAL/MOL
REMARK 922        TOTAL FREE ENERGY PREDICTED BY IDOCK:   -6.27 KCAL/MOL
REMARK 923 INTER-LIGAND FREE ENERGY PREDICTED BY IDOCK:   -5.61 KCAL/MOL
REMARK 924 INTRA-LIGAND FREE ENERGY PREDICTED BY IDOCK:   -0.66 KCAL/MOL
REMARK 927      BINDING AFFINITY PREDICTED BY RF-SCORE:    0.00 PKD
ROOT
HETATM    1  C   UNL     1     -10.317  12.386  65.771  1.00  0.00    -0.289 C  
HETATM    2  C   UNL     1     -10.064  13.215  67.039  1.00  0.00    -0.241 C  
ENDROOT
BRANCH   2   3
HETATM    3  C   UNL     1     -10.873  14.535  66.926  1.00  0.00    -0.305 C  
BRANCH   3   4
HETATM    4  C   UNL     1     -10.101  15.788  67.267  1.00  0.00    -0.247 A  
HETATM    5  C   UNL     1      -9.974  17.922  68.422  1.00  0.00    -0.367 A  
HETATM    6  H   UNL     1      -8.414  19.869  68.898  1.00  0.00     0.000 HD 
HETATM    7  C   UNL     1      -8.797  15.986  66.791  1.00  0.00    -0.288 A  
HETATM    8  C   UNL     1     -10.684  16.771  68.080  1.00  0.00    -0.355 A  
HETATM    9  C   UNL     1      -8.085  17.139  67.132  1.00  0.00    -0.215 A  
HETATM   10  O   UNL     1      -8.009  19.218  68.336  1.00  0.00    -0.314 OA 
HETATM   11  C   UNL     1      -8.678  18.093  67.954  1.00  0.00    -0.261 A  
ENDBRANCH   3   4
ENDBRANCH   2   3
BRANCH   2  12
HETATM   12  N   UNL     1     -10.420  12.475  68.259  1.00  0.00    -0.228 NA 
HETATM   13  H   UNL     1     -11.415  12.252  68.263  1.00  0.00     0.000 HD 
BRANCH  12  14
HETATM   14  C   UNL     1      -9.624  11.264  68.485  1.00  0.00    -0.198 C  
BRANCH  14  15
HETATM   15  C   UNL     1     -10.513  10.001  68.633  1.00  0.00    -0.204 C  
HETATM   16  H   UNL     1     -12.391   9.505  68.277  1.00  0.00     0.000 HD 
HETATM   17  O   UNL     1     -11.847  10.278  68.187  1.00  0.00    -0.238 OA 
BRANCH  15  18
HETATM   18  C   UNL     1      -9.953   8.830  67.847  1.00  0.00    -0.231 A  
HETATM   19  O   UNL     1      -6.800   7.723  66.302  1.00  0.00    -0.059 OA 
HETATM   20  C   UNL     1      -8.103   7.755  66.703  1.00  0.00    -0.111 A  
HETATM   21  C   UNL     1      -8.604   8.815  67.461  1.00  0.00    -0.127 A  
HETATM   22  C   UNL     1      -8.917   6.695  66.326  1.00  0.00    -0.168 A  
HETATM   23  H   UNL     1      -6.459   7.002  65.786  1.00  0.00     0.000 HD 
HETATM   24  C   UNL     1     -10.251   6.702  66.711  1.00  0.00    -0.195 A  
HETATM   25  O   UNL     1     -11.100   5.693  66.367  1.00  0.00    -0.704 OA 
HETATM   26  C   UNL     1     -10.770   7.751  67.464  1.00  0.00    -0.265 A  
HETATM   27  H   UNL     1     -12.013   5.698  66.630  1.00  0.00     0.000 HD 
ENDBRANCH  15  18
ENDBRANCH  14  15
ENDBRANCH  12  14
ENDBRANCH   2  12
TORSDOF 6
ENDMDL
MODEL      297
REMARK 921   NORMALIZED FREE ENERGY PREDICTED BY IDOCK:   -4.17 KCAL/MOL
REMARK 922        TOTAL FREE ENERGY PREDICTED BY IDOCK:   -6.24 KCAL/MOL
REMARK 923 INTER-LIGAND FREE ENERGY PREDICTED BY IDOCK:   -5.75 KCAL/MOL
REMARK 924 INTRA-LIGAND FREE ENERGY PREDICTED BY IDOCK:   -0.49 KCAL/MOL
REMARK 927      BINDING AFFINITY PREDICTED BY RF-SCORE:    0.00 PKD
ROOT
HETATM    1  C   UNL     1     -11.801   9.508  70.894  1.00  0.00    -0.385 C  
HETATM    2  C   UNL     1     -10.358   9.244  70.443  1.00  0.00    -0.240 C  
ENDROOT
BRANCH   2   3
HETATM    3  C   UNL     1     -10.363   8.023  69.485  1.00  0.00    -0.221 C  
BRANCH   3   4
HETATM    4  C   UNL     1      -9.859   6.733  70.092  1.00  0.00    -0.187 A  
HETATM    5  C   UNL     1     -10.316   4.529  71.004  1.00  0.00    -0.082 A  
HETATM    6  H   UNL     1      -9.182   2.445  71.910  1.00  0.00     0.000 HD 
HETATM    7  C   UNL     1      -8.488   6.511  70.281  1.00  0.00    -0.135 A  
HETATM    8  C   UNL     1     -10.768   5.733  70.466  1.00  0.00    -0.361 A  
HETATM    9  C   UNL     1      -8.034   5.305  70.822  1.00  0.00    -0.098 A  
HETATM   10  O   UNL     1      -8.554   3.118  71.673  1.00  0.00    -0.067 OA 
HETATM   11  C   UNL     1      -8.954   4.320  71.170  1.00  0.00    -0.117 A  
ENDBRANCH   3   4
ENDBRANCH   2   3
BRANCH   2  12
HETATM   12  N   UNL     1      -9.759  10.424  69.798  1.00  0.00    -0.416 NA 
HETATM   13  H   UNL     1      -8.777  10.253  69.584  1.00  0.00     0.000 HD 
BRANCH  12  14
HETATM   14  C   UNL     1     -10.471  10.883  68.601  1.00  0.00    -0.194 C  
BRANCH  14  15
HETATM   15  C   UNL     1      -9.535  11.637  67.620  1.00  0.00    -0.177 C  
HETATM   16  H   UNL     1      -8.348  11.175  66.111  1.00  0.00     0.000 HD 
HETATM   17  O   UNL     1      -8.921  10.714  66.712  1.00  0.00    -0.137 OA 
BRANCH  15  18
HETATM   18  C   UNL     1     -10.287  12.693  66.832  1.00  0.00    -0.244 A  
HETATM   19  O   UNL     1     -12.932  12.956  64.284  1.00  0.00    -0.686 OA 
HETATM   20  C   UNL     1     -11.957  13.292  65.177  1.00  0.00    -0.381 A  
HETATM   21  C   UNL     1     -11.296  12.321  65.931  1.00  0.00    -0.406 A  
HETATM   22  C   UNL     1     -11.643  14.638  65.307  1.00  0.00    -0.354 A  
HETATM   23  H   UNL     1     -13.381  13.617  63.771  1.00  0.00     0.000 HD 
HETATM   24  C   UNL     1     -10.649  15.012  66.201  1.00  0.00    -0.310 A  
HETATM   25  O   UNL     1     -10.292  16.317  66.370  1.00  0.00    -0.296 OA 
HETATM   26  C   UNL     1      -9.976  14.059  66.960  1.00  0.00    -0.257 A  
HETATM   27  H   UNL     1      -9.611  16.573  66.981  1.00  0.00     0.000 HD 
ENDBRANCH  15  18
ENDBRANCH  14  15
ENDBRANCH  12  14
ENDBRANCH   2  12
TORSDOF 6
ENDMDL
MODEL      298
REMARK 921   NORMALIZED FREE ENERGY PREDICTED BY IDOCK:   -4.14 KCAL/MOL
REMARK 922        TOTAL FREE ENERGY PREDICTED BY IDOCK:   -6.20 KCAL/MOL
REMARK 923 INTER-LIGAND FREE ENERGY PREDICTED BY IDOCK:   -4.98 KCAL/MOL
REMARK 924 INTRA-LIGAND FREE ENERGY PREDICTED BY IDOCK:   -1.22 KCAL/MOL
REMARK 927      BINDING AFFINITY PREDICTED BY RF-SCORE:    0.00 PKD
ROOT
HETATM    1  C   UNL     1      -9.832  13.248  68.259  1.00  0.00    -0.231 C  
HETATM    2  C   UNL     1     -10.654  11.953  68.333  1.00  0.00    -0.218 C  
ENDROOT
BRANCH   2   3
HETATM    3  C   UNL     1     -10.008  10.911  67.381  1.00  0.00    -0.215 C  
BRANCH   3   4
HETATM    4  C   UNL     1      -9.131   9.884  68.060  1.00  0.00    -0.123 A  
HETATM    5  C   UNL     1      -8.313   7.602  68.213  1.00  0.00    -0.125 A  
HETATM    6  H   UNL     1      -6.681   6.124  69.479  1.00  0.00     0.000 HD 
HETATM    7  C   UNL     1      -8.299  10.238  69.131  1.00  0.00    -0.154 A  
HETATM    8  C   UNL     1      -9.135   8.555  67.612  1.00  0.00    -0.144 A  
HETATM    9  C   UNL     1      -7.476   9.283  69.735  1.00  0.00    -0.075 A  
HETATM   10  O   UNL     1      -6.676   7.018  69.802  1.00  0.00    -0.046 OA 
HETATM   11  C   UNL     1      -7.484   7.974  69.262  1.00  0.00    -0.094 A  
ENDBRANCH   3   4
ENDBRANCH   2   3
BRANCH   2  12
HETATM   12  N   UNL     1     -10.742  11.436  69.707  1.00  0.00    -0.447 NA 
HETATM   13  H   UNL     1     -10.448  12.148  70.376  1.00  0.00     0.000 HD 
BRANCH  12  14
HETATM   14  C   UNL     1     -12.061  10.906  70.070  1.00  0.00    -0.355 C  
BRANCH  14  15
HETATM   15  C   UNL     1     -12.045  10.202  71.452  1.00  0.00    -0.382 C  
HETATM   16  H   UNL     1     -13.375   9.524  72.745  1.00  0.00     0.000 HD 
HETATM   17  O   UNL     1     -13.385   9.955  71.899  1.00  0.00    -0.407 OA 
BRANCH  15  18
HETATM   18  C   UNL     1     -11.282   8.892  71.402  1.00  0.00    -0.382 A  
HETATM   19  O   UNL     1     -11.241   5.725  69.524  1.00  0.00    -0.343 OA 
HETATM   20  C   UNL     1     -10.932   6.696  70.431  1.00  0.00    -0.290 A  
HETATM   21  C   UNL     1     -11.609   7.917  70.448  1.00  0.00    -0.092 A  
HETATM   22  C   UNL     1      -9.921   6.423  71.344  1.00  0.00    -0.206 A  
HETATM   23  H   UNL     1     -10.780   4.895  69.513  1.00  0.00     0.000 HD 
HETATM   24  C   UNL     1      -9.590   7.388  72.286  1.00  0.00    -0.151 A  
HETATM   25  O   UNL     1      -8.610   7.177  73.210  1.00  0.00    -0.124 OA 
HETATM   26  C   UNL     1     -10.254   8.609  72.320  1.00  0.00    -0.372 A  
HETATM   27  H   UNL     1      -8.384   7.837  73.855  1.00  0.00     0.000 HD 
ENDBRANCH  15  18
ENDBRANCH  14  15
ENDBRANCH  12  14
ENDBRANCH   2  12
TORSDOF 6
ENDMDL
MODEL      299
REMARK 921   NORMALIZED FREE ENERGY PREDICTED BY IDOCK:   -4.14 KCAL/MOL
REMARK 922        TOTAL FREE ENERGY PREDICTED BY IDOCK:   -6.20 KCAL/MOL
REMARK 923 INTER-LIGAND FREE ENERGY PREDICTED BY IDOCK:   -5.70 KCAL/MOL
REMARK 924 INTRA-LIGAND FREE ENERGY PREDICTED BY IDOCK:   -0.50 KCAL/MOL
REMARK 927      BINDING AFFINITY PREDICTED BY RF-SCORE:    0.00 PKD
ROOT
HETATM    1  C   UNL     1     -12.103  13.271  69.913  1.00  0.00    -0.377 C  
HETATM    2  C   UNL     1     -11.445  13.992  68.728  1.00  0.00    -0.292 C  
ENDROOT
BRANCH   2   3
HETATM    3  C   UNL     1     -10.365  14.958  69.285  1.00  0.00    -0.240 C  
BRANCH   3   4
HETATM    4  C   UNL     1      -9.697  15.834  68.250  1.00  0.00    -0.201 A  
HETATM    5  C   UNL     1      -9.815  17.685  66.681  1.00  0.00    -0.309 A  
HETATM    6  H   UNL     1      -8.414  19.047  65.058  1.00  0.00     0.000 HD 
HETATM    7  C   UNL     1      -8.348  15.652  67.910  1.00  0.00    -0.150 A  
HETATM    8  C   UNL     1     -10.425  16.854  67.620  1.00  0.00    -0.332 A  
HETATM    9  C   UNL     1      -7.737  16.483  66.968  1.00  0.00    -0.244 A  
HETATM   10  O   UNL     1      -7.910  18.353  65.467  1.00  0.00    -0.446 OA 
HETATM   11  C   UNL     1      -8.475  17.500  66.369  1.00  0.00    -0.252 A  
ENDBRANCH   3   4
ENDBRANCH   2   3
BRANCH   2  12
HETATM   12  N   UNL     1     -10.866  13.046  67.762  1.00  0.00    -0.235 NA 
HETATM   13  H   UNL     1     -10.057  13.460  67.299  1.00  0.00     0.000 HD 
BRANCH  12  14
HETATM   14  C   UNL     1     -10.519  11.740  68.331  1.00  0.00    -0.215 C  
BRANCH  14  15
HETATM   15  C   UNL     1      -9.696  10.874  67.340  1.00  0.00    -0.168 C  
HETATM   16  H   UNL     1      -7.825  10.773  66.718  1.00  0.00     0.000 HD 
HETATM   17  O   UNL     1      -8.328  11.303  67.324  1.00  0.00    -0.136 OA 
BRANCH  15  18
HETATM   18  C   UNL     1      -9.757   9.402  67.703  1.00  0.00    -0.191 A  
HETATM   19  O   UNL     1     -11.165   6.245  66.435  1.00  0.00    -0.688 OA 
HETATM   20  C   UNL     1     -10.512   7.146  67.223  1.00  0.00    -0.301 A  
HETATM   21  C   UNL     1     -10.422   8.493  66.866  1.00  0.00    -0.345 A  
HETATM   22  C   UNL     1      -9.942   6.676  68.399  1.00  0.00    -0.146 A  
HETATM   23  H   UNL     1     -11.226   5.329  66.678  1.00  0.00     0.000 HD 
HETATM   24  C   UNL     1      -9.278   7.571  69.227  1.00  0.00    -0.144 A  
HETATM   25  O   UNL     1      -8.703   7.171  70.397  1.00  0.00    -0.147 OA 
HETATM   26  C   UNL     1      -9.180   8.918  68.890  1.00  0.00    -0.140 A  
HETATM   27  H   UNL     1      -8.249   7.784  70.964  1.00  0.00     0.000 HD 
ENDBRANCH  15  18
ENDBRANCH  14  15
ENDBRANCH  12  14
ENDBRANCH   2  12
TORSDOF 6
ENDMDL
MODEL      300
REMARK 921   NORMALIZED FREE ENERGY PREDICTED BY IDOCK:   -4.11 KCAL/MOL
REMARK 922        TOTAL FREE ENERGY PREDICTED BY IDOCK:   -6.16 KCAL/MOL
REMARK 923 INTER-LIGAND FREE ENERGY PREDICTED BY IDOCK:   -5.89 KCAL/MOL
REMARK 924 INTRA-LIGAND FREE ENERGY PREDICTED BY IDOCK:   -0.28 KCAL/MOL
REMARK 927      BINDING AFFINITY PREDICTED BY RF-SCORE:    0.00 PKD
ROOT
HETATM    1  C   UNL     1      -9.544   9.439  65.480  1.00  0.00    -0.328 C  
HETATM    2  C   UNL     1      -9.533   9.557  67.011  1.00  0.00    -0.155 C  
ENDROOT
BRANCH   2   3
HETATM    3  C   UNL     1      -9.394  11.058  67.382  1.00  0.00    -0.165 C  
BRANCH   3   4
HETATM    4  C   UNL     1     -10.184  12.007  66.510  1.00  0.00    -0.232 A  
HETATM    5  C   UNL     1     -10.282  13.518  64.611  1.00  0.00    -0.341 A  
HETATM    6  H   UNL     1     -11.872  14.977  63.273  1.00  0.00     0.000 HD 
HETATM    7  C   UNL     1     -11.546  12.243  66.749  1.00  0.00    -0.434 A  
HETATM    8  C   UNL     1      -9.559  12.658  65.438  1.00  0.00     0.017 A  
HETATM    9  C   UNL     1     -12.271  13.106  65.922  1.00  0.00    -0.497 A  
HETATM   10  O   UNL     1     -12.308  14.553  64.003  1.00  0.00    -0.697 OA 
HETATM   11  C   UNL     1     -11.633  13.728  64.853  1.00  0.00    -0.351 A  
ENDBRANCH   3   4
ENDBRANCH   2   3
BRANCH   2  12
HETATM   12  N   UNL     1     -10.737   8.969  67.616  1.00  0.00    -0.445 NA 
HETATM   13  H   UNL     1     -11.347   8.583  66.894  1.00  0.00     0.000 HD 
BRANCH  12  14
HETATM   14  C   UNL     1     -10.465   7.962  68.647  1.00  0.00    -0.167 C  
BRANCH  14  15
HETATM   15  C   UNL     1     -11.012   6.564  68.255  1.00  0.00    -0.281 C  
HETATM   16  H   UNL     1     -11.251   5.517  66.597  1.00  0.00     0.000 HD 
HETATM   17  O   UNL     1     -10.916   6.373  66.837  1.00  0.00    -0.370 OA 
BRANCH  15  18
HETATM   18  C   UNL     1     -10.262   5.452  68.964  1.00  0.00    -0.291 A  
HETATM   19  O   UNL     1      -9.511   4.291  72.377  1.00  0.00    -0.122 OA 
HETATM   20  C   UNL     1      -9.539   4.378  71.016  1.00  0.00    -0.179 A  
HETATM   21  C   UNL     1     -10.264   5.377  70.365  1.00  0.00    -0.332 A  
HETATM   22  C   UNL     1      -8.814   3.435  70.299  1.00  0.00    -0.143 A  
HETATM   23  H   UNL     1      -9.018   3.611  72.819  1.00  0.00     0.000 HD 
HETATM   24  C   UNL     1      -8.814   3.501  68.912  1.00  0.00    -0.110 A  
HETATM   25  O   UNL     1      -8.118   2.608  68.153  1.00  0.00    -0.058 OA 
HETATM   26  C   UNL     1      -9.528   4.492  68.245  1.00  0.00    -0.205 A  
HETATM   27  H   UNL     1      -8.118   2.654  67.204  1.00  0.00     0.000 HD 
ENDBRANCH  15  18
ENDBRANCH  14  15
ENDBRANCH  12  14
ENDBRANCH   2  12
TORSDOF 6
ENDMDL
MODEL      301
REMARK 921   NORMALIZED FREE ENERGY PREDICTED BY IDOCK:   -4.11 KCAL/MOL
REMARK 922        TOTAL FREE ENERGY PREDICTED BY IDOCK:   -6.16 KCAL/MOL
REMARK 923 INTER-LIGAND FREE ENERGY PREDICTED BY IDOCK:   -5.44 KCAL/MOL
REMARK 924 INTRA-LIGAND FREE ENERGY PREDICTED BY IDOCK:   -0.72 KCAL/MOL
REMARK 927      BINDING AFFINITY PREDICTED BY RF-SCORE:    0.00 PKD
ROOT
HETATM    1  C   UNL     1      -8.860   8.659  68.844  1.00  0.00    -0.138 C  
HETATM    2  C   UNL     1      -9.471   8.213  70.180  1.00  0.00    -0.167 C  
ENDROOT
BRANCH   2   3
HETATM    3  C   UNL     1     -11.016   8.214  70.033  1.00  0.00    -0.199 C  
BRANCH   3   4
HETATM    4  C   UNL     1     -11.712   9.424  70.611  1.00  0.00    -0.302 A  
HETATM    5  C   UNL     1     -12.126  11.818  70.577  1.00  0.00    -0.439 A  
HETATM    6  H   UNL     1     -13.496  13.645  71.688  1.00  0.00     0.000 HD 
HETATM    7  C   UNL     1     -12.609   9.300  71.682  1.00  0.00    -0.446 A  
HETATM    8  C   UNL     1     -11.472  10.696  70.070  1.00  0.00    -0.404 A  
HETATM    9  C   UNL     1     -13.263  10.425  72.193  1.00  0.00    -0.418 A  
HETATM   10  O   UNL     1     -13.660  12.792  72.074  1.00  0.00    -0.466 OA 
HETATM   11  C   UNL     1     -13.022  11.673  71.627  1.00  0.00    -0.378 A  
ENDBRANCH   3   4
ENDBRANCH   2   3
BRANCH   2  12
HETATM   12  N   UNL     1      -8.977   6.891  70.597  1.00  0.00    -0.151 NA 
HETATM   13  H   UNL     1      -9.749   6.306  70.915  1.00  0.00     0.000 HD 
BRANCH  12  14
HETATM   14  C   UNL     1      -8.191   6.191  69.575  1.00  0.00    -0.116 C  
BRANCH  14  15
HETATM   15  C   UNL     1      -8.940   4.955  69.012  1.00  0.00    -0.102 C  
HETATM   16  H   UNL     1     -10.731   4.141  69.193  1.00  0.00     0.000 HD 
HETATM   17  O   UNL     1     -10.272   4.898  69.538  1.00  0.00    -0.234 OA 
BRANCH  15  18
HETATM   18  C   UNL     1      -8.999   4.981  67.496  1.00  0.00    -0.113 A  
HETATM   19  O   UNL     1     -11.094   3.736  64.736  1.00  0.00    -0.614 OA 
HETATM   20  C   UNL     1     -10.086   4.348  65.421  1.00  0.00    -0.223 A  
HETATM   21  C   UNL     1     -10.057   4.357  66.816  1.00  0.00    -0.177 A  
HETATM   22  C   UNL     1      -9.085   4.960  64.678  1.00  0.00    -0.077 A  
HETATM   23  H   UNL     1     -11.114   3.730  63.786  1.00  0.00     0.000 HD 
HETATM   24  C   UNL     1      -8.040   5.584  65.345  1.00  0.00    -0.123 A  
HETATM   25  O   UNL     1      -7.026   6.197  64.672  1.00  0.00    -0.049 OA 
HETATM   26  C   UNL     1      -7.991   5.601  66.736  1.00  0.00    -0.102 A  
HETATM   27  H   UNL     1      -6.310   6.624  65.129  1.00  0.00     0.000 HD 
ENDBRANCH  15  18
ENDBRANCH  14  15
ENDBRANCH  12  14
ENDBRANCH   2  12
TORSDOF 6
ENDMDL
MODEL      302
REMARK 921   NORMALIZED FREE ENERGY PREDICTED BY IDOCK:   -4.10 KCAL/MOL
REMARK 922        TOTAL FREE ENERGY PREDICTED BY IDOCK:   -6.15 KCAL/MOL
REMARK 923 INTER-LIGAND FREE ENERGY PREDICTED BY IDOCK:   -6.25 KCAL/MOL
REMARK 924 INTRA-LIGAND FREE ENERGY PREDICTED BY IDOCK:    0.09 KCAL/MOL
REMARK 927      BINDING AFFINITY PREDICTED BY RF-SCORE:    0.00 PKD
ROOT
HETATM    1  C   UNL     1      -8.700   9.064  67.369  1.00  0.00    -0.122 C  
HETATM    2  C   UNL     1      -9.128  10.295  68.180  1.00  0.00    -0.136 C  
ENDROOT
BRANCH   2   3
HETATM    3  C   UNL     1     -10.565  10.689  67.744  1.00  0.00    -0.275 C  
BRANCH   3   4
HETATM    4  C   UNL     1     -10.848  12.174  67.742  1.00  0.00    -0.263 A  
HETATM    5  C   UNL     1     -11.333  14.215  68.965  1.00  0.00    -0.310 A  
HETATM    6  H   UNL     1     -11.686  16.712  68.664  1.00  0.00     0.000 HD 
HETATM    7  C   UNL     1     -10.857  12.906  66.546  1.00  0.00    -0.290 A  
HETATM    8  C   UNL     1     -11.096  12.841  68.950  1.00  0.00    -0.310 A  
HETATM    9  C   UNL     1     -11.097  14.283  66.560  1.00  0.00    -0.323 A  
HETATM   10  O   UNL     1     -11.532  16.273  67.836  1.00  0.00    -0.218 OA 
HETATM   11  C   UNL     1     -11.323  14.927  67.773  1.00  0.00    -0.329 A  
ENDBRANCH   3   4
ENDBRANCH   2   3
BRANCH   2  12
HETATM   12  N   UNL     1      -9.060  10.049  69.628  1.00  0.00    -0.251 NA 
HETATM   13  H   UNL     1      -9.659  10.705  70.130  1.00  0.00     0.000 HD 
BRANCH  12  14
HETATM   14  C   UNL     1      -9.369   8.670  70.022  1.00  0.00    -0.162 C  
BRANCH  14  15
HETATM   15  C   UNL     1     -10.731   8.194  69.451  1.00  0.00    -0.156 C  
HETATM   16  H   UNL     1     -11.489   6.521  68.723  1.00  0.00     0.000 HD 
HETATM   17  O   UNL     1     -10.655   6.813  69.073  1.00  0.00    -0.203 OA 
BRANCH  15  18
HETATM   18  C   UNL     1     -11.852   8.379  70.456  1.00  0.00    -0.004 A  
HETATM   19  O   UNL     1     -13.354  11.010  72.549  1.00  0.00    -0.493 OA 
HETATM   20  C   UNL     1     -13.104   9.799  71.975  1.00  0.00    -0.452 A  
HETATM   21  C   UNL     1     -12.098   9.641  71.019  1.00  0.00    -0.421 A  
HETATM   22  C   UNL     1     -13.886   8.724  72.378  1.00  0.00    -0.477 A  
HETATM   23  H   UNL     1     -14.038  11.117  73.199  1.00  0.00     0.000 HD 
HETATM   24  C   UNL     1     -13.650   7.475  71.818  1.00  0.00    -0.322 A  
HETATM   25  O   UNL     1     -14.381   6.382  72.177  1.00  0.00    -0.493 OA 
HETATM   26  C   UNL     1     -12.651   7.297  70.867  1.00  0.00    -0.237 A  
HETATM   27  H   UNL     1     -14.219   5.527  71.794  1.00  0.00     0.000 HD 
ENDBRANCH  15  18
ENDBRANCH  14  15
ENDBRANCH  12  14
ENDBRANCH   2  12
TORSDOF 6
ENDMDL
MODEL      303
REMARK 921   NORMALIZED FREE ENERGY PREDICTED BY IDOCK:   -4.10 KCAL/MOL
REMARK 922        TOTAL FREE ENERGY PREDICTED BY IDOCK:   -6.15 KCAL/MOL
REMARK 923 INTER-LIGAND FREE ENERGY PREDICTED BY IDOCK:   -5.01 KCAL/MOL
REMARK 924 INTRA-LIGAND FREE ENERGY PREDICTED BY IDOCK:   -1.14 KCAL/MOL
REMARK 927      BINDING AFFINITY PREDICTED BY RF-SCORE:    0.00 PKD
ROOT
HETATM    1  C   UNL     1      -7.761  15.748  67.539  1.00  0.00    -0.186 C  
HETATM    2  C   UNL     1      -8.145  14.305  67.181  1.00  0.00    -0.129 C  
ENDROOT
BRANCH   2   3
HETATM    3  C   UNL     1      -7.878  13.409  68.419  1.00  0.00    -0.138 C  
BRANCH   3   4
HETATM    4  C   UNL     1      -7.731  11.934  68.121  1.00  0.00    -0.126 A  
HETATM    5  C   UNL     1      -6.687  10.149  66.846  1.00  0.00    -0.079 A  
HETATM    6  H   UNL     1      -6.581   7.621  66.628  1.00  0.00     0.000 HD 
HETATM    7  C   UNL     1      -8.457  10.975  68.841  1.00  0.00    -0.124 A  
HETATM    8  C   UNL     1      -6.851  11.507  67.116  1.00  0.00    -0.139 A  
HETATM    9  C   UNL     1      -8.295   9.613  68.569  1.00  0.00    -0.117 A  
HETATM   10  O   UNL     1      -7.191   7.894  67.303  1.00  0.00    -0.086 OA 
HETATM   11  C   UNL     1      -7.402   9.213  67.580  1.00  0.00    -0.087 A  
ENDBRANCH   3   4
ENDBRANCH   2   3
BRANCH   2  12
HETATM   12  N   UNL     1      -9.545  14.203  66.742  1.00  0.00    -0.271 NA 
HETATM   13  H   UNL     1      -9.709  13.309  66.278  1.00  0.00     0.000 HD 
BRANCH  12  14
HETATM   14  C   UNL     1     -10.529  14.413  67.809  1.00  0.00    -0.245 C  
BRANCH  14  15
HETATM   15  C   UNL     1     -11.701  13.401  67.728  1.00  0.00    -0.359 C  
HETATM   16  H   UNL     1     -12.040  11.644  66.891  1.00  0.00     0.000 HD 
HETATM   17  O   UNL     1     -11.323  12.264  66.940  1.00  0.00    -0.292 OA 
BRANCH  15  18
HETATM   18  C   UNL     1     -12.133  12.935  69.106  1.00  0.00    -0.216 A  
HETATM   19  O   UNL     1     -12.765   9.815  70.956  1.00  0.00    -0.350 OA 
HETATM   20  C   UNL     1     -12.657  11.141  70.653  1.00  0.00    -0.318 A  
HETATM   21  C   UNL     1     -12.220  11.565  69.397  1.00  0.00    -0.273 A  
HETATM   22  C   UNL     1     -13.002  12.055  71.639  1.00  0.00    -0.439 A  
HETATM   23  H   UNL     1     -13.063   9.527  71.811  1.00  0.00     0.000 HD 
HETATM   24  C   UNL     1     -12.912  13.412  71.358  1.00  0.00    -0.328 A  
HETATM   25  O   UNL     1     -13.242  14.357  72.283  1.00  0.00    -0.346 OA 
HETATM   26  C   UNL     1     -12.481  13.855  70.111  1.00  0.00    -0.355 A  
HETATM   27  H   UNL     1     -13.180  15.286  72.091  1.00  0.00     0.000 HD 
ENDBRANCH  15  18
ENDBRANCH  14  15
ENDBRANCH  12  14
ENDBRANCH   2  12
TORSDOF 6
ENDMDL
MODEL      304
REMARK 921   NORMALIZED FREE ENERGY PREDICTED BY IDOCK:   -4.09 KCAL/MOL
REMARK 922        TOTAL FREE ENERGY PREDICTED BY IDOCK:   -6.14 KCAL/MOL
REMARK 923 INTER-LIGAND FREE ENERGY PREDICTED BY IDOCK:   -5.64 KCAL/MOL
REMARK 924 INTRA-LIGAND FREE ENERGY PREDICTED BY IDOCK:   -0.50 KCAL/MOL
REMARK 927      BINDING AFFINITY PREDICTED BY RF-SCORE:    0.00 PKD
ROOT
HETATM    1  C   UNL     1     -10.346  12.346  65.775  1.00  0.00    -0.289 C  
HETATM    2  C   UNL     1     -10.216  13.112  67.099  1.00  0.00    -0.244 C  
ENDROOT
BRANCH   2   3
HETATM    3  C   UNL     1     -10.985  14.454  66.962  1.00  0.00    -0.304 C  
BRANCH   3   4
HETATM    4  C   UNL     1     -10.240  15.670  67.462  1.00  0.00    -0.263 A  
HETATM    5  C   UNL     1      -8.517  16.637  68.876  1.00  0.00    -0.233 A  
HETATM    6  H   UNL     1      -7.382  18.833  69.459  1.00  0.00     0.000 HD 
HETATM    7  C   UNL     1     -10.534  16.950  66.971  1.00  0.00    -0.281 A  
HETATM    8  C   UNL     1      -9.230  15.526  68.424  1.00  0.00    -0.191 A  
HETATM    9  C   UNL     1      -9.821  18.064  67.425  1.00  0.00    -0.309 A  
HETATM   10  O   UNL     1      -8.072  18.949  68.816  1.00  0.00    -0.344 OA 
HETATM   11  C   UNL     1      -8.811  17.894  68.368  1.00  0.00    -0.289 A  
ENDBRANCH   3   4
ENDBRANCH   2   3
BRANCH   2  12
HETATM   12  N   UNL     1     -10.715  12.327  68.238  1.00  0.00    -0.213 NA 
HETATM   13  H   UNL     1     -11.701  12.099  68.110  1.00  0.00     0.000 HD 
BRANCH  12  14
HETATM   14  C   UNL     1      -9.942  11.113  68.520  1.00  0.00    -0.199 C  
BRANCH  14  15
HETATM   15  C   UNL     1     -10.835   9.845  68.535  1.00  0.00    -0.217 C  
HETATM   16  H   UNL     1     -11.328   8.407  67.274  1.00  0.00     0.000 HD 
HETATM   17  O   UNL     1     -10.781   9.183  67.264  1.00  0.00    -0.262 OA 
BRANCH  15  18
HETATM   18  C   UNL     1     -10.411   8.876  69.623  1.00  0.00    -0.214 A  
HETATM   19  O   UNL     1      -8.405   8.812  72.711  1.00  0.00    -0.412 OA 
HETATM   20  C   UNL     1      -9.191   8.414  71.670  1.00  0.00    -0.206 A  
HETATM   21  C   UNL     1      -9.615   9.316  70.692  1.00  0.00    -0.334 A  
HETATM   22  C   UNL     1      -9.553   7.074  71.615  1.00  0.00    -0.160 A  
HETATM   23  H   UNL     1      -8.117   8.198  73.376  1.00  0.00     0.000 HD 
HETATM   24  C   UNL     1     -10.345   6.636  70.562  1.00  0.00    -0.199 A  
HETATM   25  O   UNL     1     -10.729   5.332  70.451  1.00  0.00    -0.250 OA 
HETATM   26  C   UNL     1     -10.775   7.519  69.577  1.00  0.00    -0.222 A  
HETATM   27  H   UNL     1     -11.271   5.032  69.730  1.00  0.00     0.000 HD 
ENDBRANCH  15  18
ENDBRANCH  14  15
ENDBRANCH  12  14
ENDBRANCH   2  12
TORSDOF 6
ENDMDL
MODEL      305
REMARK 921   NORMALIZED FREE ENERGY PREDICTED BY IDOCK:   -4.09 KCAL/MOL
REMARK 922        TOTAL FREE ENERGY PREDICTED BY IDOCK:   -6.14 KCAL/MOL
REMARK 923 INTER-LIGAND FREE ENERGY PREDICTED BY IDOCK:   -6.13 KCAL/MOL
REMARK 924 INTRA-LIGAND FREE ENERGY PREDICTED BY IDOCK:   -0.01 KCAL/MOL
REMARK 927      BINDING AFFINITY PREDICTED BY RF-SCORE:    0.00 PKD
ROOT
HETATM    1  C   UNL     1      -8.249  11.485  66.865  1.00  0.00    -0.167 C  
HETATM    2  C   UNL     1      -9.723  11.896  66.744  1.00  0.00    -0.204 C  
ENDROOT
BRANCH   2   3
HETATM    3  C   UNL     1     -10.385  11.015  65.651  1.00  0.00    -0.311 C  
BRANCH   3   4
HETATM    4  C   UNL     1      -9.531   9.876  65.145  1.00  0.00    -0.338 A  
HETATM    5  C   UNL     1      -8.261   8.848  63.347  1.00  0.00    -0.181 A  
HETATM    6  H   UNL     1      -6.779   6.858  62.804  1.00  0.00     0.000 HD 
HETATM    7  C   UNL     1      -9.179   8.808  65.983  1.00  0.00    -0.282 A  
HETATM    8  C   UNL     1      -9.070   9.881  63.820  1.00  0.00    -0.293 A  
HETATM    9  C   UNL     1      -8.370   7.772  65.508  1.00  0.00    -0.151 A  
HETATM   10  O   UNL     1      -7.094   6.833  63.700  1.00  0.00    -0.052 OA 
HETATM   11  C   UNL     1      -7.909   7.808  64.196  1.00  0.00    -0.133 A  
ENDBRANCH   3   4
ENDBRANCH   2   3
BRANCH   2  12
HETATM   12  N   UNL     1     -10.433  11.776  68.026  1.00  0.00    -0.193 NA 
HETATM   13  H   UNL     1     -11.347  11.344  67.889  1.00  0.00     0.000 HD 
BRANCH  12  14
HETATM   14  C   UNL     1      -9.683  11.068  69.068  1.00  0.00    -0.134 C  
BRANCH  14  15
HETATM   15  C   UNL     1     -10.176   9.608  69.250  1.00  0.00    -0.205 C  
HETATM   16  H   UNL     1      -9.398   7.875  69.790  1.00  0.00     0.000 HD 
HETATM   17  O   UNL     1      -9.096   8.768  69.679  1.00  0.00    -0.145 OA 
BRANCH  15  18
HETATM   18  C   UNL     1     -11.309   9.523  70.256  1.00  0.00    -0.284 A  
HETATM   19  O   UNL     1     -13.570  11.732  72.145  1.00  0.00    -0.475 OA 
HETATM   20  C   UNL     1     -12.952  10.612  71.671  1.00  0.00    -0.477 A  
HETATM   21  C   UNL     1     -11.939  10.691  70.714  1.00  0.00    -0.477 A  
HETATM   22  C   UNL     1     -13.366   9.387  72.180  1.00  0.00    -0.545 A  
HETATM   23  H   UNL     1     -14.260  11.678  72.796  1.00  0.00     0.000 HD 
HETATM   24  C   UNL     1     -12.750   8.229  71.724  1.00  0.00    -0.336 A  
HETATM   25  O   UNL     1     -13.108   6.999  72.189  1.00  0.00    -0.532 OA 
HETATM   26  C   UNL     1     -11.735   8.287  70.773  1.00  0.00    -0.213 A  
HETATM   27  H   UNL     1     -12.686   6.206  71.878  1.00  0.00     0.000 HD 
ENDBRANCH  15  18
ENDBRANCH  14  15
ENDBRANCH  12  14
ENDBRANCH   2  12
TORSDOF 6
ENDMDL
MODEL      306
REMARK 921   NORMALIZED FREE ENERGY PREDICTED BY IDOCK:   -4.06 KCAL/MOL
REMARK 922        TOTAL FREE ENERGY PREDICTED BY IDOCK:   -6.09 KCAL/MOL
REMARK 923 INTER-LIGAND FREE ENERGY PREDICTED BY IDOCK:   -5.68 KCAL/MOL
REMARK 924 INTRA-LIGAND FREE ENERGY PREDICTED BY IDOCK:   -0.41 KCAL/MOL
REMARK 927      BINDING AFFINITY PREDICTED BY RF-SCORE:    0.00 PKD
ROOT
HETATM    1  C   UNL     1      -8.239   7.885  67.199  1.00  0.00    -0.118 C  
HETATM    2  C   UNL     1      -9.475   7.949  66.289  1.00  0.00    -0.151 C  
ENDROOT
BRANCH   2   3
HETATM    3  C   UNL     1     -10.727   8.156  67.184  1.00  0.00    -0.264 C  
BRANCH   3   4
HETATM    4  C   UNL     1     -10.660   7.489  68.539  1.00  0.00    -0.172 A  
HETATM    5  C   UNL     1     -10.505   7.668  70.956  1.00  0.00    -0.218 A  
HETATM    6  H   UNL     1     -10.506   6.286  73.087  1.00  0.00     0.000 HD 
HETATM    7  C   UNL     1     -10.725   6.094  68.662  1.00  0.00    -0.370 A  
HETATM    8  C   UNL     1     -10.542   8.269  69.698  1.00  0.00    -0.222 A  
HETATM    9  C   UNL     1     -10.686   5.491  69.922  1.00  0.00    -0.358 A  
HETATM   10  O   UNL     1     -10.574   5.742  72.310  1.00  0.00    -0.202 OA 
HETATM   11  C   UNL     1     -10.586   6.286  71.060  1.00  0.00    -0.238 A  
ENDBRANCH   3   4
ENDBRANCH   2   3
BRANCH   2  12
HETATM   12  N   UNL     1      -9.360   9.013  65.281  1.00  0.00    -0.434 NA 
HETATM   13  H   UNL     1      -9.673   8.677  64.370  1.00  0.00     0.000 HD 
BRANCH  12  14
HETATM   14  C   UNL     1     -10.054  10.256  65.633  1.00  0.00    -0.271 C  
BRANCH  14  15
HETATM   15  C   UNL     1      -9.351  11.007  66.794  1.00  0.00    -0.181 C  
HETATM   16  H   UNL     1      -7.751  12.143  67.023  1.00  0.00     0.000 HD 
HETATM   17  O   UNL     1      -8.182  11.683  66.312  1.00  0.00    -0.111 OA 
BRANCH  15  18
HETATM   18  C   UNL     1     -10.278  12.012  67.452  1.00  0.00    -0.216 A  
HETATM   19  O   UNL     1     -12.005  12.577  70.654  1.00  0.00    -0.505 OA 
HETATM   20  C   UNL     1     -11.576  12.737  69.369  1.00  0.00    -0.298 A  
HETATM   21  C   UNL     1     -10.690  11.832  68.781  1.00  0.00    -0.255 A  
HETATM   22  C   UNL     1     -12.058  13.832  68.663  1.00  0.00    -0.333 A  
HETATM   23  H   UNL     1     -12.607  13.193  71.054  1.00  0.00     0.000 HD 
HETATM   24  C   UNL     1     -11.648  14.017  67.350  1.00  0.00    -0.368 A  
HETATM   25  O   UNL     1     -12.090  15.069  66.604  1.00  0.00    -0.119 OA 
HETATM   26  C   UNL     1     -10.768  13.125  66.745  1.00  0.00    -0.274 A  
HETATM   27  H   UNL     1     -11.809  15.195  65.705  1.00  0.00     0.000 HD 
ENDBRANCH  15  18
ENDBRANCH  14  15
ENDBRANCH  12  14
ENDBRANCH   2  12
TORSDOF 6
ENDMDL
MODEL      307
REMARK 921   NORMALIZED FREE ENERGY PREDICTED BY IDOCK:   -4.05 KCAL/MOL
REMARK 922        TOTAL FREE ENERGY PREDICTED BY IDOCK:   -6.08 KCAL/MOL
REMARK 923 INTER-LIGAND FREE ENERGY PREDICTED BY IDOCK:   -4.22 KCAL/MOL
REMARK 924 INTRA-LIGAND FREE ENERGY PREDICTED BY IDOCK:   -1.86 KCAL/MOL
REMARK 927      BINDING AFFINITY PREDICTED BY RF-SCORE:    0.00 PKD
ROOT
HETATM    1  C   UNL     1      -6.433   7.762  69.366  1.00  0.00    -0.035 C  
HETATM    2  C   UNL     1      -6.820   6.638  68.395  1.00  0.00    -0.074 C  
ENDROOT
BRANCH   2   3
HETATM    3  C   UNL     1      -6.398   5.284  69.025  1.00  0.00    -0.034 C  
BRANCH   3   4
HETATM    4  C   UNL     1      -7.432   4.648  69.926  1.00  0.00    -0.054 A  
HETATM    5  C   UNL     1      -8.363   4.331  72.147  1.00  0.00    -0.103 A  
HETATM    6  H   UNL     1     -10.269   3.208  73.394  1.00  0.00     0.000 HD 
HETATM    7  C   UNL     1      -8.436   3.822  69.403  1.00  0.00    -0.095 A  
HETATM    8  C   UNL     1      -7.401   4.891  71.307  1.00  0.00    -0.069 A  
HETATM    9  C   UNL     1      -9.400   3.259  70.245  1.00  0.00    -0.242 A  
HETATM   10  O   UNL     1     -10.297   3.024  72.463  1.00  0.00    -0.158 OA 
HETATM   11  C   UNL     1      -9.360   3.528  71.610  1.00  0.00    -0.135 A  
ENDBRANCH   3   4
ENDBRANCH   2   3
BRANCH   2  12
HETATM   12  N   UNL     1      -8.258   6.654  68.082  1.00  0.00    -0.114 NA 
HETATM   13  H   UNL     1      -8.728   5.866  68.527  1.00  0.00     0.000 HD 
BRANCH  12  14
HETATM   14  C   UNL     1      -8.935   7.910  68.418  1.00  0.00    -0.133 C  
BRANCH  14  15
HETATM   15  C   UNL     1     -10.364   7.671  68.973  1.00  0.00    -0.213 C  
HETATM   16  H   UNL     1     -11.825   6.372  68.693  1.00  0.00     0.000 HD 
HETATM   17  O   UNL     1     -10.950   6.518  68.354  1.00  0.00    -0.277 OA 
BRANCH  15  18
HETATM   18  C   UNL     1     -10.353   7.482  70.478  1.00  0.00    -0.217 A  
HETATM   19  O   UNL     1      -8.487   8.607  73.446  1.00  0.00    -0.385 OA 
HETATM   20  C   UNL     1      -9.390   7.962  72.653  1.00  0.00    -0.213 A  
HETATM   21  C   UNL     1      -9.424   8.170  71.273  1.00  0.00    -0.199 A  
HETATM   22  C   UNL     1     -10.274   7.086  73.269  1.00  0.00    -0.309 A  
HETATM   23  H   UNL     1      -8.464   8.466  74.385  1.00  0.00     0.000 HD 
HETATM   24  C   UNL     1     -11.199   6.407  72.487  1.00  0.00    -0.272 A  
HETATM   25  O   UNL     1     -12.089   5.531  73.033  1.00  0.00    -0.547 OA 
HETATM   26  C   UNL     1     -11.247   6.599  71.110  1.00  0.00    -0.340 A  
HETATM   27  H   UNL     1     -12.722   5.066  72.498  1.00  0.00     0.000 HD 
ENDBRANCH  15  18
ENDBRANCH  14  15
ENDBRANCH  12  14
ENDBRANCH   2  12
TORSDOF 6
ENDMDL
MODEL      308
REMARK 921   NORMALIZED FREE ENERGY PREDICTED BY IDOCK:   -4.04 KCAL/MOL
REMARK 922        TOTAL FREE ENERGY PREDICTED BY IDOCK:   -6.06 KCAL/MOL
REMARK 923 INTER-LIGAND FREE ENERGY PREDICTED BY IDOCK:   -5.62 KCAL/MOL
REMARK 924 INTRA-LIGAND FREE ENERGY PREDICTED BY IDOCK:   -0.44 KCAL/MOL
REMARK 927      BINDING AFFINITY PREDICTED BY RF-SCORE:    0.00 PKD
ROOT
HETATM    1  C   UNL     1      -8.092  18.982  66.412  1.00  0.00    -0.308 C  
HETATM    2  C   UNL     1      -7.401  17.620  66.568  1.00  0.00    -0.261 C  
ENDROOT
BRANCH   2   3
HETATM    3  C   UNL     1      -6.594  17.633  67.894  1.00  0.00    -0.190 C  
BRANCH   3   4
HETATM    4  C   UNL     1      -6.269  16.269  68.457  1.00  0.00    -0.116 A  
HETATM    5  C   UNL     1      -5.437  14.010  68.127  1.00  0.00    -0.121 A  
HETATM    6  H   UNL     1      -4.902  11.857  69.362  1.00  0.00     0.000 HD 
HETATM    7  C   UNL     1      -6.455  15.985  69.818  1.00  0.00    -0.164 A  
HETATM    8  C   UNL     1      -5.764  15.266  67.617  1.00  0.00    -0.078 A  
HETATM    9  C   UNL     1      -6.130  14.726  70.330  1.00  0.00    -0.167 A  
HETATM   10  O   UNL     1      -5.255  12.521  69.943  1.00  0.00    -0.075 OA 
HETATM   11  C   UNL     1      -5.613  13.753  69.480  1.00  0.00    -0.090 A  
ENDBRANCH   3   4
ENDBRANCH   2   3
BRANCH   2  12
HETATM   12  N   UNL     1      -8.365  16.509  66.544  1.00  0.00    -0.262 NA 
HETATM   13  H   UNL     1      -8.017  15.723  67.091  1.00  0.00     0.000 HD 
BRANCH  12  14
HETATM   14  C   UNL     1      -9.718  16.875  66.977  1.00  0.00    -0.253 C  
BRANCH  14  15
HETATM   15  C   UNL     1     -10.748  15.753  66.678  1.00  0.00    -0.287 C  
HETATM   16  H   UNL     1     -10.797  14.075  65.638  1.00  0.00     0.000 HD 
HETATM   17  O   UNL     1     -10.167  14.762  65.821  1.00  0.00    -0.298 OA 
BRANCH  15  18
HETATM   18  C   UNL     1     -11.236  15.091  67.953  1.00  0.00    -0.330 A  
HETATM   19  O   UNL     1     -11.646  11.732  69.404  1.00  0.00    -0.273 OA 
HETATM   20  C   UNL     1     -11.672  13.087  69.250  1.00  0.00    -0.320 A  
HETATM   21  C   UNL     1     -11.183  13.696  68.093  1.00  0.00    -0.303 A  
HETATM   22  C   UNL     1     -12.207  13.841  70.286  1.00  0.00    -0.429 A  
HETATM   23  H   UNL     1     -11.979  11.318  70.192  1.00  0.00     0.000 HD 
HETATM   24  C   UNL     1     -12.256  15.222  70.156  1.00  0.00    -0.364 A  
HETATM   25  O   UNL     1     -12.774  16.015  71.136  1.00  0.00    -0.552 OA 
HETATM   26  C   UNL     1     -11.777  15.847  69.009  1.00  0.00    -0.377 A  
HETATM   27  H   UNL     1     -12.808  16.960  71.046  1.00  0.00     0.000 HD 
ENDBRANCH  15  18
ENDBRANCH  14  15
ENDBRANCH  12  14
ENDBRANCH   2  12
TORSDOF 6
ENDMDL
MODEL      309
REMARK 921   NORMALIZED FREE ENERGY PREDICTED BY IDOCK:   -4.02 KCAL/MOL
REMARK 922        TOTAL FREE ENERGY PREDICTED BY IDOCK:   -6.04 KCAL/MOL
REMARK 923 INTER-LIGAND FREE ENERGY PREDICTED BY IDOCK:   -5.46 KCAL/MOL
REMARK 924 INTRA-LIGAND FREE ENERGY PREDICTED BY IDOCK:   -0.58 KCAL/MOL
REMARK 927      BINDING AFFINITY PREDICTED BY RF-SCORE:    0.00 PKD
ROOT
HETATM    1  C   UNL     1      -7.793  12.419  68.330  1.00  0.00    -0.142 C  
HETATM    2  C   UNL     1      -9.067  13.172  67.920  1.00  0.00    -0.207 C  
ENDROOT
BRANCH   2   3
HETATM    3  C   UNL     1      -9.660  12.476  66.666  1.00  0.00    -0.239 C  
BRANCH   3   4
HETATM    4  C   UNL     1      -9.826  10.978  66.785  1.00  0.00    -0.229 A  
HETATM    5  C   UNL     1      -9.028   8.737  66.294  1.00  0.00    -0.211 A  
HETATM    6  H   UNL     1      -9.507   6.282  66.737  1.00  0.00     0.000 HD 
HETATM    7  C   UNL     1     -10.890  10.424  67.511  1.00  0.00    -0.358 A  
HETATM    8  C   UNL     1      -8.901  10.120  66.172  1.00  0.00    -0.162 A  
HETATM    9  C   UNL     1     -11.018   9.037  67.633  1.00  0.00     0.008 A  
HETATM   10  O   UNL     1     -10.149   6.849  67.148  1.00  0.00    -0.172 OA 
HETATM   11  C   UNL     1     -10.078   8.206  67.031  1.00  0.00    -0.280 A  
ENDBRANCH   3   4
ENDBRANCH   2   3
BRANCH   2  12
HETATM   12  N   UNL     1     -10.050  13.225  69.014  1.00  0.00    -0.425 NA 
HETATM   13  H   UNL     1      -9.619  13.592  69.862  1.00  0.00     0.000 HD 
BRANCH  12  14
HETATM   14  C   UNL     1     -11.269  13.975  68.693  1.00  0.00    -0.268 C  
BRANCH  14  15
HETATM   15  C   UNL     1     -11.286  15.373  69.364  1.00  0.00    -0.296 C  
HETATM   16  H   UNL     1     -10.617  16.183  71.036  1.00  0.00     0.000 HD 
HETATM   17  O   UNL     1     -10.606  15.327  70.626  1.00  0.00    -0.255 OA 
BRANCH  15  18
HETATM   18  C   UNL     1     -10.636  16.423  68.482  1.00  0.00    -0.304 A  
HETATM   19  O   UNL     1     -10.367  17.340  64.926  1.00  0.00    -0.211 OA 
HETATM   20  C   UNL     1     -10.203  17.345  66.280  1.00  0.00    -0.341 A  
HETATM   21  C   UNL     1     -10.836  16.403  67.093  1.00  0.00    -0.169 A  
HETATM   22  C   UNL     1      -9.377  18.322  66.821  1.00  0.00    -0.295 A  
HETATM   23  H   UNL     1      -9.937  17.981  64.373  1.00  0.00     0.000 HD 
HETATM   24  C   UNL     1      -9.182  18.349  68.196  1.00  0.00    -0.312 A  
HETATM   25  O   UNL     1      -8.380  19.280  68.786  1.00  0.00    -0.361 OA 
HETATM   26  C   UNL     1      -9.802  17.417  69.023  1.00  0.00    -0.230 A  
HETATM   27  H   UNL     1      -8.246  19.298  69.726  1.00  0.00     0.000 HD 
ENDBRANCH  15  18
ENDBRANCH  14  15
ENDBRANCH  12  14
ENDBRANCH   2  12
TORSDOF 6
ENDMDL
MODEL      310
REMARK 921   NORMALIZED FREE ENERGY PREDICTED BY IDOCK:   -4.00 KCAL/MOL
REMARK 922        TOTAL FREE ENERGY PREDICTED BY IDOCK:   -6.01 KCAL/MOL
REMARK 923 INTER-LIGAND FREE ENERGY PREDICTED BY IDOCK:   -6.41 KCAL/MOL
REMARK 924 INTRA-LIGAND FREE ENERGY PREDICTED BY IDOCK:    0.40 KCAL/MOL
REMARK 927      BINDING AFFINITY PREDICTED BY RF-SCORE:    0.00 PKD
ROOT
HETATM    1  C   UNL     1      -9.459  10.738  68.620  1.00  0.00    -0.188 C  
HETATM    2  C   UNL     1     -10.511  10.414  69.690  1.00  0.00    -0.243 C  
ENDROOT
BRANCH   2   3
HETATM    3  C   UNL     1     -11.579  11.540  69.678  1.00  0.00    -0.403 C  
BRANCH   3   4
HETATM    4  C   UNL     1     -11.674  12.317  68.385  1.00  0.00    -0.390 A  
HETATM    5  C   UNL     1     -11.735  12.342  65.956  1.00  0.00    -0.469 A  
HETATM    6  H   UNL     1     -12.006  13.889  63.961  1.00  0.00     0.000 HD 
HETATM    7  C   UNL     1     -11.821  13.711  68.388  1.00  0.00    -0.407 A  
HETATM    8  C   UNL     1     -11.624  11.641  67.157  1.00  0.00    -0.291 A  
HETATM    9  C   UNL     1     -11.931  14.415  67.185  1.00  0.00    -0.419 A  
HETATM   10  O   UNL     1     -12.029  14.363  64.784  1.00  0.00    -0.403 OA 
HETATM   11  C   UNL     1     -11.896  13.721  65.979  1.00  0.00    -0.390 A  
ENDBRANCH   3   4
ENDBRANCH   2   3
BRANCH   2  12
HETATM   12  N   UNL     1     -11.126   9.095  69.474  1.00  0.00    -0.422 NA 
HETATM   13  H   UNL     1     -11.305   8.944  68.482  1.00  0.00     0.000 HD 
BRANCH  12  14
HETATM   14  C   UNL     1     -10.362   7.975  70.033  1.00  0.00    -0.218 C  
BRANCH  14  15
HETATM   15  C   UNL     1     -11.226   7.091  70.970  1.00  0.00    -0.274 C  
HETATM   16  H   UNL     1     -13.095   6.456  71.041  1.00  0.00     0.000 HD 
HETATM   17  O   UNL     1     -12.566   6.997  70.467  1.00  0.00    -0.195 OA 
BRANCH  15  18
HETATM   18  C   UNL     1     -10.645   5.697  71.114  1.00  0.00    -0.312 A  
HETATM   19  O   UNL     1      -9.304   2.974  69.029  1.00  0.00    -0.153 OA 
HETATM   20  C   UNL     1      -9.717   3.690  70.114  1.00  0.00    -0.118 A  
HETATM   21  C   UNL     1     -10.213   4.988  69.982  1.00  0.00    -0.339 A  
HETATM   22  C   UNL     1      -9.630   3.077  71.357  1.00  0.00    -0.227 A  
HETATM   23  H   UNL     1      -8.967   2.090  69.119  1.00  0.00     0.000 HD 
HETATM   24  C   UNL     1     -10.051   3.777  72.481  1.00  0.00    -0.167 A  
HETATM   25  O   UNL     1      -9.996   3.228  73.727  1.00  0.00    -0.106 OA 
HETATM   26  C   UNL     1     -10.551   5.071  72.370  1.00  0.00    -0.275 A  
HETATM   27  H   UNL     1     -10.284   3.706  74.496  1.00  0.00     0.000 HD 
ENDBRANCH  15  18
ENDBRANCH  14  15
ENDBRANCH  12  14
ENDBRANCH   2  12
TORSDOF 6
ENDMDL
MODEL      311
REMARK 921   NORMALIZED FREE ENERGY PREDICTED BY IDOCK:   -3.98 KCAL/MOL
REMARK 922        TOTAL FREE ENERGY PREDICTED BY IDOCK:   -5.98 KCAL/MOL
REMARK 923 INTER-LIGAND FREE ENERGY PREDICTED BY IDOCK:   -4.44 KCAL/MOL
REMARK 924 INTRA-LIGAND FREE ENERGY PREDICTED BY IDOCK:   -1.55 KCAL/MOL
REMARK 927      BINDING AFFINITY PREDICTED BY RF-SCORE:    0.00 PKD
ROOT
HETATM    1  C   UNL     1      -6.833   5.251  65.305  1.00  0.00    -0.060 C  
HETATM    2  C   UNL     1      -7.389   6.202  66.375  1.00  0.00    -0.085 C  
ENDROOT
BRANCH   2   3
HETATM    3  C   UNL     1      -8.782   6.701  65.905  1.00  0.00    -0.147 C  
BRANCH   3   4
HETATM    4  C   UNL     1      -8.948   8.203  65.884  1.00  0.00    -0.195 A  
HETATM    5  C   UNL     1     -10.095  10.195  66.670  1.00  0.00    -0.283 A  
HETATM    6  H   UNL     1     -10.082  12.729  66.503  1.00  0.00     0.000 HD 
HETATM    7  C   UNL     1      -8.111   9.012  65.102  1.00  0.00    -0.130 A  
HETATM    8  C   UNL     1      -9.946   8.809  66.661  1.00  0.00    -0.355 A  
HETATM    9  C   UNL     1      -8.261  10.401  65.109  1.00  0.00    -0.158 A  
HETATM   10  O   UNL     1      -9.409  12.334  65.961  1.00  0.00    -0.221 OA 
HETATM   11  C   UNL     1      -9.247  10.981  65.902  1.00  0.00    -0.199 A  
ENDBRANCH   3   4
ENDBRANCH   2   3
BRANCH   2  12
HETATM   12  N   UNL     1      -7.472   5.557  67.694  1.00  0.00    -0.080 NA 
HETATM   13  H   UNL     1      -6.885   6.047  68.368  1.00  0.00     0.000 HD 
BRANCH  12  14
HETATM   14  C   UNL     1      -8.837   5.415  68.212  1.00  0.00    -0.104 C  
BRANCH  14  15
HETATM   15  C   UNL     1      -8.926   5.762  69.721  1.00  0.00    -0.129 C  
HETATM   16  H   UNL     1      -7.700   5.812  71.269  1.00  0.00     0.000 HD 
HETATM   17  O   UNL     1      -7.645   5.599  70.345  1.00  0.00    -0.084 OA 
BRANCH  15  18
HETATM   18  C   UNL     1      -9.412   7.183  69.938  1.00  0.00    -0.153 A  
HETATM   19  O   UNL     1      -8.095  10.618  70.104  1.00  0.00    -0.348 OA 
HETATM   20  C   UNL     1      -8.954   9.558  70.131  1.00  0.00    -0.236 A  
HETATM   21  C   UNL     1      -8.510   8.257  69.889  1.00  0.00    -0.127 A  
HETATM   22  C   UNL     1     -10.288   9.821  70.412  1.00  0.00    -0.354 A  
HETATM   23  H   UNL     1      -8.397  11.503  70.268  1.00  0.00     0.000 HD 
HETATM   24  C   UNL     1     -11.186   8.763  70.455  1.00  0.00    -0.247 A  
HETATM   25  O   UNL     1     -12.507   8.956  70.731  1.00  0.00    -0.493 OA 
HETATM   26  C   UNL     1     -10.762   7.458  70.220  1.00  0.00    -0.250 A  
HETATM   27  H   UNL     1     -13.121   8.232  70.761  1.00  0.00     0.000 HD 
ENDBRANCH  15  18
ENDBRANCH  14  15
ENDBRANCH  12  14
ENDBRANCH   2  12
TORSDOF 6
ENDMDL
MODEL      312
REMARK 921   NORMALIZED FREE ENERGY PREDICTED BY IDOCK:   -3.97 KCAL/MOL
REMARK 922        TOTAL FREE ENERGY PREDICTED BY IDOCK:   -5.97 KCAL/MOL
REMARK 923 INTER-LIGAND FREE ENERGY PREDICTED BY IDOCK:   -4.88 KCAL/MOL
REMARK 924 INTRA-LIGAND FREE ENERGY PREDICTED BY IDOCK:   -1.09 KCAL/MOL
REMARK 927      BINDING AFFINITY PREDICTED BY RF-SCORE:    0.00 PKD
ROOT
HETATM    1  C   UNL     1     -10.659   9.658  67.033  1.00  0.00    -0.267 C  
HETATM    2  C   UNL     1      -9.958   9.773  68.394  1.00  0.00    -0.156 C  
ENDROOT
BRANCH   2   3
HETATM    3  C   UNL     1     -11.039  10.046  69.475  1.00  0.00    -0.279 C  
BRANCH   3   4
HETATM    4  C   UNL     1     -10.923   9.198  70.721  1.00  0.00    -0.332 A  
HETATM    5  C   UNL     1     -11.907   7.609  72.273  1.00  0.00    -0.354 A  
HETATM    6  H   UNL     1     -11.395   6.227  74.341  1.00  0.00     0.000 HD 
HETATM    7  C   UNL     1      -9.737   9.173  71.470  1.00  0.00    -0.313 A  
HETATM    8  C   UNL     1     -12.008   8.414  71.139  1.00  0.00    -0.301 A  
HETATM    9  C   UNL     1      -9.636   8.367  72.608  1.00  0.00    -0.337 A  
HETATM   10  O   UNL     1     -10.655   6.762  74.079  1.00  0.00    -0.343 OA 
HETATM   11  C   UNL     1     -10.720   7.584  72.993  1.00  0.00    -0.384 A  
ENDBRANCH   3   4
ENDBRANCH   2   3
BRANCH   2  12
HETATM   12  N   UNL     1      -9.178   8.568  68.714  1.00  0.00    -0.143 NA 
HETATM   13  H   UNL     1      -9.393   8.244  69.657  1.00  0.00     0.000 HD 
BRANCH  12  14
HETATM   14  C   UNL     1      -9.334   7.474  67.749  1.00  0.00    -0.141 C  
BRANCH  14  15
HETATM   15  C   UNL     1     -10.176   6.305  68.325  1.00  0.00    -0.169 C  
HETATM   16  H   UNL     1     -10.804   4.535  67.713  1.00  0.00     0.000 HD 
HETATM   17  O   UNL     1     -10.288   5.251  67.360  1.00  0.00    -0.200 OA 
BRANCH  15  18
HETATM   18  C   UNL     1      -9.567   5.756  69.601  1.00  0.00    -0.193 A  
HETATM   19  O   UNL     1      -6.336   5.652  71.364  1.00  0.00    -0.039 OA 
HETATM   20  C   UNL     1      -7.649   5.450  71.056  1.00  0.00    -0.090 A  
HETATM   21  C   UNL     1      -8.217   5.992  69.902  1.00  0.00    -0.118 A  
HETATM   22  C   UNL     1      -8.402   4.680  71.933  1.00  0.00    -0.109 A  
HETATM   23  H   UNL     1      -5.950   5.283  72.149  1.00  0.00     0.000 HD 
HETATM   24  C   UNL     1      -9.740   4.448  71.643  1.00  0.00    -0.171 A  
HETATM   25  O   UNL     1     -10.530   3.697  72.462  1.00  0.00    -0.157 OA 
HETATM   26  C   UNL     1     -10.324   4.977  70.496  1.00  0.00    -0.285 A  
HETATM   27  H   UNL     1     -11.445   3.538  72.263  1.00  0.00     0.000 HD 
ENDBRANCH  15  18
ENDBRANCH  14  15
ENDBRANCH  12  14
ENDBRANCH   2  12
TORSDOF 6
ENDMDL
MODEL      313
REMARK 921   NORMALIZED FREE ENERGY PREDICTED BY IDOCK:   -3.96 KCAL/MOL
REMARK 922        TOTAL FREE ENERGY PREDICTED BY IDOCK:   -5.96 KCAL/MOL
REMARK 923 INTER-LIGAND FREE ENERGY PREDICTED BY IDOCK:   -6.34 KCAL/MOL
REMARK 924 INTRA-LIGAND FREE ENERGY PREDICTED BY IDOCK:    0.38 KCAL/MOL
REMARK 927      BINDING AFFINITY PREDICTED BY RF-SCORE:    0.00 PKD
ROOT
HETATM    1  C   UNL     1     -10.795  14.824  66.935  1.00  0.00    -0.316 C  
HETATM    2  C   UNL     1     -10.555  14.620  68.438  1.00  0.00    -0.241 C  
ENDROOT
BRANCH   2   3
HETATM    3  C   UNL     1     -11.930  14.654  69.158  1.00  0.00    -0.329 C  
BRANCH   3   4
HETATM    4  C   UNL     1     -12.268  13.411  69.949  1.00  0.00    -0.337 A  
HETATM    5  C   UNL     1     -12.318  10.988  70.123  1.00  0.00    -0.389 A  
HETATM    6  H   UNL     1     -12.896   9.091  71.708  1.00  0.00     0.000 HD 
HETATM    7  C   UNL     1     -12.806  13.500  71.241  1.00  0.00    -0.420 A  
HETATM    8  C   UNL     1     -12.034  12.144  69.395  1.00  0.00    -0.329 A  
HETATM    9  C   UNL     1     -13.092  12.342  71.970  1.00  0.00    -0.461 A  
HETATM   10  O   UNL     1     -13.072   9.941  72.093  1.00  0.00    -0.427 OA 
HETATM   11  C   UNL     1     -12.836  11.096  71.406  1.00  0.00    -0.439 A  
ENDBRANCH   3   4
ENDBRANCH   2   3
BRANCH   2  12
HETATM   12  N   UNL     1      -9.841  13.364  68.714  1.00  0.00    -0.418 NA 
HETATM   13  H   UNL     1     -10.217  12.607  68.143  1.00  0.00     0.000 HD 
BRANCH  12  14
HETATM   14  C   UNL     1      -8.386  13.450  68.557  1.00  0.00    -0.085 C  
BRANCH  14  15
HETATM   15  C   UNL     1      -7.912  12.867  67.199  1.00  0.00    -0.099 C  
HETATM   16  H   UNL     1      -6.222  12.205  66.420  1.00  0.00     0.000 HD 
HETATM   17  O   UNL     1      -6.512  12.562  67.251  1.00  0.00    -0.154 OA 
BRANCH  15  18
HETATM   18  C   UNL     1      -8.685  11.615  66.830  1.00  0.00    -0.185 A  
HETATM   19  O   UNL     1     -10.264   8.702  68.437  1.00  0.00    -0.190 OA 
HETATM   20  C   UNL     1      -9.820   9.572  67.485  1.00  0.00    -0.167 A  
HETATM   21  C   UNL     1      -9.145  10.744  67.830  1.00  0.00    -0.150 A  
HETATM   22  C   UNL     1     -10.061   9.247  66.156  1.00  0.00    -0.304 A  
HETATM   23  H   UNL     1     -10.723   7.905  68.201  1.00  0.00     0.000 HD 
HETATM   24  C   UNL     1      -9.613  10.109  65.163  1.00  0.00    -0.292 A  
HETATM   25  O   UNL     1      -9.814   9.842  63.842  1.00  0.00    -0.472 OA 
HETATM   26  C   UNL     1      -8.936  11.280  65.487  1.00  0.00    -0.139 A  
HETATM   27  H   UNL     1      -9.508  10.431  63.162  1.00  0.00     0.000 HD 
ENDBRANCH  15  18
ENDBRANCH  14  15
ENDBRANCH  12  14
ENDBRANCH   2  12
TORSDOF 6
ENDMDL
MODEL      314
REMARK 921   NORMALIZED FREE ENERGY PREDICTED BY IDOCK:   -3.95 KCAL/MOL
REMARK 922        TOTAL FREE ENERGY PREDICTED BY IDOCK:   -5.95 KCAL/MOL
REMARK 923 INTER-LIGAND FREE ENERGY PREDICTED BY IDOCK:   -5.39 KCAL/MOL
REMARK 924 INTRA-LIGAND FREE ENERGY PREDICTED BY IDOCK:   -0.56 KCAL/MOL
REMARK 927      BINDING AFFINITY PREDICTED BY RF-SCORE:    0.00 PKD
ROOT
HETATM    1  C   UNL     1      -8.164  17.810  67.818  1.00  0.00    -0.227 C  
HETATM    2  C   UNL     1      -7.850  16.430  68.412  1.00  0.00    -0.176 C  
ENDROOT
BRANCH   2   3
HETATM    3  C   UNL     1      -6.640  16.578  69.373  1.00  0.00    -0.213 C  
BRANCH   3   4
HETATM    4  C   UNL     1      -6.225  15.306  70.077  1.00  0.00    -0.151 A  
HETATM    5  C   UNL     1      -5.261  14.205  72.017  1.00  0.00    -0.203 A  
HETATM    6  H   UNL     1      -4.753  11.915  72.991  1.00  0.00     0.000 HD 
HETATM    7  C   UNL     1      -6.436  14.052  69.489  1.00  0.00    -0.122 A  
HETATM    8  C   UNL     1      -5.627  15.371  71.345  1.00  0.00     0.201 A  
HETATM    9  C   UNL     1      -6.068  12.882  70.161  1.00  0.00    -0.092 A  
HETATM   10  O   UNL     1      -5.146  11.855  72.128  1.00  0.00    -0.345 OA 
HETATM   11  C   UNL     1      -5.493  12.970  71.425  1.00  0.00    -0.102 A  
ENDBRANCH   3   4
ENDBRANCH   2   3
BRANCH   2  12
HETATM   12  N   UNL     1      -9.012  15.853  69.106  1.00  0.00    -0.244 NA 
HETATM   13  H   UNL     1      -8.799  15.699  70.091  1.00  0.00     0.000 HD 
BRANCH  12  14
HETATM   14  C   UNL     1     -10.247  16.633  68.966  1.00  0.00    -0.301 C  
BRANCH  14  15
HETATM   15  C   UNL     1     -11.383  15.810  68.306  1.00  0.00    -0.354 C  
HETATM   16  H   UNL     1     -11.656  14.810  66.625  1.00  0.00     0.000 HD 
HETATM   17  O   UNL     1     -10.960  15.314  67.029  1.00  0.00    -0.322 OA 
BRANCH  15  18
HETATM   18  C   UNL     1     -11.809  14.646  69.181  1.00  0.00    -0.347 A  
HETATM   19  O   UNL     1     -12.655  13.921  72.690  1.00  0.00    -0.183 OA 
HETATM   20  C   UNL     1     -12.416  13.761  71.357  1.00  0.00    -0.318 A  
HETATM   21  C   UNL     1     -12.065  14.842  70.547  1.00  0.00    -0.378 A  
HETATM   22  C   UNL     1     -12.531  12.479  70.834  1.00  0.00    -0.361 A  
HETATM   23  H   UNL     1     -12.894  13.186  73.242  1.00  0.00     0.000 HD 
HETATM   24  C   UNL     1     -12.285  12.282  69.482  1.00  0.00    -0.093 A  
HETATM   25  O   UNL     1     -12.377  11.047  68.912  1.00  0.00    -0.693 OA 
HETATM   26  C   UNL     1     -11.931  13.346  68.659  1.00  0.00    -0.362 A  
HETATM   27  H   UNL     1     -12.209  10.912  67.987  1.00  0.00     0.000 HD 
ENDBRANCH  15  18
ENDBRANCH  14  15
ENDBRANCH  12  14
ENDBRANCH   2  12
TORSDOF 6
ENDMDL
MODEL      315
REMARK 921   NORMALIZED FREE ENERGY PREDICTED BY IDOCK:   -3.95 KCAL/MOL
REMARK 922        TOTAL FREE ENERGY PREDICTED BY IDOCK:   -5.94 KCAL/MOL
REMARK 923 INTER-LIGAND FREE ENERGY PREDICTED BY IDOCK:   -5.40 KCAL/MOL
REMARK 924 INTRA-LIGAND FREE ENERGY PREDICTED BY IDOCK:   -0.54 KCAL/MOL
REMARK 927      BINDING AFFINITY PREDICTED BY RF-SCORE:    0.00 PKD
ROOT
HETATM    1  C   UNL     1     -12.148  14.062  66.824  1.00  0.00    -0.480 C  
HETATM    2  C   UNL     1     -11.122  13.262  66.010  1.00  0.00    -0.283 C  
ENDROOT
BRANCH   2   3
HETATM    3  C   UNL     1      -9.728  13.446  66.669  1.00  0.00    -0.275 C  
BRANCH   3   4
HETATM    4  C   UNL     1      -9.376  14.871  67.030  1.00  0.00    -0.240 A  
HETATM    5  C   UNL     1      -8.835  16.531  68.720  1.00  0.00    -0.255 A  
HETATM    6  H   UNL     1      -8.169  18.964  69.017  1.00  0.00     0.000 HD 
HETATM    7  C   UNL     1      -9.226  15.852  66.040  1.00  0.00    -0.372 A  
HETATM    8  C   UNL     1      -9.184  15.226  68.374  1.00  0.00    -0.194 A  
HETATM    9  C   UNL     1      -8.878  17.161  66.386  1.00  0.00    -0.288 A  
HETATM   10  O   UNL     1      -8.307  18.742  68.104  1.00  0.00    -0.287 OA 
HETATM   11  C   UNL     1      -8.676  17.486  67.724  1.00  0.00    -0.230 A  
ENDBRANCH   3   4
ENDBRANCH   2   3
BRANCH   2  12
HETATM   12  N   UNL     1     -11.482  11.839  65.917  1.00  0.00    -0.324 NA 
HETATM   13  H   UNL     1     -11.166  11.448  65.030  1.00  0.00     0.000 HD 
BRANCH  12  14
HETATM   14  C   UNL     1     -11.003  11.021  67.036  1.00  0.00    -0.272 C  
BRANCH  14  15
HETATM   15  C   UNL     1     -10.526   9.620  66.570  1.00  0.00    -0.143 C  
HETATM   16  H   UNL     1      -9.039   8.880  65.502  1.00  0.00     0.000 HD 
HETATM   17  O   UNL     1      -9.331   9.738  65.787  1.00  0.00    -0.186 OA 
BRANCH  15  18
HETATM   18  C   UNL     1     -10.265   8.700  67.748  1.00  0.00    -0.282 A  
HETATM   19  O   UNL     1      -9.517   5.163  68.449  1.00  0.00    -0.117 OA 
HETATM   20  C   UNL     1      -9.781   6.489  68.625  1.00  0.00    -0.127 A  
HETATM   21  C   UNL     1      -9.979   7.342  67.538  1.00  0.00    -0.225 A  
HETATM   22  C   UNL     1      -9.850   6.962  69.929  1.00  0.00    -0.172 A  
HETATM   23  H   UNL     1      -9.382   4.583  69.189  1.00  0.00     0.000 HD 
HETATM   24  C   UNL     1     -10.127   8.306  70.143  1.00  0.00    -0.191 A  
HETATM   25  O   UNL     1     -10.213   8.827  71.399  1.00  0.00    -0.227 OA 
HETATM   26  C   UNL     1     -10.330   9.171  69.072  1.00  0.00    -0.229 A  
HETATM   27  H   UNL     1     -10.402   9.747  71.545  1.00  0.00     0.000 HD 
ENDBRANCH  15  18
ENDBRANCH  14  15
ENDBRANCH  12  14
ENDBRANCH   2  12
TORSDOF 6
ENDMDL
MODEL      316
REMARK 921   NORMALIZED FREE ENERGY PREDICTED BY IDOCK:   -3.92 KCAL/MOL
REMARK 922        TOTAL FREE ENERGY PREDICTED BY IDOCK:   -5.91 KCAL/MOL
REMARK 923 INTER-LIGAND FREE ENERGY PREDICTED BY IDOCK:   -5.37 KCAL/MOL
REMARK 924 INTRA-LIGAND FREE ENERGY PREDICTED BY IDOCK:   -0.54 KCAL/MOL
REMARK 927      BINDING AFFINITY PREDICTED BY RF-SCORE:    0.00 PKD
ROOT
HETATM    1  C   UNL     1     -10.557   9.396  71.066  1.00  0.00    -0.400 C  
HETATM    2  C   UNL     1     -10.171   9.181  69.596  1.00  0.00    -0.203 C  
ENDROOT
BRANCH   2   3
HETATM    3  C   UNL     1      -9.461  10.464  69.087  1.00  0.00    -0.220 C  
BRANCH   3   4
HETATM    4  C   UNL     1     -10.306  11.353  68.202  1.00  0.00    -0.206 A  
HETATM    5  C   UNL     1     -11.088  11.965  65.985  1.00  0.00    -0.369 A  
HETATM    6  H   UNL     1     -12.665  13.538  64.765  1.00  0.00     0.000 HD 
HETATM    7  C   UNL     1     -11.114  12.360  68.749  1.00  0.00    -0.307 A  
HETATM    8  C   UNL     1     -10.296  11.169  66.811  1.00  0.00    -0.284 A  
HETATM    9  C   UNL     1     -11.907  13.159  67.921  1.00  0.00    -0.390 A  
HETATM   10  O   UNL     1     -12.674  13.684  65.704  1.00  0.00    -0.495 OA 
HETATM   11  C   UNL     1     -11.894  12.947  66.545  1.00  0.00    -0.407 A  
ENDBRANCH   3   4
ENDBRANCH   2   3
BRANCH   2  12
HETATM   12  N   UNL     1      -9.318   7.996  69.419  1.00  0.00    -0.155 NA 
HETATM   13  H   UNL     1      -8.339   8.270  69.342  1.00  0.00     0.000 HD 
BRANCH  12  14
HETATM   14  C   UNL     1      -9.484   6.973  70.457  1.00  0.00    -0.166 C  
BRANCH  14  15
HETATM   15  C   UNL     1     -10.312   5.762  69.954  1.00  0.00    -0.262 C  
HETATM   16  H   UNL     1     -11.996   5.473  68.962  1.00  0.00     0.000 HD 
HETATM   17  O   UNL     1     -11.489   6.215  69.270  1.00  0.00    -0.404 OA 
BRANCH  15  18
HETATM   18  C   UNL     1      -9.501   4.878  69.025  1.00  0.00    -0.205 A  
HETATM   19  O   UNL     1      -6.185   3.288  68.833  1.00  0.00    -0.027 OA 
HETATM   20  C   UNL     1      -7.449   3.689  68.512  1.00  0.00    -0.054 A  
HETATM   21  C   UNL     1      -8.209   4.467  69.387  1.00  0.00    -0.071 A  
HETATM   22  C   UNL     1      -7.953   3.296  67.279  1.00  0.00    -0.078 A  
HETATM   23  H   UNL     1      -5.668   2.759  68.238  1.00  0.00     0.000 HD 
HETATM   24  C   UNL     1      -9.233   3.694  66.919  1.00  0.00    -0.184 A  
HETATM   25  O   UNL     1      -9.781   3.345  65.721  1.00  0.00    -0.352 OA 
HETATM   26  C   UNL     1     -10.005   4.473  67.776  1.00  0.00    -0.126 A  
HETATM   27  H   UNL     1     -10.657   3.618  65.475  1.00  0.00     0.000 HD 
ENDBRANCH  15  18
ENDBRANCH  14  15
ENDBRANCH  12  14
ENDBRANCH   2  12
TORSDOF 6
ENDMDL
MODEL      317
REMARK 921   NORMALIZED FREE ENERGY PREDICTED BY IDOCK:   -3.91 KCAL/MOL
REMARK 922        TOTAL FREE ENERGY PREDICTED BY IDOCK:   -5.89 KCAL/MOL
REMARK 923 INTER-LIGAND FREE ENERGY PREDICTED BY IDOCK:   -3.88 KCAL/MOL
REMARK 924 INTRA-LIGAND FREE ENERGY PREDICTED BY IDOCK:   -2.01 KCAL/MOL
REMARK 927      BINDING AFFINITY PREDICTED BY RF-SCORE:    0.00 PKD
ROOT
HETATM    1  C   UNL     1      -7.670   4.887  64.431  1.00  0.00    -0.083 C  
HETATM    2  C   UNL     1      -7.740   5.652  65.759  1.00  0.00    -0.088 C  
ENDROOT
BRANCH   2   3
HETATM    3  C   UNL     1      -9.163   6.258  65.898  1.00  0.00    -0.050 C  
BRANCH   3   4
HETATM    4  C   UNL     1      -9.224   7.584  66.620  1.00  0.00    -0.201 A  
HETATM    5  C   UNL     1      -8.084   9.419  67.731  1.00  0.00    -0.107 A  
HETATM    6  H   UNL     1      -8.484  11.677  68.824  1.00  0.00     0.000 HD 
HETATM    7  C   UNL     1     -10.447   8.237  66.830  1.00  0.00    -0.365 A  
HETATM    8  C   UNL     1      -8.045   8.185  67.084  1.00  0.00    -0.116 A  
HETATM    9  C   UNL     1     -10.488   9.474  67.480  1.00  0.00    -0.336 A  
HETATM   10  O   UNL     1      -9.293  11.277  68.527  1.00  0.00    -0.176 OA 
HETATM   11  C   UNL     1      -9.303  10.059  67.915  1.00  0.00    -0.140 A  
ENDBRANCH   3   4
ENDBRANCH   2   3
BRANCH   2  12
HETATM   12  N   UNL     1      -7.415   4.791  66.907  1.00  0.00    -0.085 NA 
HETATM   13  H   UNL     1      -7.165   5.357  67.718  1.00  0.00     0.000 HD 
BRANCH  12  14
HETATM   14  C   UNL     1      -8.466   3.831  67.258  1.00  0.00    -0.100 C  
BRANCH  14  15
HETATM   15  C   UNL     1      -8.628   3.681  68.793  1.00  0.00    -0.086 C  
HETATM   16  H   UNL     1      -7.496   3.152  70.323  1.00  0.00     0.000 HD 
HETATM   17  O   UNL     1      -7.397   3.243  69.383  1.00  0.00    -0.048 OA 
BRANCH  15  18
HETATM   18  C   UNL     1      -9.059   4.985  69.439  1.00  0.00    -0.143 A  
HETATM   19  O   UNL     1      -7.609   7.847  71.246  1.00  0.00    -0.075 OA 
HETATM   20  C   UNL     1      -8.511   7.012  70.655  1.00  0.00    -0.139 A  
HETATM   21  C   UNL     1      -8.107   5.833  70.025  1.00  0.00    -0.108 A  
HETATM   22  C   UNL     1      -9.851   7.376  70.705  1.00  0.00    -0.179 A  
HETATM   23  H   UNL     1      -7.884   8.649  71.674  1.00  0.00     0.000 HD 
HETATM   24  C   UNL     1     -10.795   6.543  70.120  1.00  0.00    -0.282 A  
HETATM   25  O   UNL     1     -12.124   6.843  70.141  1.00  0.00    -0.627 OA 
HETATM   26  C   UNL     1     -10.412   5.362  69.491  1.00  0.00    -0.343 A  
HETATM   27  H   UNL     1     -12.771   6.273  69.742  1.00  0.00     0.000 HD 
ENDBRANCH  15  18
ENDBRANCH  14  15
ENDBRANCH  12  14
ENDBRANCH   2  12
TORSDOF 6
ENDMDL
MODEL      318
REMARK 921   NORMALIZED FREE ENERGY PREDICTED BY IDOCK:   -3.88 KCAL/MOL
REMARK 922        TOTAL FREE ENERGY PREDICTED BY IDOCK:   -5.85 KCAL/MOL
REMARK 923 INTER-LIGAND FREE ENERGY PREDICTED BY IDOCK:   -5.02 KCAL/MOL
REMARK 924 INTRA-LIGAND FREE ENERGY PREDICTED BY IDOCK:   -0.83 KCAL/MOL
REMARK 927      BINDING AFFINITY PREDICTED BY RF-SCORE:    0.00 PKD
ROOT
HETATM    1  C   UNL     1      -8.953   8.226  66.004  1.00  0.00    -0.224 C  
HETATM    2  C   UNL     1      -9.985   8.530  67.098  1.00  0.00    -0.238 C  
ENDROOT
BRANCH   2   3
HETATM    3  C   UNL     1     -10.846   9.736  66.634  1.00  0.00    -0.011 C  
BRANCH   3   4
HETATM    4  C   UNL     1     -11.191  10.730  67.720  1.00  0.00    -0.385 A  
HETATM    5  C   UNL     1     -11.820  12.983  68.375  1.00  0.00    -0.370 A  
HETATM    6  H   UNL     1     -12.451  14.397  70.388  1.00  0.00     0.000 HD 
HETATM    7  C   UNL     1     -11.242  10.340  69.066  1.00  0.00    -0.260 A  
HETATM    8  C   UNL     1     -11.476  12.062  67.386  1.00  0.00    -0.406 A  
HETATM    9  C   UNL     1     -11.585  11.264  70.058  1.00  0.00    -0.404 A  
HETATM   10  O   UNL     1     -12.248  13.502  70.632  1.00  0.00    -0.351 OA 
HETATM   11  C   UNL     1     -11.881  12.576  69.701  1.00  0.00    -0.314 A  
ENDBRANCH   3   4
ENDBRANCH   2   3
BRANCH   2  12
HETATM   12  N   UNL     1     -10.827   7.362  67.399  1.00  0.00    -0.510 NA 
HETATM   13  H   UNL     1     -11.522   7.224  66.665  1.00  0.00     0.000 HD 
BRANCH  12  14
HETATM   14  C   UNL     1     -10.077   6.122  67.633  1.00  0.00    -0.155 C  
BRANCH  14  15
HETATM   15  C   UNL     1     -10.342   5.540  69.046  1.00  0.00    -0.233 C  
HETATM   16  H   UNL     1     -10.291   3.766  69.913  1.00  0.00     0.000 HD 
HETATM   17  O   UNL     1     -10.130   4.122  69.047  1.00  0.00    -0.014 OA 
BRANCH  15  18
HETATM   18  C   UNL     1      -9.448   6.183  70.090  1.00  0.00    -0.177 A  
HETATM   19  O   UNL     1      -6.377   5.470  71.993  1.00  0.00    -0.043 OA 
HETATM   20  C   UNL     1      -7.495   6.098  71.529  1.00  0.00    -0.094 A  
HETATM   21  C   UNL     1      -8.293   5.522  70.538  1.00  0.00    -0.116 A  
HETATM   22  C   UNL     1      -7.815   7.331  72.082  1.00  0.00    -0.092 A  
HETATM   23  H   UNL     1      -5.834   5.862  72.667  1.00  0.00     0.000 HD 
HETATM   24  C   UNL     1      -8.953   7.991  71.637  1.00  0.00    -0.150 A  
HETATM   25  O   UNL     1      -9.322   9.201  72.144  1.00  0.00    -0.300 OA 
HETATM   26  C   UNL     1      -9.763   7.433  70.653  1.00  0.00    -0.175 A  
HETATM   27  H   UNL     1     -10.100   9.653  71.840  1.00  0.00     0.000 HD 
ENDBRANCH  15  18
ENDBRANCH  14  15
ENDBRANCH  12  14
ENDBRANCH   2  12
TORSDOF 6
ENDMDL
MODEL      319
REMARK 921   NORMALIZED FREE ENERGY PREDICTED BY IDOCK:   -3.86 KCAL/MOL
REMARK 922        TOTAL FREE ENERGY PREDICTED BY IDOCK:   -5.82 KCAL/MOL
REMARK 923 INTER-LIGAND FREE ENERGY PREDICTED BY IDOCK:   -5.66 KCAL/MOL
REMARK 924 INTRA-LIGAND FREE ENERGY PREDICTED BY IDOCK:   -0.17 KCAL/MOL
REMARK 927      BINDING AFFINITY PREDICTED BY RF-SCORE:    0.00 PKD
ROOT
HETATM    1  C   UNL     1      -9.603  14.406  66.983  1.00  0.00    -0.251 C  
HETATM    2  C   UNL     1      -9.892  13.879  68.396  1.00  0.00    -0.229 C  
ENDROOT
BRANCH   2   3
HETATM    3  C   UNL     1     -11.431  13.803  68.582  1.00  0.00    -0.336 C  
BRANCH   3   4
HETATM    4  C   UNL     1     -11.952  14.430  69.855  1.00  0.00    -0.391 A  
HETATM    5  C   UNL     1     -13.415  14.330  71.792  1.00  0.00    -0.464 A  
HETATM    6  H   UNL     1     -14.031  15.570  73.921  1.00  0.00     0.000 HD 
HETATM    7  C   UNL     1     -11.454  15.657  70.313  1.00  0.00    -0.361 A  
HETATM    8  C   UNL     1     -12.943  13.776  70.603  1.00  0.00    -0.176 A  
HETATM    9  C   UNL     1     -11.928  16.214  71.504  1.00  0.00    -0.490 A  
HETATM   10  O   UNL     1     -13.369  16.031  73.420  1.00  0.00    -0.579 OA 
HETATM   11  C   UNL     1     -12.899  15.539  72.238  1.00  0.00    -0.406 A  
ENDBRANCH   3   4
ENDBRANCH   2   3
BRANCH   2  12
HETATM   12  N   UNL     1      -9.262  12.571  68.634  1.00  0.00    -0.397 NA 
HETATM   13  H   UNL     1      -9.363  12.299  69.612  1.00  0.00     0.000 HD 
BRANCH  12  14
HETATM   14  C   UNL     1      -9.743  11.501  67.753  1.00  0.00    -0.174 C  
BRANCH  14  15
HETATM   15  C   UNL     1     -10.256  10.275  68.553  1.00  0.00    -0.172 C  
HETATM   16  H   UNL     1     -11.065   8.519  68.149  1.00  0.00     0.000 HD 
HETATM   17  O   UNL     1     -10.751   9.270  67.659  1.00  0.00    -0.269 OA 
BRANCH  15  18
HETATM   18  C   UNL     1      -9.163   9.680  69.422  1.00  0.00    -0.196 A  
HETATM   19  O   UNL     1      -5.507   9.815  69.838  1.00  0.00    -0.036 OA 
HETATM   20  C   UNL     1      -6.817   9.477  70.009  1.00  0.00    -0.075 A  
HETATM   21  C   UNL     1      -7.825  10.058  69.236  1.00  0.00    -0.125 A  
HETATM   22  C   UNL     1      -7.114   8.530  70.980  1.00  0.00    -0.068 A  
HETATM   23  H   UNL     1      -4.822   9.420  70.365  1.00  0.00     0.000 HD 
HETATM   24  C   UNL     1      -8.438   8.158  71.173  1.00  0.00    -0.128 A  
HETATM   25  O   UNL     1      -8.792   7.230  72.106  1.00  0.00    -0.126 OA 
HETATM   26  C   UNL     1      -9.456   8.722  70.410  1.00  0.00    -0.206 A  
HETATM   27  H   UNL     1      -9.698   6.975  72.237  1.00  0.00     0.000 HD 
ENDBRANCH  15  18
ENDBRANCH  14  15
ENDBRANCH  12  14
ENDBRANCH   2  12
TORSDOF 6
ENDMDL
MODEL      320
REMARK 921   NORMALIZED FREE ENERGY PREDICTED BY IDOCK:   -3.85 KCAL/MOL
REMARK 922        TOTAL FREE ENERGY PREDICTED BY IDOCK:   -5.81 KCAL/MOL
REMARK 923 INTER-LIGAND FREE ENERGY PREDICTED BY IDOCK:   -4.95 KCAL/MOL
REMARK 924 INTRA-LIGAND FREE ENERGY PREDICTED BY IDOCK:   -0.85 KCAL/MOL
REMARK 927      BINDING AFFINITY PREDICTED BY RF-SCORE:    0.00 PKD
ROOT
HETATM    1  C   UNL     1      -5.769   7.064  63.419  1.00  0.00    -0.036 C  
HETATM    2  C   UNL     1      -7.074   7.639  63.986  1.00  0.00    -0.068 C  
ENDROOT
BRANCH   2   3
HETATM    3  C   UNL     1      -7.581   8.741  63.017  1.00  0.00    -0.108 C  
BRANCH   3   4
HETATM    4  C   UNL     1      -8.555   9.725  63.623  1.00  0.00    -0.207 A  
HETATM    5  C   UNL     1      -9.722  10.588  65.571  1.00  0.00    -0.298 A  
HETATM    6  H   UNL     1     -11.318  12.415  66.322  1.00  0.00     0.000 HD 
HETATM    7  C   UNL     1      -9.174  10.707  62.836  1.00  0.00    -0.317 A  
HETATM    8  C   UNL     1      -8.844   9.671  64.994  1.00  0.00    -0.221 A  
HETATM    9  C   UNL     1     -10.055  11.626  63.413  1.00  0.00    -0.468 A  
HETATM   10  O   UNL     1     -11.143  12.457  65.389  1.00  0.00    -0.288 OA 
HETATM   11  C   UNL     1     -10.313  11.563  64.780  1.00  0.00    -0.289 A  
ENDBRANCH   3   4
ENDBRANCH   2   3
BRANCH   2  12
HETATM   12  N   UNL     1      -8.093   6.597  64.187  1.00  0.00    -0.267 NA 
HETATM   13  H   UNL     1      -8.006   5.872  63.475  1.00  0.00     0.000 HD 
BRANCH  12  14
HETATM   14  C   UNL     1      -8.090   6.001  65.527  1.00  0.00    -0.133 C  
BRANCH  14  15
HETATM   15  C   UNL     1      -9.525   5.823  66.088  1.00  0.00    -0.124 C  
HETATM   16  H   UNL     1     -10.707   4.321  66.587  1.00  0.00     0.000 HD 
HETATM   17  O   UNL     1      -9.828   4.430  66.243  1.00  0.00    -0.195 OA 
BRANCH  15  18
HETATM   18  C   UNL     1      -9.693   6.526  67.422  1.00  0.00    -0.150 A  
HETATM   19  O   UNL     1     -12.107   6.771  70.192  1.00  0.00    -0.631 OA 
HETATM   20  C   UNL     1     -11.003   6.970  69.416  1.00  0.00    -0.201 A  
HETATM   21  C   UNL     1     -10.831   6.290  68.209  1.00  0.00    -0.397 A  
HETATM   22  C   UNL     1     -10.055   7.878  69.869  1.00  0.00    -0.197 A  
HETATM   23  H   UNL     1     -12.223   7.233  71.014  1.00  0.00     0.000 HD 
HETATM   24  C   UNL     1      -8.925   8.110  69.098  1.00  0.00    -0.144 A  
HETATM   25  O   UNL     1      -7.962   8.993  69.486  1.00  0.00    -0.093 OA 
HETATM   26  C   UNL     1      -8.737   7.445  67.890  1.00  0.00    -0.123 A  
HETATM   27  H   UNL     1      -7.189   9.152  68.958  1.00  0.00     0.000 HD 
ENDBRANCH  15  18
ENDBRANCH  14  15
ENDBRANCH  12  14
ENDBRANCH   2  12
TORSDOF 6
ENDMDL
MODEL      321
REMARK 921   NORMALIZED FREE ENERGY PREDICTED BY IDOCK:   -3.84 KCAL/MOL
REMARK 922        TOTAL FREE ENERGY PREDICTED BY IDOCK:   -5.80 KCAL/MOL
REMARK 923 INTER-LIGAND FREE ENERGY PREDICTED BY IDOCK:   -3.99 KCAL/MOL
REMARK 924 INTRA-LIGAND FREE ENERGY PREDICTED BY IDOCK:   -1.81 KCAL/MOL
REMARK 927      BINDING AFFINITY PREDICTED BY RF-SCORE:    0.00 PKD
ROOT
HETATM    1  C   UNL     1      -9.384   3.426  65.556  1.00  0.00    -0.150 C  
HETATM    2  C   UNL     1      -9.424   4.155  66.907  1.00  0.00    -0.191 C  
ENDROOT
BRANCH   2   3
HETATM    3  C   UNL     1     -10.602   5.165  66.880  1.00  0.00    -0.234 C  
BRANCH   3   4
HETATM    4  C   UNL     1     -10.394   6.411  67.711  1.00  0.00    -0.238 A  
HETATM    5  C   UNL     1     -11.000   7.776  69.626  1.00  0.00    -0.128 A  
HETATM    6  H   UNL     1     -10.367   9.895  70.875  1.00  0.00     0.000 HD 
HETATM    7  C   UNL     1      -9.400   7.342  67.380  1.00  0.00    -0.154 A  
HETATM    8  C   UNL     1     -11.197   6.644  68.837  1.00  0.00    -0.273 A  
HETATM    9  C   UNL     1      -9.203   8.479  68.170  1.00  0.00    -0.142 A  
HETATM   10  O   UNL     1      -9.823   9.759  70.108  1.00  0.00    -0.240 OA 
HETATM   11  C   UNL     1     -10.000   8.679  69.293  1.00  0.00    -0.195 A  
ENDBRANCH   3   4
ENDBRANCH   2   3
BRANCH   2  12
HETATM   12  N   UNL     1      -9.554   3.217  68.033  1.00  0.00    -0.148 NA 
HETATM   13  H   UNL     1      -9.372   2.262  67.725  1.00  0.00     0.000 HD 
BRANCH  12  14
HETATM   14  C   UNL     1      -8.720   3.548  69.193  1.00  0.00    -0.089 C  
BRANCH  14  15
HETATM   15  C   UNL     1      -9.539   3.575  70.510  1.00  0.00    -0.176 C  
HETATM   16  H   UNL     1      -9.674   2.486  72.152  1.00  0.00     0.000 HD 
HETATM   17  O   UNL     1      -9.173   2.469  71.346  1.00  0.00    -0.093 OA 
BRANCH  15  18
HETATM   18  C   UNL     1      -9.327   4.871  71.271  1.00  0.00    -0.202 A  
HETATM   19  O   UNL     1      -6.858   7.584  71.584  1.00  0.00    -0.052 OA 
HETATM   20  C   UNL     1      -7.970   6.818  71.775  1.00  0.00    -0.101 A  
HETATM   21  C   UNL     1      -8.182   5.649  71.043  1.00  0.00    -0.121 A  
HETATM   22  C   UNL     1      -8.885   7.243  72.730  1.00  0.00    -0.156 A  
HETATM   23  H   UNL     1      -6.715   8.380  72.082  1.00  0.00     0.000 HD 
HETATM   24  C   UNL     1     -10.023   6.480  72.954  1.00  0.00    -0.174 A  
HETATM   25  O   UNL     1     -10.955   6.842  73.881  1.00  0.00    -0.480 OA 
HETATM   26  C   UNL     1     -10.250   5.309  72.237  1.00  0.00    -0.250 A  
HETATM   27  H   UNL     1     -11.734   6.320  74.035  1.00  0.00     0.000 HD 
ENDBRANCH  15  18
ENDBRANCH  14  15
ENDBRANCH  12  14
ENDBRANCH   2  12
TORSDOF 6
ENDMDL
MODEL      322
REMARK 921   NORMALIZED FREE ENERGY PREDICTED BY IDOCK:   -3.84 KCAL/MOL
REMARK 922        TOTAL FREE ENERGY PREDICTED BY IDOCK:   -5.80 KCAL/MOL
REMARK 923 INTER-LIGAND FREE ENERGY PREDICTED BY IDOCK:   -5.68 KCAL/MOL
REMARK 924 INTRA-LIGAND FREE ENERGY PREDICTED BY IDOCK:   -0.11 KCAL/MOL
REMARK 927      BINDING AFFINITY PREDICTED BY RF-SCORE:    0.00 PKD
ROOT
HETATM    1  C   UNL     1     -10.762   9.605  67.611  1.00  0.00    -0.324 C  
HETATM    2  C   UNL     1     -10.617   9.534  69.137  1.00  0.00    -0.222 C  
ENDROOT
BRANCH   2   3
HETATM    3  C   UNL     1     -11.134  10.870  69.737  1.00  0.00    -0.328 C  
BRANCH   3   4
HETATM    4  C   UNL     1     -10.933  12.084  68.860  1.00  0.00    -0.277 A  
HETATM    5  C   UNL     1     -11.808  14.126  67.878  1.00  0.00    -0.405 A  
HETATM    6  H   UNL     1     -11.157  16.110  66.433  1.00  0.00     0.000 HD 
HETATM    7  C   UNL     1      -9.701  12.331  68.238  1.00  0.00    -0.219 A  
HETATM    8  C   UNL     1     -11.986  12.989  68.665  1.00  0.00    -0.298 A  
HETATM    9  C   UNL     1      -9.522  13.469  67.447  1.00  0.00    -0.225 A  
HETATM   10  O   UNL     1     -10.437  15.500  66.544  1.00  0.00    -0.287 OA 
HETATM   11  C   UNL     1     -10.576  14.363  67.283  1.00  0.00    -0.279 A  
ENDBRANCH   3   4
ENDBRANCH   2   3
BRANCH   2  12
HETATM   12  N   UNL     1     -11.337   8.383  69.704  1.00  0.00    -0.430 NA 
HETATM   13  H   UNL     1     -12.005   8.013  69.028  1.00  0.00     0.000 HD 
BRANCH  12  14
HETATM   14  C   UNL     1     -10.466   7.313  70.202  1.00  0.00    -0.218 C  
BRANCH  14  15
HETATM   15  C   UNL     1      -9.249   7.072  69.271  1.00  0.00    -0.139 C  
HETATM   16  H   UNL     1      -7.311   6.751  69.477  1.00  0.00     0.000 HD 
HETATM   17  O   UNL     1      -8.057   6.898  70.047  1.00  0.00    -0.120 OA 
BRANCH  15  18
HETATM   18  C   UNL     1      -9.455   5.856  68.387  1.00  0.00    -0.130 A  
HETATM   19  O   UNL     1      -8.122   2.456  67.917  1.00  0.00    -0.062 OA 
HETATM   20  C   UNL     1      -8.858   3.592  67.750  1.00  0.00    -0.118 A  
HETATM   21  C   UNL     1      -8.696   4.694  68.591  1.00  0.00    -0.115 A  
HETATM   22  C   UNL     1      -9.775   3.615  66.707  1.00  0.00    -0.098 A  
HETATM   23  H   UNL     1      -8.233   1.707  67.345  1.00  0.00     0.000 HD 
HETATM   24  C   UNL     1     -10.533   4.760  66.504  1.00  0.00    -0.204 A  
HETATM   25  O   UNL     1     -11.445   4.845  65.495  1.00  0.00    -0.914 OA 
HETATM   26  C   UNL     1     -10.383   5.870  67.330  1.00  0.00    -0.274 A  
HETATM   27  H   UNL     1     -11.963   5.629  65.356  1.00  0.00     0.000 HD 
ENDBRANCH  15  18
ENDBRANCH  14  15
ENDBRANCH  12  14
ENDBRANCH   2  12
TORSDOF 6
ENDMDL
MODEL      323
REMARK 921   NORMALIZED FREE ENERGY PREDICTED BY IDOCK:   -3.81 KCAL/MOL
REMARK 922        TOTAL FREE ENERGY PREDICTED BY IDOCK:   -5.75 KCAL/MOL
REMARK 923 INTER-LIGAND FREE ENERGY PREDICTED BY IDOCK:   -5.23 KCAL/MOL
REMARK 924 INTRA-LIGAND FREE ENERGY PREDICTED BY IDOCK:   -0.52 KCAL/MOL
REMARK 927      BINDING AFFINITY PREDICTED BY RF-SCORE:    0.00 PKD
ROOT
HETATM    1  C   UNL     1     -10.622  10.158  66.502  1.00  0.00    -0.179 C  
HETATM    2  C   UNL     1     -10.459  10.905  67.833  1.00  0.00    -0.195 C  
ENDROOT
BRANCH   2   3
HETATM    3  C   UNL     1     -11.614  11.935  67.956  1.00  0.00    -0.401 C  
BRANCH   3   4
HETATM    4  C   UNL     1     -11.174  13.364  68.179  1.00  0.00    -0.304 A  
HETATM    5  C   UNL     1     -11.702  15.638  68.852  1.00  0.00    -0.396 A  
HETATM    6  H   UNL     1     -10.662  17.925  69.222  1.00  0.00     0.000 HD 
HETATM    7  C   UNL     1      -9.845  13.753  67.960  1.00  0.00    -0.239 A  
HETATM    8  C   UNL     1     -12.099  14.322  68.619  1.00  0.00    -0.295 A  
HETATM    9  C   UNL     1      -9.446  15.073  68.191  1.00  0.00    -0.196 A  
HETATM   10  O   UNL     1     -10.026  17.292  68.911  1.00  0.00    -0.296 OA 
HETATM   11  C   UNL     1     -10.378  16.002  68.645  1.00  0.00    -0.241 A  
ENDBRANCH   3   4
ENDBRANCH   2   3
BRANCH   2  12
HETATM   12  N   UNL     1     -10.442   9.985  68.981  1.00  0.00    -0.202 NA 
HETATM   13  H   UNL     1     -11.288   9.417  68.995  1.00  0.00     0.000 HD 
BRANCH  12  14
HETATM   14  C   UNL     1      -9.251   9.131  69.051  1.00  0.00    -0.143 C  
BRANCH  14  15
HETATM   15  C   UNL     1      -8.957   8.663  70.500  1.00  0.00    -0.164 C  
HETATM   16  H   UNL     1      -9.329   9.302  72.331  1.00  0.00     0.000 HD 
HETATM   17  O   UNL     1      -9.509   9.589  71.444  1.00  0.00    -0.224 OA 
BRANCH  15  18
HETATM   18  C   UNL     1      -9.522   7.279  70.764  1.00  0.00    -0.164 A  
HETATM   19  O   UNL     1      -9.595   3.928  69.240  1.00  0.00    -0.183 OA 
HETATM   20  C   UNL     1      -9.819   4.965  70.097  1.00  0.00    -0.239 A  
HETATM   21  C   UNL     1      -9.263   6.226  69.874  1.00  0.00    -0.155 A  
HETATM   22  C   UNL     1     -10.625   4.722  71.202  1.00  0.00    -0.030 A  
HETATM   23  H   UNL     1      -9.974   3.070  69.392  1.00  0.00     0.000 HD 
HETATM   24  C   UNL     1     -10.878   5.759  72.089  1.00  0.00    -0.244 A  
HETATM   25  O   UNL     1     -11.665   5.584  73.189  1.00  0.00    -0.529 OA 
HETATM   26  C   UNL     1     -10.336   7.024  71.882  1.00  0.00    -0.213 A  
HETATM   27  H   UNL     1     -11.839   6.294  73.795  1.00  0.00     0.000 HD 
ENDBRANCH  15  18
ENDBRANCH  14  15
ENDBRANCH  12  14
ENDBRANCH   2  12
TORSDOF 6
ENDMDL
MODEL      324
REMARK 921   NORMALIZED FREE ENERGY PREDICTED BY IDOCK:   -3.79 KCAL/MOL
REMARK 922        TOTAL FREE ENERGY PREDICTED BY IDOCK:   -5.73 KCAL/MOL
REMARK 923 INTER-LIGAND FREE ENERGY PREDICTED BY IDOCK:   -5.23 KCAL/MOL
REMARK 924 INTRA-LIGAND FREE ENERGY PREDICTED BY IDOCK:   -0.50 KCAL/MOL
REMARK 927      BINDING AFFINITY PREDICTED BY RF-SCORE:    0.00 PKD
ROOT
HETATM    1  C   UNL     1     -12.172  14.064  67.021  1.00  0.00    -0.387 C  
HETATM    2  C   UNL     1     -12.128  13.507  65.591  1.00  0.00    -0.430 C  
ENDROOT
BRANCH   2   3
HETATM    3  C   UNL     1     -10.860  14.065  64.891  1.00  0.00    -0.421 C  
BRANCH   3   4
HETATM    4  C   UNL     1     -10.385  15.406  65.403  1.00  0.00    -0.422 A  
HETATM    5  C   UNL     1     -10.714  17.803  65.613  1.00  0.00    -0.064 A  
HETATM    6  H   UNL     1      -9.728  19.890  66.673  1.00  0.00     0.000 HD 
HETATM    7  C   UNL     1      -9.213  15.515  66.165  1.00  0.00    -0.379 A  
HETATM    8  C   UNL     1     -11.127  16.564  65.127  1.00  0.00    -0.134 A  
HETATM    9  C   UNL     1      -8.798  16.758  66.652  1.00  0.00    -0.286 A  
HETATM   10  O   UNL     1      -9.208  19.117  66.859  1.00  0.00    -0.291 OA 
HETATM   11  C   UNL     1      -9.560  17.890  66.379  1.00  0.00    -0.286 A  
ENDBRANCH   3   4
ENDBRANCH   2   3
BRANCH   2  12
HETATM   12  N   UNL     1     -12.140  12.036  65.575  1.00  0.00    -0.447 NA 
HETATM   13  H   UNL     1     -12.873  11.693  64.953  1.00  0.00     0.000 HD 
BRANCH  12  14
HETATM   14  C   UNL     1     -10.851  11.425  65.232  1.00  0.00    -0.233 C  
BRANCH  14  15
HETATM   15  C   UNL     1      -9.986  11.148  66.490  1.00  0.00    -0.214 C  
HETATM   16  H   UNL     1      -9.945   9.823  67.954  1.00  0.00     0.000 HD 
HETATM   17  O   UNL     1     -10.475   9.993  67.184  1.00  0.00    -0.227 OA 
BRANCH  15  18
HETATM   18  C   UNL     1      -8.528  10.937  66.128  1.00  0.00    -0.171 A  
HETATM   19  O   UNL     1      -5.166  11.721  67.410  1.00  0.00    -0.060 OA 
HETATM   20  C   UNL     1      -6.172  11.254  66.616  1.00  0.00    -0.141 A  
HETATM   21  C   UNL     1      -7.512  11.413  66.972  1.00  0.00    -0.147 A  
HETATM   22  C   UNL     1      -5.814  10.617  65.434  1.00  0.00    -0.118 A  
HETATM   23  H   UNL     1      -4.254  11.612  67.167  1.00  0.00     0.000 HD 
HETATM   24  C   UNL     1      -6.815  10.140  64.600  1.00  0.00    -0.117 A  
HETATM   25  O   UNL     1      -6.527   9.511  63.425  1.00  0.00    -0.096 OA 
HETATM   26  C   UNL     1      -8.157  10.291  64.936  1.00  0.00    -0.154 A  
HETATM   27  H   UNL     1      -7.212   9.184  62.853  1.00  0.00     0.000 HD 
ENDBRANCH  15  18
ENDBRANCH  14  15
ENDBRANCH  12  14
ENDBRANCH   2  12
TORSDOF 6
ENDMDL
MODEL      325
REMARK 921   NORMALIZED FREE ENERGY PREDICTED BY IDOCK:   -3.79 KCAL/MOL
REMARK 922        TOTAL FREE ENERGY PREDICTED BY IDOCK:   -5.73 KCAL/MOL
REMARK 923 INTER-LIGAND FREE ENERGY PREDICTED BY IDOCK:   -5.31 KCAL/MOL
REMARK 924 INTRA-LIGAND FREE ENERGY PREDICTED BY IDOCK:   -0.42 KCAL/MOL
REMARK 927      BINDING AFFINITY PREDICTED BY RF-SCORE:    0.00 PKD
ROOT
HETATM    1  C   UNL     1      -7.756  10.447  69.757  1.00  0.00    -0.126 C  
HETATM    2  C   UNL     1      -8.484   9.313  69.022  1.00  0.00    -0.132 C  
ENDROOT
BRANCH   2   3
HETATM    3  C   UNL     1      -7.904   7.961  69.518  1.00  0.00    -0.110 C  
BRANCH   3   4
HETATM    4  C   UNL     1      -7.881   6.858  68.485  1.00  0.00    -0.118 A  
HETATM    5  C   UNL     1      -9.059   5.165  67.202  1.00  0.00    -0.112 A  
HETATM    6  H   UNL     1      -8.737   3.433  65.372  1.00  0.00     0.000 HD 
HETATM    7  C   UNL     1      -6.695   6.515  67.820  1.00  0.00    -0.071 A  
HETATM    8  C   UNL     1      -9.060   6.168  68.171  1.00  0.00    -0.111 A  
HETATM    9  C   UNL     1      -6.692   5.509  66.850  1.00  0.00    -0.062 A  
HETATM   10  O   UNL     1      -7.927   3.882  65.583  1.00  0.00    -0.092 OA 
HETATM   11  C   UNL     1      -7.878   4.850  66.542  1.00  0.00    -0.099 A  
ENDBRANCH   3   4
ENDBRANCH   2   3
BRANCH   2  12
HETATM   12  N   UNL     1      -9.940   9.373  69.224  1.00  0.00    -0.173 NA 
HETATM   13  H   UNL     1     -10.309   8.445  69.432  1.00  0.00     0.000 HD 
BRANCH  12  14
HETATM   14  C   UNL     1     -10.369  10.336  70.244  1.00  0.00    -0.090 C  
BRANCH  14  15
HETATM   15  C   UNL     1     -11.904  10.558  70.226  1.00  0.00    -0.331 C  
HETATM   16  H   UNL     1     -13.471   9.915  71.241  1.00  0.00     0.000 HD 
HETATM   17  O   UNL     1     -12.531   9.778  71.252  1.00  0.00    -0.319 OA 
BRANCH  15  18
HETATM   18  C   UNL     1     -12.258  12.021  70.419  1.00  0.00    -0.379 A  
HETATM   19  O   UNL     1     -11.937  15.250  68.679  1.00  0.00    -0.507 OA 
HETATM   20  C   UNL     1     -12.239  14.313  69.623  1.00  0.00    -0.323 A  
HETATM   21  C   UNL     1     -11.950  12.962  69.424  1.00  0.00    -0.327 A  
HETATM   22  C   UNL     1     -12.843  14.753  70.794  1.00  0.00    -0.418 A  
HETATM   23  H   UNL     1     -12.135  16.169  68.815  1.00  0.00     0.000 HD 
HETATM   24  C   UNL     1     -13.155  13.825  71.778  1.00  0.00    -0.379 A  
HETATM   25  O   UNL     1     -13.744  14.196  72.950  1.00  0.00    -0.658 OA 
HETATM   26  C   UNL     1     -12.872  12.474  71.600  1.00  0.00    -0.368 A  
HETATM   27  H   UNL     1     -13.957  13.560  73.624  1.00  0.00     0.000 HD 
ENDBRANCH  15  18
ENDBRANCH  14  15
ENDBRANCH  12  14
ENDBRANCH   2  12
TORSDOF 6
ENDMDL
MODEL      326
REMARK 921   NORMALIZED FREE ENERGY PREDICTED BY IDOCK:   -3.78 KCAL/MOL
REMARK 922        TOTAL FREE ENERGY PREDICTED BY IDOCK:   -5.71 KCAL/MOL
REMARK 923 INTER-LIGAND FREE ENERGY PREDICTED BY IDOCK:   -4.95 KCAL/MOL
REMARK 924 INTRA-LIGAND FREE ENERGY PREDICTED BY IDOCK:   -0.77 KCAL/MOL
REMARK 927      BINDING AFFINITY PREDICTED BY RF-SCORE:    0.00 PKD
ROOT
HETATM    1  C   UNL     1      -8.464   6.332  65.159  1.00  0.00    -0.087 C  
HETATM    2  C   UNL     1      -8.748   6.574  66.648  1.00  0.00    -0.128 C  
ENDROOT
BRANCH   2   3
HETATM    3  C   UNL     1     -10.202   7.100  66.787  1.00  0.00    -0.289 C  
BRANCH   3   4
HETATM    4  C   UNL     1     -10.323   8.589  67.018  1.00  0.00    -0.379 A  
HETATM    5  C   UNL     1     -10.012  10.864  66.224  1.00  0.00    -0.274 A  
HETATM    6  H   UNL     1     -10.419  13.292  66.848  1.00  0.00     0.000 HD 
HETATM    7  C   UNL     1     -10.877   9.094  68.203  1.00  0.00    -0.118 A  
HETATM    8  C   UNL     1      -9.885   9.489  66.035  1.00  0.00    -0.353 A  
HETATM    9  C   UNL     1     -11.003  10.473  68.394  1.00  0.00    -0.310 A  
HETATM   10  O   UNL     1     -10.709  12.697  67.529  1.00  0.00    -0.221 OA 
HETATM   11  C   UNL     1     -10.578  11.346  67.397  1.00  0.00    -0.218 A  
ENDBRANCH   3   4
ENDBRANCH   2   3
BRANCH   2  12
HETATM   12  N   UNL     1      -8.544   5.358  67.451  1.00  0.00    -0.109 NA 
HETATM   13  H   UNL     1      -7.597   5.334  67.827  1.00  0.00     0.000 HD 
BRANCH  12  14
HETATM   14  C   UNL     1      -9.526   5.172  68.525  1.00  0.00    -0.133 C  
BRANCH  14  15
HETATM   15  C   UNL     1      -8.847   4.898  69.893  1.00  0.00    -0.094 C  
HETATM   16  H   UNL     1      -7.322   5.617  70.921  1.00  0.00     0.000 HD 
HETATM   17  O   UNL     1      -7.737   5.785  70.083  1.00  0.00    -0.083 OA 
BRANCH  15  18
HETATM   18  C   UNL     1      -9.823   5.060  71.043  1.00  0.00    -0.266 A  
HETATM   19  O   UNL     1     -10.679   3.481  74.257  1.00  0.00    -0.199 OA 
HETATM   20  C   UNL     1     -10.698   4.320  73.181  1.00  0.00    -0.205 A  
HETATM   21  C   UNL     1      -9.771   4.194  72.145  1.00  0.00    -0.225 A  
HETATM   22  C   UNL     1     -11.677   5.304  73.153  1.00  0.00    -0.153 A  
HETATM   23  H   UNL     1     -11.309   3.567  74.962  1.00  0.00     0.000 HD 
HETATM   24  C   UNL     1     -11.729   6.168  72.067  1.00  0.00    -0.299 A  
HETATM   25  O   UNL     1     -12.669   7.151  71.979  1.00  0.00    -0.458 OA 
HETATM   26  C   UNL     1     -10.816   6.056  71.023  1.00  0.00    -0.345 A  
HETATM   27  H   UNL     1     -12.705   7.741  71.236  1.00  0.00     0.000 HD 
ENDBRANCH  15  18
ENDBRANCH  14  15
ENDBRANCH  12  14
ENDBRANCH   2  12
TORSDOF 6
ENDMDL
MODEL      327
REMARK 921   NORMALIZED FREE ENERGY PREDICTED BY IDOCK:   -3.77 KCAL/MOL
REMARK 922        TOTAL FREE ENERGY PREDICTED BY IDOCK:   -5.70 KCAL/MOL
REMARK 923 INTER-LIGAND FREE ENERGY PREDICTED BY IDOCK:   -4.43 KCAL/MOL
REMARK 924 INTRA-LIGAND FREE ENERGY PREDICTED BY IDOCK:   -1.27 KCAL/MOL
REMARK 927      BINDING AFFINITY PREDICTED BY RF-SCORE:    0.00 PKD
ROOT
HETATM    1  C   UNL     1     -11.257   6.360  68.362  1.00  0.00    -0.297 C  
HETATM    2  C   UNL     1     -10.274   7.427  67.861  1.00  0.00    -0.194 C  
ENDROOT
BRANCH   2   3
HETATM    3  C   UNL     1     -10.180   8.544  68.936  1.00  0.00    -0.221 C  
BRANCH   3   4
HETATM    4  C   UNL     1     -10.622   9.914  68.473  1.00  0.00    -0.248 A  
HETATM    5  C   UNL     1     -10.923  11.522  66.678  1.00  0.00    -0.349 A  
HETATM    6  H   UNL     1     -11.825  13.843  66.178  1.00  0.00     0.000 HD 
HETATM    7  C   UNL     1     -11.168  10.840  69.374  1.00  0.00    -0.337 A  
HETATM    8  C   UNL     1     -10.497  10.271  67.123  1.00  0.00    -0.311 A  
HETATM    9  C   UNL     1     -11.593  12.094  68.929  1.00  0.00    -0.377 A  
HETATM   10  O   UNL     1     -11.905  13.621  67.098  1.00  0.00    -0.357 OA 
HETATM   11  C   UNL     1     -11.476  12.420  67.581  1.00  0.00    -0.337 A  
ENDBRANCH   3   4
ENDBRANCH   2   3
BRANCH   2  12
HETATM   12  N   UNL     1      -8.949   6.859  67.567  1.00  0.00    -0.117 NA 
HETATM   13  H   UNL     1      -8.659   7.103  66.621  1.00  0.00     0.000 HD 
BRANCH  12  14
HETATM   14  C   UNL     1      -7.907   7.227  68.532  1.00  0.00    -0.122 C  
BRANCH  14  15
HETATM   15  C   UNL     1      -6.556   7.541  67.838  1.00  0.00    -0.058 C  
HETATM   16  H   UNL     1      -5.591   6.953  66.218  1.00  0.00     0.000 HD 
HETATM   17  O   UNL     1      -6.418   6.761  66.643  1.00  0.00    -0.041 OA 
BRANCH  15  18
HETATM   18  C   UNL     1      -6.435   9.014  67.494  1.00  0.00    -0.064 A  
HETATM   19  O   UNL     1      -5.618  11.179  64.630  1.00  0.00    -0.461 OA 
HETATM   20  C   UNL     1      -5.953  10.766  65.886  1.00  0.00    -0.135 A  
HETATM   21  C   UNL     1      -6.105   9.412  66.189  1.00  0.00    -0.059 A  
HETATM   22  C   UNL     1      -6.136  11.743  66.856  1.00  0.00    -0.140 A  
HETATM   23  H   UNL     1      -5.516  12.100  64.424  1.00  0.00     0.000 HD 
HETATM   24  C   UNL     1      -6.469  11.354  68.146  1.00  0.00    -0.056 A  
HETATM   25  O   UNL     1      -6.656  12.266  69.142  1.00  0.00    -0.095 OA 
HETATM   26  C   UNL     1      -6.621  10.010  68.469  1.00  0.00    -0.053 A  
HETATM   27  H   UNL     1      -6.883  12.000  70.025  1.00  0.00     0.000 HD 
ENDBRANCH  15  18
ENDBRANCH  14  15
ENDBRANCH  12  14
ENDBRANCH   2  12
TORSDOF 6
ENDMDL
MODEL      328
REMARK 921   NORMALIZED FREE ENERGY PREDICTED BY IDOCK:   -3.73 KCAL/MOL
REMARK 922        TOTAL FREE ENERGY PREDICTED BY IDOCK:   -5.65 KCAL/MOL
REMARK 923 INTER-LIGAND FREE ENERGY PREDICTED BY IDOCK:   -4.90 KCAL/MOL
REMARK 924 INTRA-LIGAND FREE ENERGY PREDICTED BY IDOCK:   -0.74 KCAL/MOL
REMARK 927      BINDING AFFINITY PREDICTED BY RF-SCORE:    0.00 PKD
ROOT
HETATM    1  C   UNL     1      -7.050  15.038  69.884  1.00  0.00    -0.121 C  
HETATM    2  C   UNL     1      -6.452  15.392  68.516  1.00  0.00    -0.099 C  
ENDROOT
BRANCH   2   3
HETATM    3  C   UNL     1      -6.475  14.117  67.630  1.00  0.00    -0.153 C  
BRANCH   3   4
HETATM    4  C   UNL     1      -6.861  12.846  68.351  1.00  0.00    -0.096 A  
HETATM    5  C   UNL     1      -8.500  11.112  68.808  1.00  0.00    -0.134 A  
HETATM    6  H   UNL     1      -8.835   8.935  70.072  1.00  0.00     0.000 HD 
HETATM    7  C   UNL     1      -5.956  12.194  69.201  1.00  0.00    -0.075 A  
HETATM    8  C   UNL     1      -8.139  12.297  68.168  1.00  0.00    -0.158 A  
HETATM    9  C   UNL     1      -6.318  11.007  69.844  1.00  0.00    -0.137 A  
HETATM   10  O   UNL     1      -7.970   9.300  70.217  1.00  0.00    -0.109 OA 
HETATM   11  C   UNL     1      -7.585  10.471  69.633  1.00  0.00    -0.127 A  
ENDBRANCH   3   4
ENDBRANCH   2   3
BRANCH   2  12
HETATM   12  N   UNL     1      -7.173  16.501  67.871  1.00  0.00    -0.136 NA 
HETATM   13  H   UNL     1      -6.520  17.227  67.577  1.00  0.00     0.000 HD 
BRANCH  12  14
HETATM   14  C   UNL     1      -8.026  16.094  66.749  1.00  0.00    -0.272 C  
BRANCH  14  15
HETATM   15  C   UNL     1      -9.522  16.023  67.153  1.00  0.00    -0.216 C  
HETATM   16  H   UNL     1     -11.043  17.274  67.298  1.00  0.00     0.000 HD 
HETATM   17  O   UNL     1     -10.127  17.318  67.051  1.00  0.00    -0.285 OA 
BRANCH  15  18
HETATM   18  C   UNL     1     -10.287  15.041  66.284  1.00  0.00    -0.304 A  
HETATM   19  O   UNL     1     -13.752  14.023  65.565  1.00  0.00    -0.538 OA 
HETATM   20  C   UNL     1     -12.390  14.082  65.544  1.00  0.00    -0.483 A  
HETATM   21  C   UNL     1     -11.690  15.014  66.313  1.00  0.00    -0.096 A  
HETATM   22  C   UNL     1     -11.721  13.175  64.731  1.00  0.00    -0.387 A  
HETATM   23  H   UNL     1     -14.228  13.389  65.042  1.00  0.00     0.000 HD 
HETATM   24  C   UNL     1     -10.333  13.203  64.695  1.00  0.00    -0.361 A  
HETATM   25  O   UNL     1      -9.621  12.337  63.921  1.00  0.00    -0.559 OA 
HETATM   26  C   UNL     1      -9.618  14.123  65.456  1.00  0.00    -0.053 A  
HETATM   27  H   UNL     1      -8.671  12.355  63.897  1.00  0.00     0.000 HD 
ENDBRANCH  15  18
ENDBRANCH  14  15
ENDBRANCH  12  14
ENDBRANCH   2  12
TORSDOF 6
ENDMDL
MODEL      329
REMARK 921   NORMALIZED FREE ENERGY PREDICTED BY IDOCK:   -3.71 KCAL/MOL
REMARK 922        TOTAL FREE ENERGY PREDICTED BY IDOCK:   -5.62 KCAL/MOL
REMARK 923 INTER-LIGAND FREE ENERGY PREDICTED BY IDOCK:   -5.55 KCAL/MOL
REMARK 924 INTRA-LIGAND FREE ENERGY PREDICTED BY IDOCK:   -0.07 KCAL/MOL
REMARK 927      BINDING AFFINITY PREDICTED BY RF-SCORE:    0.00 PKD
ROOT
HETATM    1  C   UNL     1      -7.167  17.292  69.398  1.00  0.00    -0.022 C  
HETATM    2  C   UNL     1      -7.435  17.809  67.977  1.00  0.00    -0.226 C  
ENDROOT
BRANCH   2   3
HETATM    3  C   UNL     1      -6.573  16.979  66.987  1.00  0.00    -0.238 C  
BRANCH   3   4
HETATM    4  C   UNL     1      -6.552  15.491  67.251  1.00  0.00    -0.090 A  
HETATM    5  C   UNL     1      -5.340  13.505  67.950  1.00  0.00    -0.095 A  
HETATM    6  H   UNL     1      -5.623  11.022  68.399  1.00  0.00     0.000 HD 
HETATM    7  C   UNL     1      -7.705  14.711  67.085  1.00  0.00    -0.121 A  
HETATM    8  C   UNL     1      -5.368  14.873  67.679  1.00  0.00     0.042 A  
HETATM    9  C   UNL     1      -7.677  13.339  67.355  1.00  0.00    -0.148 A  
HETATM   10  O   UNL     1      -6.430  11.423  68.098  1.00  0.00    -0.055 OA 
HETATM   11  C   UNL     1      -6.495  12.751  67.795  1.00  0.00    -0.136 A  
ENDBRANCH   3   4
ENDBRANCH   2   3
BRANCH   2  12
HETATM   12  N   UNL     1      -8.862  17.739  67.628  1.00  0.00    -0.246 NA 
HETATM   13  H   UNL     1      -9.330  18.614  67.863  1.00  0.00     0.000 HD 
BRANCH  12  14
HETATM   14  C   UNL     1      -9.124  17.378  66.230  1.00  0.00    -0.203 C  
BRANCH  14  15
HETATM   15  C   UNL     1     -10.596  16.940  66.008  1.00  0.00    -0.218 C  
HETATM   16  H   UNL     1     -11.941  17.066  64.568  1.00  0.00     0.000 HD 
HETATM   17  O   UNL     1     -11.040  17.335  64.704  1.00  0.00    -1.052 OA 
BRANCH  15  18
HETATM   18  C   UNL     1     -10.760  15.440  66.162  1.00  0.00    -0.316 A  
HETATM   19  O   UNL     1     -11.886  12.969  68.650  1.00  0.00    -0.305 OA 
HETATM   20  C   UNL     1     -11.394  13.518  67.502  1.00  0.00    -0.308 A  
HETATM   21  C   UNL     1     -11.283  14.901  67.348  1.00  0.00    -0.343 A  
HETATM   22  C   UNL     1     -11.003  12.650  66.491  1.00  0.00    -0.302 A  
HETATM   23  H   UNL     1     -11.961  12.028  68.754  1.00  0.00     0.000 HD 
HETATM   24  C   UNL     1     -10.490  13.178  65.314  1.00  0.00    -0.307 A  
HETATM   25  O   UNL     1     -10.085  12.377  64.288  1.00  0.00    -0.420 OA 
HETATM   26  C   UNL     1     -10.369  14.553  65.143  1.00  0.00    -0.438 A  
HETATM   27  H   UNL     1      -9.733  12.738  63.483  1.00  0.00     0.000 HD 
ENDBRANCH  15  18
ENDBRANCH  14  15
ENDBRANCH  12  14
ENDBRANCH   2  12
TORSDOF 6
ENDMDL
MODEL      330
REMARK 921   NORMALIZED FREE ENERGY PREDICTED BY IDOCK:   -3.64 KCAL/MOL
REMARK 922        TOTAL FREE ENERGY PREDICTED BY IDOCK:   -5.53 KCAL/MOL
REMARK 923 INTER-LIGAND FREE ENERGY PREDICTED BY IDOCK:   -5.00 KCAL/MOL
REMARK 924 INTRA-LIGAND FREE ENERGY PREDICTED BY IDOCK:   -0.53 KCAL/MOL
REMARK 927      BINDING AFFINITY PREDICTED BY RF-SCORE:    0.00 PKD
ROOT
HETATM    1  C   UNL     1     -10.633  12.593  65.762  1.00  0.00    -0.296 C  
HETATM    2  C   UNL     1     -10.733  13.636  66.883  1.00  0.00    -0.275 C  
ENDROOT
BRANCH   2   3
HETATM    3  C   UNL     1     -11.378  14.921  66.297  1.00  0.00    -0.306 C  
BRANCH   3   4
HETATM    4  C   UNL     1     -10.776  16.218  66.785  1.00  0.00    -0.204 A  
HETATM    5  C   UNL     1     -10.339  17.771  68.602  1.00  0.00    -0.351 A  
HETATM    6  H   UNL     1      -9.155  19.949  69.153  1.00  0.00     0.000 HD 
HETATM    7  C   UNL     1     -10.072  17.061  65.915  1.00  0.00    -0.281 A  
HETATM    8  C   UNL     1     -10.910  16.589  68.131  1.00  0.00    -0.345 A  
HETATM    9  C   UNL     1      -9.501  18.248  66.385  1.00  0.00    -0.290 A  
HETATM   10  O   UNL     1      -9.066  19.718  68.236  1.00  0.00    -0.336 OA 
HETATM   11  C   UNL     1      -9.632  18.586  67.728  1.00  0.00    -0.290 A  
ENDBRANCH   3   4
ENDBRANCH   2   3
BRANCH   2  12
HETATM   12  N   UNL     1     -11.499  13.134  68.034  1.00  0.00    -0.290 NA 
HETATM   13  H   UNL     1     -12.187  12.445  67.731  1.00  0.00     0.000 HD 
BRANCH  12  14
HETATM   14  C   UNL     1     -10.673  12.590  69.118  1.00  0.00    -0.023 C  
BRANCH  14  15
HETATM   15  C   UNL     1     -11.500  11.719  70.098  1.00  0.00    -0.081 C  
HETATM   16  H   UNL     1     -13.409  11.408  70.500  1.00  0.00     0.000 HD 
HETATM   17  O   UNL     1     -12.903  11.942  69.900  1.00  0.00     0.208 OA 
BRANCH  15  18
HETATM   18  C   UNL     1     -11.197  10.242  69.924  1.00  0.00    -0.360 A  
HETATM   19  O   UNL     1     -10.206   7.314  71.925  1.00  0.00    -0.187 OA 
HETATM   20  C   UNL     1     -10.546   8.102  70.865  1.00  0.00    -0.209 A  
HETATM   21  C   UNL     1     -10.866   9.450  71.034  1.00  0.00    -0.406 A  
HETATM   22  C   UNL     1     -10.559   7.514  69.607  1.00  0.00    -0.243 A  
HETATM   23  H   UNL     1      -9.989   6.397  71.809  1.00  0.00     0.000 HD 
HETATM   24  C   UNL     1     -10.893   8.292  68.506  1.00  0.00     0.093 A  
HETATM   25  O   UNL     1     -10.918   7.774  67.245  1.00  0.00    -0.525 OA 
HETATM   26  C   UNL     1     -11.211   9.639  68.654  1.00  0.00    -0.007 A  
HETATM   27  H   UNL     1     -11.146   8.306  66.492  1.00  0.00     0.000 HD 
ENDBRANCH  15  18
ENDBRANCH  14  15
ENDBRANCH  12  14
ENDBRANCH   2  12
TORSDOF 6
ENDMDL
MODEL      331
REMARK 921   NORMALIZED FREE ENERGY PREDICTED BY IDOCK:   -3.63 KCAL/MOL
REMARK 922        TOTAL FREE ENERGY PREDICTED BY IDOCK:   -5.51 KCAL/MOL
REMARK 923 INTER-LIGAND FREE ENERGY PREDICTED BY IDOCK:   -5.28 KCAL/MOL
REMARK 924 INTRA-LIGAND FREE ENERGY PREDICTED BY IDOCK:   -0.23 KCAL/MOL
REMARK 927      BINDING AFFINITY PREDICTED BY RF-SCORE:    0.00 PKD
ROOT
HETATM    1  C   UNL     1     -12.727  11.548  71.040  1.00  0.00    -0.426 C  
HETATM    2  C   UNL     1     -11.924  10.783  69.979  1.00  0.00    -0.347 C  
ENDROOT
BRANCH   2   3
HETATM    3  C   UNL     1     -11.907  11.631  68.678  1.00  0.00    -0.370 C  
BRANCH   3   4
HETATM    4  C   UNL     1     -11.241  12.982  68.805  1.00  0.00    -0.325 A  
HETATM    5  C   UNL     1      -9.244  14.356  68.648  1.00  0.00    -0.181 A  
HETATM    6  H   UNL     1      -8.420  16.749  68.850  1.00  0.00     0.000 HD 
HETATM    7  C   UNL     1     -11.978  14.121  69.158  1.00  0.00    -0.388 A  
HETATM    8  C   UNL     1      -9.866  13.111  68.559  1.00  0.00    -0.155 A  
HETATM    9  C   UNL     1     -11.354  15.368  69.250  1.00  0.00    -0.323 A  
HETATM   10  O   UNL     1      -9.350  16.677  69.033  1.00  0.00    -0.260 OA 
HETATM   11  C   UNL     1      -9.993  15.475  68.984  1.00  0.00    -0.233 A  
ENDBRANCH   3   4
ENDBRANCH   2   3
BRANCH   2  12
HETATM   12  N   UNL     1     -10.558  10.482  70.434  1.00  0.00    -0.414 NA 
HETATM   13  H   UNL     1     -10.153  11.290  70.906  1.00  0.00     0.000 HD 
BRANCH  12  14
HETATM   14  C   UNL     1     -10.455   9.289  71.283  1.00  0.00    -0.338 C  
BRANCH  14  15
HETATM   15  C   UNL     1      -8.983   8.839  71.477  1.00  0.00    -0.236 C  
HETATM   16  H   UNL     1      -7.789   8.410  72.990  1.00  0.00     0.000 HD 
HETATM   17  O   UNL     1      -8.690   8.686  72.872  1.00  0.00    -0.384 OA 
BRANCH  15  18
HETATM   18  C   UNL     1      -8.700   7.534  70.757  1.00  0.00    -0.140 A  
HETATM   19  O   UNL     1      -8.474   6.195  67.335  1.00  0.00    -0.109 OA 
HETATM   20  C   UNL     1      -8.472   6.273  68.696  1.00  0.00    -0.122 A  
HETATM   21  C   UNL     1      -8.691   7.484  69.355  1.00  0.00    -0.137 A  
HETATM   22  C   UNL     1      -8.247   5.101  69.406  1.00  0.00    -0.087 A  
HETATM   23  H   UNL     1      -8.324   5.371  66.887  1.00  0.00     0.000 HD 
HETATM   24  C   UNL     1      -8.248   5.146  70.794  1.00  0.00    -0.105 A  
HETATM   25  O   UNL     1      -8.038   4.028  71.546  1.00  0.00    -0.074 OA 
HETATM   26  C   UNL     1      -8.468   6.343  71.468  1.00  0.00    -0.129 A  
HETATM   27  H   UNL     1      -8.039   4.059  72.495  1.00  0.00     0.000 HD 
ENDBRANCH  15  18
ENDBRANCH  14  15
ENDBRANCH  12  14
ENDBRANCH   2  12
TORSDOF 6
ENDMDL
MODEL      332
REMARK 921   NORMALIZED FREE ENERGY PREDICTED BY IDOCK:   -3.60 KCAL/MOL
REMARK 922        TOTAL FREE ENERGY PREDICTED BY IDOCK:   -5.48 KCAL/MOL
REMARK 923 INTER-LIGAND FREE ENERGY PREDICTED BY IDOCK:   -5.02 KCAL/MOL
REMARK 924 INTRA-LIGAND FREE ENERGY PREDICTED BY IDOCK:   -0.46 KCAL/MOL
REMARK 927      BINDING AFFINITY PREDICTED BY RF-SCORE:    0.00 PKD
ROOT
HETATM    1  C   UNL     1      -9.337  16.093  68.460  1.00  0.00    -0.209 C  
HETATM    2  C   UNL     1      -8.482  15.989  67.189  1.00  0.00    -0.196 C  
ENDROOT
BRANCH   2   3
HETATM    3  C   UNL     1      -7.170  16.786  67.419  1.00  0.00    -0.187 C  
BRANCH   3   4
HETATM    4  C   UNL     1      -6.982  17.981  66.512  1.00  0.00    -0.255 A  
HETATM    5  C   UNL     1      -5.793  19.060  64.688  1.00  0.00    -0.319 A  
HETATM    6  H   UNL     1      -5.771  21.156  63.255  1.00  0.00     0.000 HD 
HETATM    7  C   UNL     1      -7.818  19.102  66.610  1.00  0.00    -0.279 A  
HETATM    8  C   UNL     1      -5.963  17.975  65.548  1.00  0.00    -0.195 A  
HETATM    9  C   UNL     1      -7.647  20.191  65.750  1.00  0.00    -0.240 A  
HETATM   10  O   UNL     1      -6.458  21.181  63.911  1.00  0.00    -0.316 OA 
HETATM   11  C   UNL     1      -6.641  20.154  64.789  1.00  0.00    -0.227 A  
ENDBRANCH   3   4
ENDBRANCH   2   3
BRANCH   2  12
HETATM   12  N   UNL     1      -8.199  14.591  66.829  1.00  0.00    -0.386 NA 
HETATM   13  H   UNL     1      -7.202  14.461  66.661  1.00  0.00     0.000 HD 
BRANCH  12  14
HETATM   14  C   UNL     1      -8.687  13.607  67.802  1.00  0.00    -0.184 C  
BRANCH  14  15
HETATM   15  C   UNL     1      -7.849  12.302  67.779  1.00  0.00    -0.151 C  
HETATM   16  H   UNL     1      -6.831  11.214  69.076  1.00  0.00     0.000 HD 
HETATM   17  O   UNL     1      -7.344  12.013  69.090  1.00  0.00    -0.062 OA 
BRANCH  15  18
HETATM   18  C   UNL     1      -8.666  11.123  67.284  1.00  0.00    -0.139 A  
HETATM   19  O   UNL     1      -9.883   7.850  68.452  1.00  0.00    -0.163 OA 
HETATM   20  C   UNL     1      -9.635   8.930  67.657  1.00  0.00    -0.148 A  
HETATM   21  C   UNL     1      -8.919  10.032  68.129  1.00  0.00    -0.122 A  
HETATM   22  C   UNL     1     -10.120   8.893  66.356  1.00  0.00    -0.333 A  
HETATM   23  H   UNL     1     -10.370   7.101  68.131  1.00  0.00     0.000 HD 
HETATM   24  C   UNL     1      -9.877   9.974  65.519  1.00  0.00    -0.303 A  
HETATM   25  O   UNL     1     -10.323   9.994  64.230  1.00  0.00    -0.389 OA 
HETATM   26  C   UNL     1      -9.162  11.079  65.970  1.00  0.00    -0.213 A  
HETATM   27  H   UNL     1     -10.156  10.734  63.657  1.00  0.00     0.000 HD 
ENDBRANCH  15  18
ENDBRANCH  14  15
ENDBRANCH  12  14
ENDBRANCH   2  12
TORSDOF 6
ENDMDL
MODEL      333
REMARK 921   NORMALIZED FREE ENERGY PREDICTED BY IDOCK:   -3.58 KCAL/MOL
REMARK 922        TOTAL FREE ENERGY PREDICTED BY IDOCK:   -5.44 KCAL/MOL
REMARK 923 INTER-LIGAND FREE ENERGY PREDICTED BY IDOCK:   -4.66 KCAL/MOL
REMARK 924 INTRA-LIGAND FREE ENERGY PREDICTED BY IDOCK:   -0.78 KCAL/MOL
REMARK 927      BINDING AFFINITY PREDICTED BY RF-SCORE:    0.00 PKD
ROOT
HETATM    1  C   UNL     1     -10.179  16.028  67.307  1.00  0.00    -0.277 C  
HETATM    2  C   UNL     1      -9.408  14.723  67.059  1.00  0.00    -0.233 C  
ENDROOT
BRANCH   2   3
HETATM    3  C   UNL     1      -9.228  14.549  65.527  1.00  0.00     0.464 C  
BRANCH   3   4
HETATM    4  C   UNL     1     -10.327  13.772  64.839  1.00  0.00    -0.420 A  
HETATM    5  C   UNL     1     -11.060  11.777  63.663  1.00  0.00    -0.518 A  
HETATM    6  H   UNL     1     -13.111  10.668  62.656  1.00  0.00     0.000 HD 
HETATM    7  C   UNL     1     -11.630  14.281  64.757  1.00  0.00    -0.404 A  
HETATM    8  C   UNL     1     -10.051  12.516  64.279  1.00  0.00    -0.298 A  
HETATM    9  C   UNL     1     -12.642  13.542  64.138  1.00  0.00    -0.188 A  
HETATM   10  O   UNL     1     -13.311  11.522  63.019  1.00  0.00    -0.203 OA 
HETATM   11  C   UNL     1     -12.349  12.290  63.605  1.00  0.00    -0.562 A  
ENDBRANCH   3   4
ENDBRANCH   2   3
BRANCH   2  12
HETATM   12  N   UNL     1      -8.111  14.712  67.752  1.00  0.00    -0.139 NA 
HETATM   13  H   UNL     1      -7.856  15.654  68.047  1.00  0.00     0.000 HD 
BRANCH  12  14
HETATM   14  C   UNL     1      -8.040  13.784  68.886  1.00  0.00     0.059 C  
BRANCH  14  15
HETATM   15  C   UNL     1      -7.409  12.424  68.486  1.00  0.00    -0.105 C  
HETATM   16  H   UNL     1      -5.772  11.407  68.919  1.00  0.00     0.000 HD 
HETATM   17  O   UNL     1      -6.159  12.239  69.164  1.00  0.00    -0.070 OA 
BRANCH  15  18
HETATM   18  C   UNL     1      -8.332  11.264  68.809  1.00  0.00    -0.120 A  
HETATM   19  O   UNL     1      -8.361   8.149  70.773  1.00  0.00    -0.112 OA 
HETATM   20  C   UNL     1      -8.749   9.159  69.942  1.00  0.00    -0.163 A  
HETATM   21  C   UNL     1      -7.913  10.246  69.680  1.00  0.00    -0.164 A  
HETATM   22  C   UNL     1     -10.008   9.065  69.363  1.00  0.00    -0.191 A  
HETATM   23  H   UNL     1      -8.930   7.410  70.951  1.00  0.00     0.000 HD 
HETATM   24  C   UNL     1     -10.429  10.073  68.505  1.00  0.00    -0.202 A  
HETATM   25  O   UNL     1     -11.651  10.035  67.902  1.00  0.00    -0.629 OA 
HETATM   26  C   UNL     1      -9.609  11.163  68.229  1.00  0.00    -0.185 A  
HETATM   27  H   UNL     1     -11.938  10.725  67.315  1.00  0.00     0.000 HD 
ENDBRANCH  15  18
ENDBRANCH  14  15
ENDBRANCH  12  14
ENDBRANCH   2  12
TORSDOF 6
ENDMDL
MODEL      334
REMARK 921   NORMALIZED FREE ENERGY PREDICTED BY IDOCK:   -3.50 KCAL/MOL
REMARK 922        TOTAL FREE ENERGY PREDICTED BY IDOCK:   -5.34 KCAL/MOL
REMARK 923 INTER-LIGAND FREE ENERGY PREDICTED BY IDOCK:   -4.56 KCAL/MOL
REMARK 924 INTRA-LIGAND FREE ENERGY PREDICTED BY IDOCK:   -0.79 KCAL/MOL
REMARK 927      BINDING AFFINITY PREDICTED BY RF-SCORE:    0.00 PKD
ROOT
HETATM    1  C   UNL     1      -9.068   7.346  68.049  1.00  0.00    -0.130 C  
HETATM    2  C   UNL     1      -8.479   6.523  69.203  1.00  0.00    -0.126 C  
ENDROOT
BRANCH   2   3
HETATM    3  C   UNL     1      -9.641   5.777  69.911  1.00  0.00    -0.201 C  
BRANCH   3   4
HETATM    4  C   UNL     1     -10.576   6.660  70.706  1.00  0.00    -0.265 A  
HETATM    5  C   UNL     1     -12.835   7.390  71.222  1.00  0.00    -0.365 A  
HETATM    6  H   UNL     1     -14.160   8.916  72.759  1.00  0.00     0.000 HD 
HETATM    7  C   UNL     1     -10.085   7.541  71.680  1.00  0.00    -0.204 A  
HETATM    8  C   UNL     1     -11.959   6.599  70.480  1.00  0.00    -0.377 A  
HETATM    9  C   UNL     1     -10.963   8.335  72.424  1.00  0.00    -0.438 A  
HETATM   10  O   UNL     1     -13.226   8.979  72.916  1.00  0.00    -0.339 OA 
HETATM   11  C   UNL     1     -12.332   8.244  72.194  1.00  0.00    -0.360 A  
ENDBRANCH   3   4
ENDBRANCH   2   3
BRANCH   2  12
HETATM   12  N   UNL     1      -7.449   5.581  68.736  1.00  0.00    -0.078 NA 
HETATM   13  H   UNL     1      -7.590   4.663  69.156  1.00  0.00     0.000 HD 
BRANCH  12  14
HETATM   14  C   UNL     1      -7.353   5.467  67.277  1.00  0.00    -0.080 C  
BRANCH  14  15
HETATM   15  C   UNL     1      -7.595   4.015  66.789  1.00  0.00    -0.088 C  
HETATM   16  H   UNL     1      -8.447   2.377  67.490  1.00  0.00     0.000 HD 
HETATM   17  O   UNL     1      -8.298   3.266  67.789  1.00  0.00    -0.082 OA 
BRANCH  15  18
HETATM   18  C   UNL     1      -8.382   3.986  65.493  1.00  0.00    -0.109 A  
HETATM   19  O   UNL     1     -10.854   1.890  63.745  1.00  0.00    -0.394 OA 
HETATM   20  C   UNL     1      -9.980   2.899  64.025  1.00  0.00    -0.154 A  
HETATM   21  C   UNL     1      -9.288   2.945  65.236  1.00  0.00    -0.110 A  
HETATM   22  C   UNL     1      -9.799   3.879  63.057  1.00  0.00    -0.154 A  
HETATM   23  H   UNL     1     -11.325   1.859  62.920  1.00  0.00     0.000 HD 
HETATM   24  C   UNL     1      -8.908   4.914  63.309  1.00  0.00    -0.078 A  
HETATM   25  O   UNL     1      -8.684   5.902  62.397  1.00  0.00    -0.297 OA 
HETATM   26  C   UNL     1      -8.207   4.975  64.509  1.00  0.00    -0.126 A  
HETATM   27  H   UNL     1      -8.074   6.610  62.569  1.00  0.00     0.000 HD 
ENDBRANCH  15  18
ENDBRANCH  14  15
ENDBRANCH  12  14
ENDBRANCH   2  12
TORSDOF 6
ENDMDL
MODEL      335
REMARK 921   NORMALIZED FREE ENERGY PREDICTED BY IDOCK:   -3.45 KCAL/MOL
REMARK 922        TOTAL FREE ENERGY PREDICTED BY IDOCK:   -5.26 KCAL/MOL
REMARK 923 INTER-LIGAND FREE ENERGY PREDICTED BY IDOCK:   -4.72 KCAL/MOL
REMARK 924 INTRA-LIGAND FREE ENERGY PREDICTED BY IDOCK:   -0.55 KCAL/MOL
REMARK 927      BINDING AFFINITY PREDICTED BY RF-SCORE:    0.00 PKD
ROOT
HETATM    1  C   UNL     1      -7.411   8.770  67.876  1.00  0.00    -0.088 C  
HETATM    2  C   UNL     1      -8.904   9.008  68.141  1.00  0.00    -0.133 C  
ENDROOT
BRANCH   2   3
HETATM    3  C   UNL     1      -9.637   9.065  66.774  1.00  0.00    -0.259 C  
BRANCH   3   4
HETATM    4  C   UNL     1      -9.851  10.456  66.223  1.00  0.00    -0.272 A  
HETATM    5  C   UNL     1     -10.417  11.906  64.357  1.00  0.00    -0.356 A  
HETATM    6  H   UNL     1     -10.799  14.339  63.736  1.00  0.00     0.000 HD 
HETATM    7  C   UNL     1      -9.723  11.587  67.042  1.00  0.00    -0.202 A  
HETATM    8  C   UNL     1     -10.193  10.630  64.874  1.00  0.00    -0.395 A  
HETATM    9  C   UNL     1      -9.945  12.866  66.525  1.00  0.00    -0.259 A  
HETATM   10  O   UNL     1     -10.556  14.239  64.649  1.00  0.00    -0.421 OA 
HETATM   11  C   UNL     1     -10.301  13.012  65.188  1.00  0.00    -0.304 A  
ENDBRANCH   3   4
ENDBRANCH   2   3
BRANCH   2  12
HETATM   12  N   UNL     1      -9.480   7.970  69.010  1.00  0.00    -0.151 NA 
HETATM   13  H   UNL     1     -10.333   7.592  68.597  1.00  0.00     0.000 HD 
BRANCH  12  14
HETATM   14  C   UNL     1      -8.553   6.885  69.351  1.00  0.00    -0.133 C  
BRANCH  14  15
HETATM   15  C   UNL     1      -8.298   6.796  70.878  1.00  0.00    -0.128 C  
HETATM   16  H   UNL     1      -8.560   7.952  72.458  1.00  0.00     0.000 HD 
HETATM   17  O   UNL     1      -8.716   8.006  71.523  1.00  0.00    -0.121 OA 
BRANCH  15  18
HETATM   18  C   UNL     1      -9.027   5.619  71.498  1.00  0.00    -0.148 A  
HETATM   19  O   UNL     1     -12.007   4.909  73.541  1.00  0.00    -0.381 OA 
HETATM   20  C   UNL     1     -10.860   4.739  72.823  1.00  0.00    -0.210 A  
HETATM   21  C   UNL     1     -10.214   5.819  72.218  1.00  0.00    -0.233 A  
HETATM   22  C   UNL     1     -10.354   3.450  72.717  1.00  0.00    -0.240 A  
HETATM   23  H   UNL     1     -12.446   4.174  73.952  1.00  0.00     0.000 HD 
HETATM   24  C   UNL     1      -9.183   3.246  71.999  1.00  0.00    -0.114 A  
HETATM   25  O   UNL     1      -8.634   2.005  71.864  1.00  0.00    -0.058 OA 
HETATM   26  C   UNL     1      -8.523   4.310  71.393  1.00  0.00    -0.110 A  
HETATM   27  H   UNL     1      -7.833   1.865  71.374  1.00  0.00     0.000 HD 
ENDBRANCH  15  18
ENDBRANCH  14  15
ENDBRANCH  12  14
ENDBRANCH   2  12
TORSDOF 6
ENDMDL
MODEL      336
REMARK 921   NORMALIZED FREE ENERGY PREDICTED BY IDOCK:   -3.35 KCAL/MOL
REMARK 922        TOTAL FREE ENERGY PREDICTED BY IDOCK:   -5.14 KCAL/MOL
REMARK 923 INTER-LIGAND FREE ENERGY PREDICTED BY IDOCK:   -4.44 KCAL/MOL
REMARK 924 INTRA-LIGAND FREE ENERGY PREDICTED BY IDOCK:   -0.70 KCAL/MOL
REMARK 927      BINDING AFFINITY PREDICTED BY RF-SCORE:    0.00 PKD
ROOT
HETATM    1  C   UNL     1      -7.474   3.900  68.085  1.00  0.00    -0.062 C  
HETATM    2  C   UNL     1      -7.960   5.226  68.687  1.00  0.00    -0.087 C  
ENDROOT
BRANCH   2   3
HETATM    3  C   UNL     1      -9.267   5.640  67.959  1.00  0.00    -0.110 C  
BRANCH   3   4
HETATM    4  C   UNL     1      -9.203   6.968  67.238  1.00  0.00    -0.141 A  
HETATM    5  C   UNL     1      -8.489   8.279  65.322  1.00  0.00    -0.179 A  
HETATM    6  H   UNL     1      -8.620  10.602  64.305  1.00  0.00     0.000 HD 
HETATM    7  C   UNL     1      -9.812   8.111  67.775  1.00  0.00    -0.209 A  
HETATM    8  C   UNL     1      -8.535   7.066  66.009  1.00  0.00    -0.141 A  
HETATM    9  C   UNL     1      -9.765   9.328  67.087  1.00  0.00    -0.225 A  
HETATM   10  O   UNL     1      -9.066  10.555  65.143  1.00  0.00    -0.177 OA 
HETATM   11  C   UNL     1      -9.111   9.397  65.861  1.00  0.00    -0.195 A  
ENDBRANCH   3   4
ENDBRANCH   2   3
BRANCH   2  12
HETATM   12  N   UNL     1      -8.169   5.125  70.139  1.00  0.00    -0.085 NA 
HETATM   13  H   UNL     1      -8.323   6.050  70.542  1.00  0.00     0.000 HD 
BRANCH  12  14
HETATM   14  C   UNL     1      -9.247   4.210  70.532  1.00  0.00    -0.124 C  
BRANCH  14  15
HETATM   15  C   UNL     1      -9.930   4.649  71.853  1.00  0.00    -0.189 C  
HETATM   16  H   UNL     1      -9.437   4.788  73.761  1.00  0.00     0.000 HD 
HETATM   17  O   UNL     1      -9.018   4.519  72.952  1.00  0.00    -0.117 OA 
BRANCH  15  18
HETATM   18  C   UNL     1     -10.423   6.083  71.777  1.00  0.00    -0.268 A  
HETATM   19  O   UNL     1     -13.563   7.966  71.387  1.00  0.00    -0.475 OA 
HETATM   20  C   UNL     1     -12.239   7.674  71.532  1.00  0.00    -0.324 A  
HETATM   21  C   UNL     1     -11.793   6.355  71.644  1.00  0.00    -0.361 A  
HETATM   22  C   UNL     1     -11.346   8.738  71.560  1.00  0.00    -0.375 A  
HETATM   23  H   UNL     1     -13.866   8.863  71.311  1.00  0.00     0.000 HD 
HETATM   24  C   UNL     1      -9.990   8.473  71.698  1.00  0.00    -0.259 A  
HETATM   25  O   UNL     1      -9.066   9.474  71.727  1.00  0.00    -0.178 OA 
HETATM   26  C   UNL     1      -9.526   7.166  71.808  1.00  0.00    -0.160 A  
HETATM   27  H   UNL     1      -8.138   9.293  71.820  1.00  0.00     0.000 HD 
ENDBRANCH  15  18
ENDBRANCH  14  15
ENDBRANCH  12  14
ENDBRANCH   2  12
TORSDOF 6
ENDMDL
MODEL      337
REMARK 921   NORMALIZED FREE ENERGY PREDICTED BY IDOCK:   -3.35 KCAL/MOL
REMARK 922        TOTAL FREE ENERGY PREDICTED BY IDOCK:   -5.13 KCAL/MOL
REMARK 923 INTER-LIGAND FREE ENERGY PREDICTED BY IDOCK:   -4.56 KCAL/MOL
REMARK 924 INTRA-LIGAND FREE ENERGY PREDICTED BY IDOCK:   -0.57 KCAL/MOL
REMARK 927      BINDING AFFINITY PREDICTED BY RF-SCORE:    0.00 PKD
ROOT
HETATM    1  C   UNL     1      -9.025   9.575  70.278  1.00  0.00    -0.288 C  
HETATM    2  C   UNL     1      -9.560   9.145  68.905  1.00  0.00    -0.152 C  
ENDROOT
BRANCH   2   3
HETATM    3  C   UNL     1      -8.961  10.094  67.831  1.00  0.00    -0.128 C  
BRANCH   3   4
HETATM    4  C   UNL     1      -9.775  11.336  67.551  1.00  0.00    -0.192 A  
HETATM    5  C   UNL     1     -11.806  12.362  66.701  1.00  0.00    -0.394 A  
HETATM    6  H   UNL     1     -12.979  14.599  66.436  1.00  0.00     0.000 HD 
HETATM    7  C   UNL     1      -9.297  12.607  67.900  1.00  0.00    -0.204 A  
HETATM    8  C   UNL     1     -11.034  11.227  66.943  1.00  0.00    -0.348 A  
HETATM    9  C   UNL     1     -10.070  13.746  67.656  1.00  0.00    -0.242 A  
HETATM   10  O   UNL     1     -12.123  14.692  66.837  1.00  0.00    -0.361 OA 
HETATM   11  C   UNL     1     -11.323  13.611  67.067  1.00  0.00    -0.324 A  
ENDBRANCH   3   4
ENDBRANCH   2   3
BRANCH   2  12
HETATM   12  N   UNL     1      -9.246   7.740  68.607  1.00  0.00    -0.139 NA 
HETATM   13  H   UNL     1      -8.267   7.541  68.816  1.00  0.00     0.000 HD 
BRANCH  12  14
HETATM   14  C   UNL     1     -10.119   6.771  69.280  1.00  0.00    -0.168 C  
BRANCH  14  15
HETATM   15  C   UNL     1     -10.785   5.794  68.276  1.00  0.00    -0.208 C  
HETATM   16  H   UNL     1     -11.631   5.904  66.495  1.00  0.00     0.000 HD 
HETATM   17  O   UNL     1     -11.223   6.502  67.109  1.00  0.00    -0.388 OA 
BRANCH  15  18
HETATM   18  C   UNL     1      -9.834   4.685  67.863  1.00  0.00    -0.177 A  
HETATM   19  O   UNL     1      -8.862   2.778  64.867  1.00  0.00    -0.109 OA 
HETATM   20  C   UNL     1      -8.929   3.216  66.157  1.00  0.00    -0.148 A  
HETATM   21  C   UNL     1      -9.774   4.265  66.526  1.00  0.00    -0.236 A  
HETATM   22  C   UNL     1      -8.127   2.577  67.094  1.00  0.00    -0.075 A  
HETATM   23  H   UNL     1      -8.287   2.065  64.616  1.00  0.00     0.000 HD 
HETATM   24  C   UNL     1      -8.179   2.994  68.417  1.00  0.00    -0.064 A  
HETATM   25  O   UNL     1      -7.420   2.403  69.383  1.00  0.00    -0.044 OA 
HETATM   26  C   UNL     1      -9.017   4.035  68.805  1.00  0.00    -0.166 A  
HETATM   27  H   UNL     1      -7.456   2.688  70.289  1.00  0.00     0.000 HD 
ENDBRANCH  15  18
ENDBRANCH  14  15
ENDBRANCH  12  14
ENDBRANCH   2  12
TORSDOF 6
ENDMDL
MODEL      338
REMARK 921   NORMALIZED FREE ENERGY PREDICTED BY IDOCK:   -3.33 KCAL/MOL
REMARK 922        TOTAL FREE ENERGY PREDICTED BY IDOCK:   -5.10 KCAL/MOL
REMARK 923 INTER-LIGAND FREE ENERGY PREDICTED BY IDOCK:   -5.39 KCAL/MOL
REMARK 924 INTRA-LIGAND FREE ENERGY PREDICTED BY IDOCK:    0.29 KCAL/MOL
REMARK 927      BINDING AFFINITY PREDICTED BY RF-SCORE:    0.00 PKD
ROOT
HETATM    1  C   UNL     1      -8.619  10.211  69.411  1.00  0.00    -0.183 C  
HETATM    2  C   UNL     1     -10.094  10.047  69.804  1.00  0.00    -0.248 C  
ENDROOT
BRANCH   2   3
HETATM    3  C   UNL     1     -10.953  10.903  68.835  1.00  0.00    -0.278 C  
BRANCH   3   4
HETATM    4  C   UNL     1     -10.574  10.789  67.376  1.00  0.00    -0.287 A  
HETATM    5  C   UNL     1      -9.749   9.450  65.524  1.00  0.00    -0.300 A  
HETATM    6  H   UNL     1      -9.283   9.527  63.029  1.00  0.00     0.000 HD 
HETATM    7  C   UNL     1     -10.718  11.878  66.504  1.00  0.00    -0.293 A  
HETATM    8  C   UNL     1     -10.079   9.577  66.873  1.00  0.00    -0.295 A  
HETATM    9  C   UNL     1     -10.386  11.752  65.152  1.00  0.00    -0.323 A  
HETATM   10  O   UNL     1      -9.605  10.358  63.356  1.00  0.00    -0.299 OA 
HETATM   11  C   UNL     1      -9.913  10.534  64.673  1.00  0.00    -0.347 A  
ENDBRANCH   3   4
ENDBRANCH   2   3
BRANCH   2  12
HETATM   12  N   UNL     1     -10.515   8.638  69.783  1.00  0.00    -0.217 NA 
HETATM   13  H   UNL     1     -10.147   8.168  68.956  1.00  0.00     0.000 HD 
BRANCH  12  14
HETATM   14  C   UNL     1     -10.169   7.887  70.995  1.00  0.00    -0.197 C  
BRANCH  14  15
HETATM   15  C   UNL     1     -11.260   6.850  71.368  1.00  0.00    -0.259 C  
HETATM   16  H   UNL     1     -12.853   6.054  70.513  1.00  0.00     0.000 HD 
HETATM   17  O   UNL     1     -12.185   6.690  70.284  1.00  0.00    -0.294 OA 
BRANCH  15  18
HETATM   18  C   UNL     1     -10.654   5.502  71.714  1.00  0.00    -0.296 A  
HETATM   19  O   UNL     1      -8.292   3.038  70.334  1.00  0.00    -0.048 OA 
HETATM   20  C   UNL     1      -9.193   3.647  71.158  1.00  0.00    -0.126 A  
HETATM   21  C   UNL     1      -9.717   4.905  70.857  1.00  0.00    -0.264 A  
HETATM   22  C   UNL     1      -9.573   2.967  72.308  1.00  0.00    -0.205 A  
HETATM   23  H   UNL     1      -7.935   2.182  70.539  1.00  0.00     0.000 HD 
HETATM   24  C   UNL     1     -10.495   3.557  73.162  1.00  0.00    -0.172 A  
HETATM   25  O   UNL     1     -10.911   2.937  74.302  1.00  0.00    -0.150 OA 
HETATM   26  C   UNL     1     -11.032   4.809  72.878  1.00  0.00    -0.312 A  
HETATM   27  H   UNL     1     -11.543   3.340  74.887  1.00  0.00     0.000 HD 
ENDBRANCH  15  18
ENDBRANCH  14  15
ENDBRANCH  12  14
ENDBRANCH   2  12
TORSDOF 6
ENDMDL
MODEL      339
REMARK 921   NORMALIZED FREE ENERGY PREDICTED BY IDOCK:   -3.32 KCAL/MOL
REMARK 922        TOTAL FREE ENERGY PREDICTED BY IDOCK:   -5.09 KCAL/MOL
REMARK 923 INTER-LIGAND FREE ENERGY PREDICTED BY IDOCK:   -4.35 KCAL/MOL
REMARK 924 INTRA-LIGAND FREE ENERGY PREDICTED BY IDOCK:   -0.74 KCAL/MOL
REMARK 927      BINDING AFFINITY PREDICTED BY RF-SCORE:    0.00 PKD
ROOT
HETATM    1  C   UNL     1      -9.732   9.434  70.867  1.00  0.00    -0.320 C  
HETATM    2  C   UNL     1      -9.469   8.929  69.441  1.00  0.00    -0.161 C  
ENDROOT
BRANCH   2   3
HETATM    3  C   UNL     1      -8.715  10.041  68.664  1.00  0.00    -0.127 C  
BRANCH   3   4
HETATM    4  C   UNL     1      -9.602  11.063  67.990  1.00  0.00    -0.175 A  
HETATM    5  C   UNL     1     -11.260  11.610  66.301  1.00  0.00    -0.332 A  
HETATM    6  H   UNL     1     -12.701  13.510  65.429  1.00  0.00     0.000 HD 
HETATM    7  C   UNL     1      -9.632  12.395  68.429  1.00  0.00    -0.180 A  
HETATM    8  C   UNL     1     -10.418  10.683  66.915  1.00  0.00    -0.304 A  
HETATM    9  C   UNL     1     -10.474  13.325  67.812  1.00  0.00    -0.242 A  
HETATM   10  O   UNL     1     -12.145  13.787  66.148  1.00  0.00    -0.391 OA 
HETATM   11  C   UNL     1     -11.288  12.920  66.759  1.00  0.00    -0.322 A  
ENDBRANCH   3   4
ENDBRANCH   2   3
BRANCH   2  12
HETATM   12  N   UNL     1      -8.712   7.668  69.435  1.00  0.00    -0.136 NA 
HETATM   13  H   UNL     1      -7.883   7.748  70.023  1.00  0.00     0.000 HD 
BRANCH  12  14
HETATM   14  C   UNL     1      -9.498   6.490  69.816  1.00  0.00    -0.150 C  
BRANCH  14  15
HETATM   15  C   UNL     1     -10.010   5.707  68.579  1.00  0.00    -0.157 C  
HETATM   16  H   UNL     1     -11.580   5.759  67.382  1.00  0.00     0.000 HD 
HETATM   17  O   UNL     1     -11.267   6.239  68.139  1.00  0.00    -0.327 OA 
BRANCH  15  18
HETATM   18  C   UNL     1      -9.015   5.760  67.435  1.00  0.00    -0.108 A  
HETATM   19  O   UNL     1      -8.484   7.513  64.241  1.00  0.00    -0.367 OA 
HETATM   20  C   UNL     1      -8.312   6.668  65.297  1.00  0.00    -0.111 A  
HETATM   21  C   UNL     1      -9.207   6.651  66.368  1.00  0.00    -0.180 A  
HETATM   22  C   UNL     1      -7.213   5.819  65.267  1.00  0.00    -0.070 A  
HETATM   23  H   UNL     1      -7.875   7.525  63.512  1.00  0.00     0.000 HD 
HETATM   24  C   UNL     1      -7.015   4.940  66.323  1.00  0.00    -0.067 A  
HETATM   25  O   UNL     1      -5.958   4.079  66.349  1.00  0.00    -0.025 OA 
HETATM   26  C   UNL     1      -7.898   4.906  67.398  1.00  0.00    -0.095 A  
HETATM   27  H   UNL     1      -5.823   3.477  67.071  1.00  0.00     0.000 HD 
ENDBRANCH  15  18
ENDBRANCH  14  15
ENDBRANCH  12  14
ENDBRANCH   2  12
TORSDOF 6
ENDMDL
MODEL      340
REMARK 921   NORMALIZED FREE ENERGY PREDICTED BY IDOCK:   -3.30 KCAL/MOL
REMARK 922        TOTAL FREE ENERGY PREDICTED BY IDOCK:   -5.06 KCAL/MOL
REMARK 923 INTER-LIGAND FREE ENERGY PREDICTED BY IDOCK:   -4.58 KCAL/MOL
REMARK 924 INTRA-LIGAND FREE ENERGY PREDICTED BY IDOCK:   -0.48 KCAL/MOL
REMARK 927      BINDING AFFINITY PREDICTED BY RF-SCORE:    0.00 PKD
ROOT
HETATM    1  C   UNL     1      -9.471  11.084  65.287  1.00  0.00    -0.259 C  
HETATM    2  C   UNL     1      -9.898  10.286  66.527  1.00  0.00    -0.212 C  
ENDROOT
BRANCH   2   3
HETATM    3  C   UNL     1     -11.057  11.051  67.222  1.00  0.00    -0.359 C  
BRANCH   3   4
HETATM    4  C   UNL     1     -10.848  12.543  67.353  1.00  0.00    -0.272 A  
HETATM    5  C   UNL     1      -9.594  14.410  68.271  1.00  0.00    -0.211 A  
HETATM    6  H   UNL     1      -9.429  16.944  68.230  1.00  0.00     0.000 HD 
HETATM    7  C   UNL     1     -11.671  13.450  66.670  1.00  0.00    -0.428 A  
HETATM    8  C   UNL     1      -9.813  13.037  68.160  1.00  0.00    -0.228 A  
HETATM    9  C   UNL     1     -11.453  14.826  66.782  1.00  0.00    -0.343 A  
HETATM   10  O   UNL     1     -10.142  16.625  67.689  1.00  0.00    -0.258 OA 
HETATM   11  C   UNL     1     -10.409  15.293  67.575  1.00  0.00    -0.244 A  
ENDBRANCH   3   4
ENDBRANCH   2   3
BRANCH   2  12
HETATM   12  N   UNL     1     -10.298   8.912  66.185  1.00  0.00    -0.288 NA 
HETATM   13  H   UNL     1     -10.678   8.877  65.239  1.00  0.00     0.000 HD 
BRANCH  12  14
HETATM   14  C   UNL     1      -9.234   7.916  66.348  1.00  0.00    -0.191 C  
BRANCH  14  15
HETATM   15  C   UNL     1      -9.784   6.552  66.841  1.00  0.00    -0.158 C  
HETATM   16  H   UNL     1      -9.377   4.640  66.557  1.00  0.00     0.000 HD 
HETATM   17  O   UNL     1      -9.040   5.475  66.255  1.00  0.00    -0.137 OA 
BRANCH  15  18
HETATM   18  C   UNL     1      -9.723   6.440  68.353  1.00  0.00    -0.131 A  
HETATM   19  O   UNL     1     -10.588   4.074  71.039  1.00  0.00     0.318 OA 
HETATM   20  C   UNL     1     -10.149   5.190  70.389  1.00  0.00    -0.262 A  
HETATM   21  C   UNL     1     -10.167   5.274  68.995  1.00  0.00    -0.269 A  
HETATM   22  C   UNL     1      -9.685   6.244  71.165  1.00  0.00    -0.194 A  
HETATM   23  H   UNL     1     -10.575   4.018  71.987  1.00  0.00     0.000 HD 
HETATM   24  C   UNL     1      -9.240   7.398  70.533  1.00  0.00    -0.157 A  
HETATM   25  O   UNL     1      -8.778   8.468  71.240  1.00  0.00    -0.148 OA 
HETATM   26  C   UNL     1      -9.253   7.502  69.146  1.00  0.00    -0.144 A  
HETATM   27  H   UNL     1      -8.474   9.257  70.808  1.00  0.00     0.000 HD 
ENDBRANCH  15  18
ENDBRANCH  14  15
ENDBRANCH  12  14
ENDBRANCH   2  12
TORSDOF 6
ENDMDL
MODEL      341
REMARK 921   NORMALIZED FREE ENERGY PREDICTED BY IDOCK:   -3.25 KCAL/MOL
REMARK 922        TOTAL FREE ENERGY PREDICTED BY IDOCK:   -5.01 KCAL/MOL
REMARK 923 INTER-LIGAND FREE ENERGY PREDICTED BY IDOCK:   -3.86 KCAL/MOL
REMARK 924 INTRA-LIGAND FREE ENERGY PREDICTED BY IDOCK:   -1.14 KCAL/MOL
REMARK 927      BINDING AFFINITY PREDICTED BY RF-SCORE:    0.00 PKD
ROOT
HETATM    1  C   UNL     1      -6.991   4.062  68.864  1.00  0.00    -0.047 C  
HETATM    2  C   UNL     1      -7.488   5.168  69.807  1.00  0.00    -0.061 C  
ENDROOT
BRANCH   2   3
HETATM    3  C   UNL     1      -8.908   5.594  69.349  1.00  0.00    -0.114 C  
BRANCH   3   4
HETATM    4  C   UNL     1      -9.152   7.086  69.330  1.00  0.00    -0.145 A  
HETATM    5  C   UNL     1      -8.295   9.345  69.080  1.00  0.00    -0.125 A  
HETATM    6  H   UNL     1      -9.014  11.780  69.010  1.00  0.00     0.000 HD 
HETATM    7  C   UNL     1     -10.440   7.610  69.507  1.00  0.00    -0.227 A  
HETATM    8  C   UNL     1      -8.081   7.968  69.124  1.00  0.00    -0.119 A  
HETATM    9  C   UNL     1     -10.655   8.991  69.465  1.00  0.00    -0.231 A  
HETATM   10  O   UNL     1      -9.748  11.197  69.163  1.00  0.00    -0.149 OA 
HETATM   11  C   UNL     1      -9.580   9.846  69.241  1.00  0.00    -0.205 A  
ENDBRANCH   3   4
ENDBRANCH   2   3
BRANCH   2  12
HETATM   12  N   UNL     1      -7.490   4.732  71.212  1.00  0.00    -0.074 NA 
HETATM   13  H   UNL     1      -7.898   5.451  71.807  1.00  0.00     0.000 HD 
BRANCH  12  14
HETATM   14  C   UNL     1      -8.149   3.442  71.442  1.00  0.00    -0.060 C  
BRANCH  14  15
HETATM   15  C   UNL     1      -9.045   3.464  72.708  1.00  0.00    -0.088 C  
HETATM   16  H   UNL     1      -8.812   3.188  74.650  1.00  0.00     0.000 HD 
HETATM   17  O   UNL     1      -8.264   3.174  73.875  1.00  0.00    -0.072 OA 
BRANCH  15  18
HETATM   18  C   UNL     1      -9.730   4.807  72.883  1.00  0.00    -0.167 A  
HETATM   19  O   UNL     1     -12.853   6.519  71.948  1.00  0.00    -0.423 OA 
HETATM   20  C   UNL     1     -11.618   6.275  72.473  1.00  0.00    -0.232 A  
HETATM   21  C   UNL     1     -11.008   5.026  72.347  1.00  0.00    -0.198 A  
HETATM   22  C   UNL     1     -10.985   7.319  73.136  1.00  0.00    -0.384 A  
HETATM   23  H   UNL     1     -13.267   7.369  72.034  1.00  0.00     0.000 HD 
HETATM   24  C   UNL     1      -9.723   7.105  73.674  1.00  0.00    -0.269 A  
HETATM   25  O   UNL     1      -9.049   8.091  74.332  1.00  0.00    -0.341 OA 
HETATM   26  C   UNL     1      -9.097   5.867  73.556  1.00  0.00    -0.131 A  
HETATM   27  H   UNL     1      -8.186   7.944  74.699  1.00  0.00     0.000 HD 
ENDBRANCH  15  18
ENDBRANCH  14  15
ENDBRANCH  12  14
ENDBRANCH   2  12
TORSDOF 6
ENDMDL
MODEL      342
REMARK 921   NORMALIZED FREE ENERGY PREDICTED BY IDOCK:   -3.24 KCAL/MOL
REMARK 922        TOTAL FREE ENERGY PREDICTED BY IDOCK:   -4.99 KCAL/MOL
REMARK 923 INTER-LIGAND FREE ENERGY PREDICTED BY IDOCK:   -3.75 KCAL/MOL
REMARK 924 INTRA-LIGAND FREE ENERGY PREDICTED BY IDOCK:   -1.24 KCAL/MOL
REMARK 927      BINDING AFFINITY PREDICTED BY RF-SCORE:    0.00 PKD
ROOT
HETATM    1  C   UNL     1     -10.781   5.144  66.781  1.00  0.00    -0.187 C  
HETATM    2  C   UNL     1     -10.134   6.502  67.089  1.00  0.00    -0.170 C  
ENDROOT
BRANCH   2   3
HETATM    3  C   UNL     1      -9.597   7.097  65.759  1.00  0.00     0.366 C  
BRANCH   3   4
HETATM    4  C   UNL     1      -8.629   8.248  65.919  1.00  0.00    -0.170 A  
HETATM    5  C   UNL     1      -8.078  10.586  65.561  1.00  0.00    -0.155 A  
HETATM    6  H   UNL     1      -6.311  12.342  66.056  1.00  0.00     0.000 HD 
HETATM    7  C   UNL     1      -7.411   8.079  66.592  1.00  0.00    -0.089 A  
HETATM    8  C   UNL     1      -8.950   9.510  65.399  1.00  0.00    -0.244 A  
HETATM    9  C   UNL     1      -6.536   9.157  66.753  1.00  0.00    -0.067 A  
HETATM   10  O   UNL     1      -6.073  11.490  66.404  1.00  0.00    -0.128 OA 
HETATM   11  C   UNL     1      -6.884  10.405  66.244  1.00  0.00    -0.117 A  
ENDBRANCH   3   4
ENDBRANCH   2   3
BRANCH   2  12
HETATM   12  N   UNL     1     -11.075   7.424  67.742  1.00  0.00    -0.511 NA 
HETATM   13  H   UNL     1     -11.753   6.904  68.300  1.00  0.00     0.000 HD 
BRANCH  12  14
HETATM   14  C   UNL     1     -10.435   8.465  68.554  1.00  0.00    -0.164 C  
BRANCH  14  15
HETATM   15  C   UNL     1     -11.442   9.558  68.997  1.00  0.00     0.286 C  
HETATM   16  H   UNL     1     -12.301  10.138  70.679  1.00  0.00     0.000 HD 
HETATM   17  O   UNL     1     -11.684   9.468  70.408  1.00  0.00    -0.247 OA 
BRANCH  15  18
HETATM   18  C   UNL     1     -10.939  10.949  68.662  1.00  0.00    -0.274 A  
HETATM   19  O   UNL     1      -7.794  12.864  68.582  1.00  0.00    -0.223 OA 
HETATM   20  C   UNL     1      -9.116  12.541  68.485  1.00  0.00    -0.061 A  
HETATM   21  C   UNL     1      -9.571  11.249  68.754  1.00  0.00    -0.160 A  
HETATM   22  C   UNL     1      -9.996  13.549  68.112  1.00  0.00    -0.240 A  
HETATM   23  H   UNL     1      -7.485  13.743  68.399  1.00  0.00     0.000 HD 
HETATM   24  C   UNL     1     -11.349  13.255  68.013  1.00  0.00    -0.291 A  
HETATM   25  O   UNL     1     -12.262  14.202  67.656  1.00  0.00    -0.550 OA 
HETATM   26  C   UNL     1     -11.823  11.974  68.280  1.00  0.00    -0.351 A  
HETATM   27  H   UNL     1     -13.189  14.001  67.588  1.00  0.00     0.000 HD 
ENDBRANCH  15  18
ENDBRANCH  14  15
ENDBRANCH  12  14
ENDBRANCH   2  12
TORSDOF 6
ENDMDL
MODEL      343
REMARK 921   NORMALIZED FREE ENERGY PREDICTED BY IDOCK:   -3.18 KCAL/MOL
REMARK 922        TOTAL FREE ENERGY PREDICTED BY IDOCK:   -4.91 KCAL/MOL
REMARK 923 INTER-LIGAND FREE ENERGY PREDICTED BY IDOCK:   -4.50 KCAL/MOL
REMARK 924 INTRA-LIGAND FREE ENERGY PREDICTED BY IDOCK:   -0.41 KCAL/MOL
REMARK 927      BINDING AFFINITY PREDICTED BY RF-SCORE:    0.00 PKD
ROOT
HETATM    1  C   UNL     1      -7.611   2.856  70.807  1.00  0.00    -0.039 C  
HETATM    2  C   UNL     1      -7.812   4.269  70.242  1.00  0.00    -0.052 C  
ENDROOT
BRANCH   2   3
HETATM    3  C   UNL     1      -6.627   4.586  69.291  1.00  0.00    -0.040 C  
BRANCH   3   4
HETATM    4  C   UNL     1      -7.001   5.332  68.031  1.00  0.00    -0.062 A  
HETATM    5  C   UNL     1      -7.109   7.415  66.784  1.00  0.00    -0.079 A  
HETATM    6  H   UNL     1      -7.747   8.383  64.525  1.00  0.00     0.000 HD 
HETATM    7  C   UNL     1      -7.549   4.662  66.929  1.00  0.00    -0.087 A  
HETATM    8  C   UNL     1      -6.792   6.717  67.949  1.00  0.00    -0.077 A  
HETATM    9  C   UNL     1      -7.870   5.361  65.761  1.00  0.00    -0.100 A  
HETATM   10  O   UNL     1      -7.907   7.447  64.569  1.00  0.00    -0.120 OA 
HETATM   11  C   UNL     1      -7.637   6.731  65.697  1.00  0.00    -0.090 A  
ENDBRANCH   3   4
ENDBRANCH   2   3
BRANCH   2  12
HETATM   12  N   UNL     1      -9.102   4.405  69.548  1.00  0.00    -0.104 NA 
HETATM   13  H   UNL     1      -9.467   3.488  69.290  1.00  0.00     0.000 HD 
BRANCH  12  14
HETATM   14  C   UNL     1     -10.111   5.167  70.292  1.00  0.00    -0.268 C  
BRANCH  14  15
HETATM   15  C   UNL     1     -10.015   6.689  70.011  1.00  0.00    -0.172 C  
HETATM   16  H   UNL     1      -9.913   7.864  68.427  1.00  0.00     0.000 HD 
HETATM   17  O   UNL     1      -9.971   6.932  68.599  1.00  0.00    -0.143 OA 
BRANCH  15  18
HETATM   18  C   UNL     1     -11.186   7.442  70.615  1.00  0.00    -0.292 A  
HETATM   19  O   UNL     1     -12.283  10.898  71.257  1.00  0.00    -0.341 OA 
HETATM   20  C   UNL     1     -12.255   9.535  71.220  1.00  0.00    -0.348 A  
HETATM   21  C   UNL     1     -11.196   8.846  70.626  1.00  0.00    -0.308 A  
HETATM   22  C   UNL     1     -13.319   8.856  71.798  1.00  0.00    -0.436 A  
HETATM   23  H   UNL     1     -13.003  11.367  71.661  1.00  0.00     0.000 HD 
HETATM   24  C   UNL     1     -13.316   7.467  71.784  1.00  0.00    -0.315 A  
HETATM   25  O   UNL     1     -14.330   6.744  72.339  1.00  0.00    -0.615 OA 
HETATM   26  C   UNL     1     -12.268   6.762  71.200  1.00  0.00    -0.413 A  
HETATM   27  H   UNL     1     -14.327   5.794  72.330  1.00  0.00     0.000 HD 
ENDBRANCH  15  18
ENDBRANCH  14  15
ENDBRANCH  12  14
ENDBRANCH   2  12
TORSDOF 6
ENDMDL
MODEL      344
REMARK 921   NORMALIZED FREE ENERGY PREDICTED BY IDOCK:   -3.18 KCAL/MOL
REMARK 922        TOTAL FREE ENERGY PREDICTED BY IDOCK:   -4.91 KCAL/MOL
REMARK 923 INTER-LIGAND FREE ENERGY PREDICTED BY IDOCK:   -3.88 KCAL/MOL
REMARK 924 INTRA-LIGAND FREE ENERGY PREDICTED BY IDOCK:   -1.02 KCAL/MOL
REMARK 927      BINDING AFFINITY PREDICTED BY RF-SCORE:    0.00 PKD
ROOT
HETATM    1  C   UNL     1      -7.809   4.866  66.367  1.00  0.00    -0.099 C  
HETATM    2  C   UNL     1      -8.065   5.725  67.613  1.00  0.00    -0.102 C  
ENDROOT
BRANCH   2   3
HETATM    3  C   UNL     1      -9.193   6.739  67.281  1.00  0.00    -0.140 C  
BRANCH   3   4
HETATM    4  C   UNL     1      -8.907   8.167  67.687  1.00  0.00    -0.136 A  
HETATM    5  C   UNL     1      -7.367   9.826  68.570  1.00  0.00    -0.074 A  
HETATM    6  H   UNL     1      -7.145  12.304  69.076  1.00  0.00     0.000 HD 
HETATM    7  C   UNL     1      -9.876   9.169  67.535  1.00  0.00    -0.227 A  
HETATM    8  C   UNL     1      -7.653   8.508  68.214  1.00  0.00    -0.097 A  
HETATM    9  C   UNL     1      -9.591  10.490  67.893  1.00  0.00    -0.164 A  
HETATM   10  O   UNL     1      -8.003  12.088  68.732  1.00  0.00    -0.109 OA 
HETATM   11  C   UNL     1      -8.334  10.807  68.398  1.00  0.00    -0.132 A  
ENDBRANCH   3   4
ENDBRANCH   2   3
BRANCH   2  12
HETATM   12  N   UNL     1      -8.415   4.905  68.784  1.00  0.00    -0.086 NA 
HETATM   13  H   UNL     1      -8.165   5.390  69.646  1.00  0.00     0.000 HD 
BRANCH  12  14
HETATM   14  C   UNL     1      -9.818   4.479  68.824  1.00  0.00    -0.110 C  
BRANCH  14  15
HETATM   15  C   UNL     1     -10.273   4.114  70.262  1.00  0.00     0.247 C  
HETATM   16  H   UNL     1      -9.564   3.075  71.784  1.00  0.00     0.000 HD 
HETATM   17  O   UNL     1      -9.285   3.298  70.904  1.00  0.00    -0.105 OA 
BRANCH  15  18
HETATM   18  C   UNL     1     -10.522   5.355  71.099  1.00  0.00    -0.295 A  
HETATM   19  O   UNL     1      -9.649   6.753  74.392  1.00  0.00    -0.242 OA 
HETATM   20  C   UNL     1     -10.197   6.609  73.151  1.00  0.00    -0.219 A  
HETATM   21  C   UNL     1      -9.932   5.485  72.366  1.00  0.00    -0.201 A  
HETATM   22  C   UNL     1     -11.032   7.621  72.697  1.00  0.00    -0.405 A  
HETATM   23  H   UNL     1      -9.829   7.517  74.926  1.00  0.00     0.000 HD 
HETATM   24  C   UNL     1     -11.612   7.500  71.442  1.00  0.00    -0.275 A  
HETATM   25  O   UNL     1     -12.444   8.458  70.943  1.00  0.00    -0.492 OA 
HETATM   26  C   UNL     1     -11.364   6.386  70.646  1.00  0.00    -0.419 A  
HETATM   27  H   UNL     1     -12.842   8.374  70.084  1.00  0.00     0.000 HD 
ENDBRANCH  15  18
ENDBRANCH  14  15
ENDBRANCH  12  14
ENDBRANCH   2  12
TORSDOF 6
ENDMDL
MODEL      345
REMARK 921   NORMALIZED FREE ENERGY PREDICTED BY IDOCK:   -3.09 KCAL/MOL
REMARK 922        TOTAL FREE ENERGY PREDICTED BY IDOCK:   -4.78 KCAL/MOL
REMARK 923 INTER-LIGAND FREE ENERGY PREDICTED BY IDOCK:   -3.55 KCAL/MOL
REMARK 924 INTRA-LIGAND FREE ENERGY PREDICTED BY IDOCK:   -1.23 KCAL/MOL
REMARK 927      BINDING AFFINITY PREDICTED BY RF-SCORE:    0.00 PKD
ROOT
HETATM    1  C   UNL     1      -6.094   4.231  64.698  1.00  0.00    -0.026 C  
HETATM    2  C   UNL     1      -6.576   5.376  65.600  1.00  0.00    -0.041 C  
ENDROOT
BRANCH   2   3
HETATM    3  C   UNL     1      -6.398   6.711  64.829  1.00  0.00    -0.038 C  
BRANCH   3   4
HETATM    4  C   UNL     1      -7.121   7.896  65.429  1.00  0.00    -0.060 A  
HETATM    5  C   UNL     1      -7.219   9.669  67.086  1.00  0.00    -0.087 A  
HETATM    6  H   UNL     1      -8.600  11.670  67.820  1.00  0.00     0.000 HD 
HETATM    7  C   UNL     1      -8.330   8.355  64.887  1.00  0.00    -0.159 A  
HETATM    8  C   UNL     1      -6.577   8.560  66.538  1.00  0.00    -0.059 A  
HETATM    9  C   UNL     1      -8.976   9.466  65.438  1.00  0.00    -0.251 A  
HETATM   10  O   UNL     1      -8.989  11.224  67.077  1.00  0.00    -0.149 OA 
HETATM   11  C   UNL     1      -8.408  10.119  66.527  1.00  0.00    -0.124 A  
ENDBRANCH   3   4
ENDBRANCH   2   3
BRANCH   2  12
HETATM   12  N   UNL     1      -7.972   5.190  66.026  1.00  0.00    -0.106 NA 
HETATM   13  H   UNL     1      -8.383   4.383  65.556  1.00  0.00     0.000 HD 
BRANCH  12  14
HETATM   14  C   UNL     1      -8.150   5.081  67.478  1.00  0.00    -0.099 C  
BRANCH  14  15
HETATM   15  C   UNL     1      -9.632   4.837  67.866  1.00  0.00    -0.154 C  
HETATM   16  H   UNL     1     -10.687   3.399  68.715  1.00  0.00     0.000 HD 
HETATM   17  O   UNL     1      -9.780   3.549  68.478  1.00  0.00    -0.126 OA 
BRANCH  15  18
HETATM   18  C   UNL     1     -10.144   5.905  68.814  1.00  0.00    -0.220 A  
HETATM   19  O   UNL     1     -11.683   6.213  72.145  1.00  0.00    -0.309 OA 
HETATM   20  C   UNL     1     -11.166   6.532  70.924  1.00  0.00    -0.311 A  
HETATM   21  C   UNL     1     -10.657   5.551  70.071  1.00  0.00    -0.384 A  
HETATM   22  C   UNL     1     -11.166   7.872  70.557  1.00  0.00    -0.259 A  
HETATM   23  H   UNL     1     -12.029   6.881  72.725  1.00  0.00     0.000 HD 
HETATM   24  C   UNL     1     -10.655   8.228  69.316  1.00  0.00    -0.181 A  
HETATM   25  O   UNL     1     -10.633   9.525  68.897  1.00  0.00    -0.215 OA 
HETATM   26  C   UNL     1     -10.146   7.264  68.451  1.00  0.00    -0.188 A  
HETATM   27  H   UNL     1     -10.283   9.768  68.048  1.00  0.00     0.000 HD 
ENDBRANCH  15  18
ENDBRANCH  14  15
ENDBRANCH  12  14
ENDBRANCH   2  12
TORSDOF 6
ENDMDL
MODEL      346
REMARK 921   NORMALIZED FREE ENERGY PREDICTED BY IDOCK:   -3.09 KCAL/MOL
REMARK 922        TOTAL FREE ENERGY PREDICTED BY IDOCK:   -4.78 KCAL/MOL
REMARK 923 INTER-LIGAND FREE ENERGY PREDICTED BY IDOCK:   -4.70 KCAL/MOL
REMARK 924 INTRA-LIGAND FREE ENERGY PREDICTED BY IDOCK:   -0.07 KCAL/MOL
REMARK 927      BINDING AFFINITY PREDICTED BY RF-SCORE:    0.00 PKD
ROOT
HETATM    1  C   UNL     1     -10.917   9.579  67.436  1.00  0.00    -0.103 C  
HETATM    2  C   UNL     1     -10.787   9.960  68.917  1.00  0.00    -0.210 C  
ENDROOT
BRANCH   2   3
HETATM    3  C   UNL     1     -11.135  11.466  69.064  1.00  0.00    -0.300 C  
BRANCH   3   4
HETATM    4  C   UNL     1     -10.968  12.285  67.805  1.00  0.00    -0.274 A  
HETATM    5  C   UNL     1     -11.875  13.867  66.199  1.00  0.00    -0.422 A  
HETATM    6  H   UNL     1     -11.280  15.195  64.118  1.00  0.00     0.000 HD 
HETATM    7  C   UNL     1      -9.766  12.267  67.084  1.00  0.00    -0.203 A  
HETATM    8  C   UNL     1     -12.023  13.088  67.346  1.00  0.00    -0.372 A  
HETATM    9  C   UNL     1      -9.617  13.047  65.934  1.00  0.00    -0.126 A  
HETATM   10  O   UNL     1     -10.560  14.647  64.408  1.00  0.00    -0.197 OA 
HETATM   11  C   UNL     1     -10.672  13.848  65.508  1.00  0.00    -0.302 A  
ENDBRANCH   3   4
ENDBRANCH   2   3
BRANCH   2  12
HETATM   12  N   UNL     1     -11.646   9.130  69.776  1.00  0.00    -0.426 NA 
HETATM   13  H   UNL     1     -12.448   8.784  69.250  1.00  0.00     0.000 HD 
BRANCH  12  14
HETATM   14  C   UNL     1     -10.949   8.020  70.434  1.00  0.00    -0.248 C  
BRANCH  14  15
HETATM   15  C   UNL     1     -10.561   8.361  71.897  1.00  0.00    -0.300 C  
HETATM   16  H   UNL     1     -11.106   7.792  73.708  1.00  0.00     0.000 HD 
HETATM   17  O   UNL     1     -11.344   7.584  72.812  1.00  0.00    -0.337 OA 
BRANCH  15  18
HETATM   18  C   UNL     1      -9.087   8.109  72.156  1.00  0.00    -0.249 A  
HETATM   19  O   UNL     1      -6.916   5.990  74.243  1.00  0.00    -0.082 OA 
HETATM   20  C   UNL     1      -7.332   6.927  73.343  1.00  0.00    -0.077 A  
HETATM   21  C   UNL     1      -8.687   7.128  73.076  1.00  0.00    -0.150 A  
HETATM   22  C   UNL     1      -6.355   7.679  72.703  1.00  0.00    -0.060 A  
HETATM   23  H   UNL     1      -5.994   5.854  74.425  1.00  0.00     0.000 HD 
HETATM   24  C   UNL     1      -6.746   8.647  71.788  1.00  0.00    -0.082 A  
HETATM   25  O   UNL     1      -5.835   9.420  71.131  1.00  0.00    -0.056 OA 
HETATM   26  C   UNL     1      -8.092   8.864  71.510  1.00  0.00    -0.128 A  
HETATM   27  H   UNL     1      -6.103  10.083  70.505  1.00  0.00     0.000 HD 
ENDBRANCH  15  18
ENDBRANCH  14  15
ENDBRANCH  12  14
ENDBRANCH   2  12
TORSDOF 6
ENDMDL
MODEL      347
REMARK 921   NORMALIZED FREE ENERGY PREDICTED BY IDOCK:   -2.86 KCAL/MOL
REMARK 922        TOTAL FREE ENERGY PREDICTED BY IDOCK:   -4.47 KCAL/MOL
REMARK 923 INTER-LIGAND FREE ENERGY PREDICTED BY IDOCK:   -5.06 KCAL/MOL
REMARK 924 INTRA-LIGAND FREE ENERGY PREDICTED BY IDOCK:    0.59 KCAL/MOL
REMARK 927      BINDING AFFINITY PREDICTED BY RF-SCORE:    0.00 PKD
ROOT
HETATM    1  C   UNL     1     -10.907   9.358  67.933  1.00  0.00    -0.215 C  
HETATM    2  C   UNL     1     -10.422   8.053  68.578  1.00  0.00    -0.164 C  
ENDROOT
BRANCH   2   3
HETATM    3  C   UNL     1     -10.445   8.235  70.120  1.00  0.00    -0.225 C  
BRANCH   3   4
HETATM    4  C   UNL     1     -11.323   9.361  70.617  1.00  0.00    -0.352 A  
HETATM    5  C   UNL     1     -13.105  10.142  72.071  1.00  0.00    -0.538 A  
HETATM    6  H   UNL     1     -14.363  12.232  72.777  1.00  0.00     0.000 HD 
HETATM    7  C   UNL     1     -11.167  10.667  70.132  1.00  0.00    -0.378 A  
HETATM    8  C   UNL     1     -12.305   9.108  71.585  1.00  0.00    -0.434 A  
HETATM    9  C   UNL     1     -11.970  11.704  70.616  1.00  0.00    -0.356 A  
HETATM   10  O   UNL     1     -13.711  12.418  72.112  1.00  0.00    -0.405 OA 
HETATM   11  C   UNL     1     -12.926  11.432  71.590  1.00  0.00    -0.418 A  
ENDBRANCH   3   4
ENDBRANCH   2   3
BRANCH   2  12
HETATM   12  N   UNL     1     -11.238   6.900  68.167  1.00  0.00    -0.541 NA 
HETATM   13  H   UNL     1     -11.713   7.096  67.286  1.00  0.00     0.000 HD 
BRANCH  12  14
HETATM   14  C   UNL     1     -10.497   5.637  68.080  1.00  0.00    -0.200 C  
BRANCH  14  15
HETATM   15  C   UNL     1      -8.963   5.859  68.118  1.00  0.00    -0.115 C  
HETATM   16  H   UNL     1      -7.445   5.279  69.241  1.00  0.00     0.000 HD 
HETATM   17  O   UNL     1      -8.384   5.144  69.218  1.00  0.00    -0.086 OA 
BRANCH  15  18
HETATM   18  C   UNL     1      -8.303   5.413  66.826  1.00  0.00    -0.108 A  
HETATM   19  O   UNL     1      -6.572   2.487  65.411  1.00  0.00    -0.030 OA 
HETATM   20  C   UNL     1      -7.119   3.730  65.540  1.00  0.00    -0.063 A  
HETATM   21  C   UNL     1      -7.762   4.122  66.715  1.00  0.00    -0.089 A  
HETATM   22  C   UNL     1      -7.009   4.594  64.458  1.00  0.00    -0.050 A  
HETATM   23  H   UNL     1      -6.135   2.220  64.611  1.00  0.00     0.000 HD 
HETATM   24  C   UNL     1      -7.548   5.870  64.562  1.00  0.00    -0.087 A  
HETATM   25  O   UNL     1      -7.467   6.765  63.537  1.00  0.00    -0.067 OA 
HETATM   26  C   UNL     1      -8.190   6.281  65.726  1.00  0.00    -0.136 A  
HETATM   27  H   UNL     1      -7.835   7.638  63.608  1.00  0.00     0.000 HD 
ENDBRANCH  15  18
ENDBRANCH  14  15
ENDBRANCH  12  14
ENDBRANCH   2  12
TORSDOF 6
ENDMDL
MODEL      348
REMARK 921   NORMALIZED FREE ENERGY PREDICTED BY IDOCK:   -2.55 KCAL/MOL
REMARK 922        TOTAL FREE ENERGY PREDICTED BY IDOCK:   -4.05 KCAL/MOL
REMARK 923 INTER-LIGAND FREE ENERGY PREDICTED BY IDOCK:   -3.50 KCAL/MOL
REMARK 924 INTRA-LIGAND FREE ENERGY PREDICTED BY IDOCK:   -0.55 KCAL/MOL
REMARK 927      BINDING AFFINITY PREDICTED BY RF-SCORE:    0.00 PKD
ROOT
HETATM    1  C   UNL     1      -9.447   7.978  67.015  1.00  0.00    -0.223 C  
HETATM    2  C   UNL     1      -9.076   8.419  68.438  1.00  0.00    -0.135 C  
ENDROOT
BRANCH   2   3
HETATM    3  C   UNL     1     -10.382   8.809  69.182  1.00  0.00    -0.227 C  
BRANCH   3   4
HETATM    4  C   UNL     1     -10.648   8.035  70.452  1.00  0.00    -0.224 A  
HETATM    5  C   UNL     1     -11.339   5.979  71.546  1.00  0.00    -0.309 A  
HETATM    6  H   UNL     1     -11.612   4.902  73.830  1.00  0.00     0.000 HD 
HETATM    7  C   UNL     1     -10.430   8.613  71.711  1.00  0.00    -0.394 A  
HETATM    8  C   UNL     1     -11.112   6.713  70.383  1.00  0.00    -0.374 A  
HETATM    9  C   UNL     1     -10.658   7.878  72.878  1.00  0.00    -0.434 A  
HETATM   10  O   UNL     1     -11.310   5.800  73.895  1.00  0.00     0.189 OA 
HETATM   11  C   UNL     1     -11.102   6.563  72.783  1.00  0.00    -0.245 A  
ENDBRANCH   3   4
ENDBRANCH   2   3
BRANCH   2  12
HETATM   12  N   UNL     1      -8.343   7.371  69.164  1.00  0.00    -0.131 NA 
HETATM   13  H   UNL     1      -8.886   7.046  69.965  1.00  0.00     0.000 HD 
BRANCH  12  14
HETATM   14  C   UNL     1      -7.929   6.237  68.332  1.00  0.00    -0.105 C  
BRANCH  14  15
HETATM   15  C   UNL     1      -8.855   5.007  68.521  1.00  0.00    -0.101 C  
HETATM   16  H   UNL     1      -9.328   3.382  67.504  1.00  0.00     0.000 HD 
HETATM   17  O   UNL     1      -8.761   4.135  67.388  1.00  0.00    -0.103 OA 
BRANCH  15  18
HETATM   18  C   UNL     1      -8.506   4.235  69.780  1.00  0.00    -0.085 A  
HETATM   19  O   UNL     1      -9.976   1.736  72.051  1.00  0.00    -0.127 OA 
HETATM   20  C   UNL     1      -9.107   2.631  71.499  1.00  0.00    -0.095 A  
HETATM   21  C   UNL     1      -9.413   3.308  70.318  1.00  0.00    -0.234 A  
HETATM   22  C   UNL     1      -7.903   2.846  72.158  1.00  0.00    -0.054 A  
HETATM   23  H   UNL     1      -9.767   1.275  72.854  1.00  0.00     0.000 HD 
HETATM   24  C   UNL     1      -7.000   3.756  71.626  1.00  0.00    -0.031 A  
HETATM   25  O   UNL     1      -5.805   4.014  72.230  1.00  0.00    -0.007 OA 
HETATM   26  C   UNL     1      -7.289   4.445  70.452  1.00  0.00    -0.049 A  
HETATM   27  H   UNL     1      -5.188   4.638  71.866  1.00  0.00     0.000 HD 
ENDBRANCH  15  18
ENDBRANCH  14  15
ENDBRANCH  12  14
ENDBRANCH   2  12
TORSDOF 6
ENDMDL
MODEL      349
REMARK 921   NORMALIZED FREE ENERGY PREDICTED BY IDOCK:   -2.38 KCAL/MOL
REMARK 922        TOTAL FREE ENERGY PREDICTED BY IDOCK:   -3.82 KCAL/MOL
REMARK 923 INTER-LIGAND FREE ENERGY PREDICTED BY IDOCK:   -3.83 KCAL/MOL
REMARK 924 INTRA-LIGAND FREE ENERGY PREDICTED BY IDOCK:    0.00 KCAL/MOL
REMARK 927      BINDING AFFINITY PREDICTED BY RF-SCORE:    0.00 PKD
ROOT
HETATM    1  C   UNL     1      -9.539   7.995  67.149  1.00  0.00    -0.227 C  
HETATM    2  C   UNL     1      -9.573   9.125  68.188  1.00  0.00    -0.144 C  
ENDROOT
BRANCH   2   3
HETATM    3  C   UNL     1     -10.990   9.759  68.172  1.00  0.00    -0.228 C  
BRANCH   3   4
HETATM    4  C   UNL     1     -11.722   9.719  69.494  1.00  0.00     0.106 A  
HETATM    5  C   UNL     1     -12.761   8.435  71.275  1.00  0.00    -0.208 A  
HETATM    6  H   UNL     1     -13.891   8.670  73.537  1.00  0.00     0.000 HD 
HETATM    7  C   UNL     1     -12.018  10.899  70.192  1.00  0.00    -0.435 A  
HETATM    8  C   UNL     1     -12.107   8.488  70.045  1.00  0.00     0.709 A  
HETATM    9  C   UNL     1     -12.676  10.846  71.424  1.00  0.00    -0.539 A  
HETATM   10  O   UNL     1     -13.648   9.513  73.171  1.00  0.00     0.102 OA 
HETATM   11  C   UNL     1     -13.032   9.612  71.959  1.00  0.00    -0.428 A  
ENDBRANCH   3   4
ENDBRANCH   2   3
BRANCH   2  12
HETATM   12  N   UNL     1      -9.220   8.645  69.533  1.00  0.00    -0.149 NA 
HETATM   13  H   UNL     1      -9.998   8.787  70.177  1.00  0.00     0.000 HD 
BRANCH  12  14
HETATM   14  C   UNL     1      -8.766   7.251  69.577  1.00  0.00    -0.134 C  
BRANCH  14  15
HETATM   15  C   UNL     1      -9.883   6.290  70.063  1.00  0.00    -0.169 C  
HETATM   16  H   UNL     1     -10.376   4.396  69.803  1.00  0.00     0.000 HD 
HETATM   17  O   UNL     1      -9.692   4.984  69.505  1.00  0.00    -0.153 OA 
BRANCH  15  18
HETATM   18  C   UNL     1      -9.914   6.191  71.577  1.00  0.00    -0.211 A  
HETATM   19  O   UNL     1      -8.903   8.118  74.547  1.00  0.00    -0.353 OA 
HETATM   20  C   UNL     1      -9.401   7.124  73.757  1.00  0.00    -0.232 A  
HETATM   21  C   UNL     1      -9.409   7.236  72.366  1.00  0.00    -0.166 A  
HETATM   22  C   UNL     1      -9.897   5.990  74.389  1.00  0.00    -0.270 A  
HETATM   23  H   UNL     1      -8.897   8.041  75.494  1.00  0.00     0.000 HD 
HETATM   24  C   UNL     1     -10.403   4.957  73.612  1.00  0.00    -0.214 A  
HETATM   25  O   UNL     1     -10.899   3.818  74.173  1.00  0.00    -0.208 OA 
HETATM   26  C   UNL     1     -10.417   5.049  72.224  1.00  0.00    -0.275 A  
HETATM   27  H   UNL     1     -11.245   3.110  73.642  1.00  0.00     0.000 HD 
ENDBRANCH  15  18
ENDBRANCH  14  15
ENDBRANCH  12  14
ENDBRANCH   2  12
TORSDOF 6
ENDMDL
MODEL      350
REMARK 921   NORMALIZED FREE ENERGY PREDICTED BY IDOCK:   -1.83 KCAL/MOL
REMARK 922        TOTAL FREE ENERGY PREDICTED BY IDOCK:   -3.08 KCAL/MOL
REMARK 923 INTER-LIGAND FREE ENERGY PREDICTED BY IDOCK:   -3.45 KCAL/MOL
REMARK 924 INTRA-LIGAND FREE ENERGY PREDICTED BY IDOCK:    0.37 KCAL/MOL
REMARK 927      BINDING AFFINITY PREDICTED BY RF-SCORE:    0.00 PKD
ROOT
HETATM    1  C   UNL     1      -7.664  16.488  66.938  1.00  0.00    -0.266 C  
HETATM    2  C   UNL     1      -9.016  15.765  66.840  1.00  0.00    -0.240 C  
ENDROOT
BRANCH   2   3
HETATM    3  C   UNL     1      -8.790  14.408  66.121  1.00  0.00     0.226 C  
BRANCH   3   4
HETATM    4  C   UNL     1     -10.029  13.798  65.506  1.00  0.00    -0.260 A  
HETATM    5  C   UNL     1     -11.735  13.816  63.776  1.00  0.00    -0.219 A  
HETATM    6  H   UNL     1     -13.747  12.529  62.913  1.00  0.00     0.000 HD 
HETATM    7  C   UNL     1     -10.613  12.645  66.048  1.00  0.00    -0.294 A  
HETATM    8  C   UNL     1     -10.606  14.381  64.368  1.00  0.00     0.024 A  
HETATM    9  C   UNL     1     -11.745  12.078  65.456  1.00  0.00    -0.315 A  
HETATM   10  O   UNL     1     -13.376  12.128  63.691  1.00  0.00    -0.678 OA 
HETATM   11  C   UNL     1     -12.290  12.664  64.318  1.00  0.00    -0.435 A  
ENDBRANCH   3   4
ENDBRANCH   2   3
BRANCH   2  12
HETATM   12  N   UNL     1      -9.632  15.571  68.161  1.00  0.00    -0.199 NA 
HETATM   13  H   UNL     1     -10.636  15.744  68.116  1.00  0.00     0.000 HD 
BRANCH  12  14
HETATM   14  C   UNL     1      -9.365  14.261  68.765  1.00  0.00    -0.119 C  
BRANCH  14  15
HETATM   15  C   UNL     1      -7.855  13.906  68.741  1.00  0.00    -0.079 C  
HETATM   16  H   UNL     1      -6.334  13.969  70.000  1.00  0.00     0.000 HD 
HETATM   17  O   UNL     1      -7.259  14.187  70.014  1.00  0.00     0.127 OA 
BRANCH  15  18
HETATM   18  C   UNL     1      -7.631  12.446  68.393  1.00  0.00    -0.129 A  
HETATM   19  O   UNL     1      -9.043   9.125  69.127  1.00  0.00    -0.140 OA 
HETATM   20  C   UNL     1      -8.244  10.110  68.623  1.00  0.00    -0.111 A  
HETATM   21  C   UNL     1      -8.478  11.455  68.912  1.00  0.00    -0.028 A  
HETATM   22  C   UNL     1      -7.184   9.723  67.812  1.00  0.00    -0.088 A  
HETATM   23  H   UNL     1      -8.883   8.210  68.930  1.00  0.00     0.000 HD 
HETATM   24  C   UNL     1      -6.347  10.701  67.291  1.00  0.00    -0.064 A  
HETATM   25  O   UNL     1      -5.288  10.385  66.494  1.00  0.00    -0.040 OA 
HETATM   26  C   UNL     1      -6.562  12.047  67.571  1.00  0.00    -0.123 A  
HETATM   27  H   UNL     1      -4.715  11.053  66.138  1.00  0.00     0.000 HD 
ENDBRANCH  15  18
ENDBRANCH  14  15
ENDBRANCH  12  14
ENDBRANCH   2  12
TORSDOF 6
ENDMDL
MODEL      351
REMARK 921   NORMALIZED FREE ENERGY PREDICTED BY IDOCK:   -1.70 KCAL/MOL
REMARK 922        TOTAL FREE ENERGY PREDICTED BY IDOCK:   -2.90 KCAL/MOL
REMARK 923 INTER-LIGAND FREE ENERGY PREDICTED BY IDOCK:   -2.62 KCAL/MOL
REMARK 924 INTRA-LIGAND FREE ENERGY PREDICTED BY IDOCK:   -0.28 KCAL/MOL
REMARK 927      BINDING AFFINITY PREDICTED BY RF-SCORE:    0.00 PKD
ROOT
HETATM    1  C   UNL     1      -8.893   8.334  66.806  1.00  0.00    -0.158 C  
HETATM    2  C   UNL     1      -8.779   8.930  68.216  1.00  0.00    -0.134 C  
ENDROOT
BRANCH   2   3
HETATM    3  C   UNL     1     -10.178   8.869  68.886  1.00  0.00    -0.220 C  
BRANCH   3   4
HETATM    4  C   UNL     1     -10.380   7.711  69.837  1.00  0.00    -0.225 A  
HETATM    5  C   UNL     1     -10.999   5.393  70.213  1.00  0.00    -0.089 A  
HETATM    6  H   UNL     1     -11.161   3.615  72.020  1.00  0.00     0.000 HD 
HETATM    7  C   UNL     1     -10.114   7.847  71.207  1.00  0.00    -0.210 A  
HETATM    8  C   UNL     1     -10.832   6.476  69.351  1.00  0.00    -0.363 A  
HETATM    9  C   UNL     1     -10.284   6.762  72.072  1.00  0.00    -0.209 A  
HETATM   10  O   UNL     1     -10.866   4.449  72.367  1.00  0.00    -0.107 OA 
HETATM   11  C   UNL     1     -10.716   5.541  71.564  1.00  0.00    -0.222 A  
ENDBRANCH   3   4
ENDBRANCH   2   3
BRANCH   2  12
HETATM   12  N   UNL     1      -7.770   8.232  69.028  1.00  0.00    -0.096 NA 
HETATM   13  H   UNL     1      -8.216   7.547  69.638  1.00  0.00     0.000 HD 
BRANCH  12  14
HETATM   14  C   UNL     1      -6.699   7.602  68.248  1.00  0.00    -0.062 C  
BRANCH  14  15
HETATM   15  C   UNL     1      -7.181   6.313  67.533  1.00  0.00    -0.079 C  
HETATM   16  H   UNL     1      -6.631   5.233  65.973  1.00  0.00     0.000 HD 
HETATM   17  O   UNL     1      -6.336   6.022  66.411  1.00  0.00    -0.039 OA 
BRANCH  15  18
HETATM   18  C   UNL     1      -7.192   5.123  68.474  1.00  0.00    -0.062 A  
HETATM   19  O   UNL     1      -7.570   4.372  72.059  1.00  0.00    -0.075 OA 
HETATM   20  C   UNL     1      -7.377   4.217  70.718  1.00  0.00    -0.044 A  
HETATM   21  C   UNL     1      -7.409   5.309  69.848  1.00  0.00    -0.064 A  
HETATM   22  C   UNL     1      -7.145   2.931  70.247  1.00  0.00    -0.034 A  
HETATM   23  H   UNL     1      -7.549   3.629  72.650  1.00  0.00     0.000 HD 
HETATM   24  C   UNL     1      -6.936   2.742  68.888  1.00  0.00    -0.044 A  
HETATM   25  O   UNL     1      -6.698   1.505  68.366  1.00  0.00    -0.028 OA 
HETATM   26  C   UNL     1      -6.961   3.818  68.006  1.00  0.00    -0.051 A  
HETATM   27  H   UNL     1      -6.555   1.376  67.436  1.00  0.00     0.000 HD 
ENDBRANCH  15  18
ENDBRANCH  14  15
ENDBRANCH  12  14
ENDBRANCH   2  12
TORSDOF 6
ENDMDL
MODEL      352
REMARK 921   NORMALIZED FREE ENERGY PREDICTED BY IDOCK:   -1.47 KCAL/MOL
REMARK 922        TOTAL FREE ENERGY PREDICTED BY IDOCK:   -2.59 KCAL/MOL
REMARK 923 INTER-LIGAND FREE ENERGY PREDICTED BY IDOCK:   -2.18 KCAL/MOL
REMARK 924 INTRA-LIGAND FREE ENERGY PREDICTED BY IDOCK:   -0.42 KCAL/MOL
REMARK 927      BINDING AFFINITY PREDICTED BY RF-SCORE:    0.00 PKD
ROOT
HETATM    1  C   UNL     1      -8.308  15.807  69.762  1.00  0.00     0.139 C  
HETATM    2  C   UNL     1      -8.289  15.357  68.294  1.00  0.00    -0.150 C  
ENDROOT
BRANCH   2   3
HETATM    3  C   UNL     1      -6.947  15.814  67.663  1.00  0.00    -0.194 C  
BRANCH   3   4
HETATM    4  C   UNL     1      -6.651  17.291  67.792  1.00  0.00    -0.168 A  
HETATM    5  C   UNL     1      -5.292  19.083  68.712  1.00  0.00    -0.200 A  
HETATM    6  H   UNL     1      -4.976  21.602  68.667  1.00  0.00     0.000 HD 
HETATM    7  C   UNL     1      -7.415  18.244  67.104  1.00  0.00    -0.227 A  
HETATM    8  C   UNL     1      -5.592  17.725  68.603  1.00  0.00    -0.161 A  
HETATM    9  C   UNL     1      -7.116  19.605  67.214  1.00  0.00    -0.237 A  
HETATM   10  O   UNL     1      -5.705  21.325  68.124  1.00  0.00    -0.322 OA 
HETATM   11  C   UNL     1      -6.049  20.011  68.011  1.00  0.00    -0.234 A  
ENDBRANCH   3   4
ENDBRANCH   2   3
BRANCH   2  12
HETATM   12  N   UNL     1      -8.471  13.903  68.163  1.00  0.00    -0.163 NA 
HETATM   13  H   UNL     1      -9.411  13.634  68.452  1.00  0.00     0.000 HD 
BRANCH  12  14
HETATM   14  C   UNL     1      -8.176  13.377  66.825  1.00  0.00     0.189 C  
BRANCH  14  15
HETATM   15  C   UNL     1      -9.415  12.703  66.180  1.00  0.00    -0.175 C  
HETATM   16  H   UNL     1     -10.241  12.608  64.388  1.00  0.00     0.000 HD 
HETATM   17  O   UNL     1      -9.483  13.021  64.784  1.00  0.00     0.222 OA 
BRANCH  15  18
HETATM   18  C   UNL     1      -9.382  11.195  66.350  1.00  0.00    -0.207 A  
HETATM   19  O   UNL     1      -9.496   8.127  64.318  1.00  0.00     0.768 OA 
HETATM   20  C   UNL     1      -9.439   8.967  65.391  1.00  0.00    -0.092 A  
HETATM   21  C   UNL     1      -9.427  10.354  65.228  1.00  0.00    -0.290 A  
HETATM   22  C   UNL     1      -9.395   8.392  66.655  1.00  0.00    -0.245 A  
HETATM   23  H   UNL     1      -9.504   7.184  64.429  1.00  0.00     0.000 HD 
HETATM   24  C   UNL     1      -9.345   9.221  67.767  1.00  0.00    -0.128 A  
HETATM   25  O   UNL     1      -9.306   8.717  69.033  1.00  0.00    -0.144 OA 
HETATM   26  C   UNL     1      -9.336  10.606  67.626  1.00  0.00    -0.156 A  
HETATM   27  H   UNL     1      -9.272   9.284  69.795  1.00  0.00     0.000 HD 
ENDBRANCH  15  18
ENDBRANCH  14  15
ENDBRANCH  12  14
ENDBRANCH   2  12
TORSDOF 6
ENDMDL
MODEL      353
REMARK 921   NORMALIZED FREE ENERGY PREDICTED BY IDOCK:   -1.19 KCAL/MOL
REMARK 922        TOTAL FREE ENERGY PREDICTED BY IDOCK:   -2.22 KCAL/MOL
REMARK 923 INTER-LIGAND FREE ENERGY PREDICTED BY IDOCK:   -3.57 KCAL/MOL
REMARK 924 INTRA-LIGAND FREE ENERGY PREDICTED BY IDOCK:    1.35 KCAL/MOL
REMARK 927      BINDING AFFINITY PREDICTED BY RF-SCORE:    0.00 PKD
ROOT
HETATM    1  C   UNL     1      -8.743   8.555  66.961  1.00  0.00    -0.132 C  
HETATM    2  C   UNL     1      -8.865   9.957  67.573  1.00  0.00    -0.128 C  
ENDROOT
BRANCH   2   3
HETATM    3  C   UNL     1     -10.366  10.237  67.852  1.00  0.00    -0.234 C  
BRANCH   3   4
HETATM    4  C   UNL     1     -10.868   9.753  69.193  1.00  0.00    -0.231 A  
HETATM    5  C   UNL     1     -11.416   7.916  70.685  1.00  0.00    -0.247 A  
HETATM    6  H   UNL     1     -12.199   7.398  73.045  1.00  0.00     0.000 HD 
HETATM    7  C   UNL     1     -11.221  10.659  70.203  1.00  0.00    -0.378 A  
HETATM    8  C   UNL     1     -10.978   8.377  69.445  1.00  0.00    -0.016 A  
HETATM    9  C   UNL     1     -11.662  10.197  71.446  1.00  0.00    -0.373 A  
HETATM   10  O   UNL     1     -12.143   8.333  72.886  1.00  0.00    -0.290 OA 
HETATM   11  C   UNL     1     -11.746   8.828  71.679  1.00  0.00    -0.332 A  
ENDBRANCH   3   4
ENDBRANCH   2   3
BRANCH   2  12
HETATM   12  N   UNL     1      -8.063  10.093  68.799  1.00  0.00    -0.104 NA 
HETATM   13  H   UNL     1      -8.666  10.269  69.602  1.00  0.00     0.000 HD 
BRANCH  12  14
HETATM   14  C   UNL     1      -7.173   8.957  69.067  1.00  0.00    -0.072 C  
BRANCH  14  15
HETATM   15  C   UNL     1      -7.955   7.624  69.200  1.00  0.00    -0.120 C  
HETATM   16  H   UNL     1      -7.960   5.856  68.319  1.00  0.00     0.000 HD 
HETATM   17  O   UNL     1      -7.482   6.673  68.237  1.00  0.00    -0.091 OA 
BRANCH  15  18
HETATM   18  C   UNL     1      -7.823   7.038  70.593  1.00  0.00    -0.097 A  
HETATM   19  O   UNL     1      -8.159   8.047  74.118  1.00  0.00    -0.213 OA 
HETATM   20  C   UNL     1      -7.924   7.297  73.003  1.00  0.00    -0.098 A  
HETATM   21  C   UNL     1      -8.087   7.827  71.722  1.00  0.00    -0.118 A  
HETATM   22  C   UNL     1      -7.514   5.983  73.189  1.00  0.00    -0.097 A  
HETATM   23  H   UNL     1      -8.049   7.686  74.989  1.00  0.00     0.000 HD 
HETATM   24  C   UNL     1      -7.258   5.196  72.074  1.00  0.00    -0.085 A  
HETATM   25  O   UNL     1      -6.847   3.901  72.192  1.00  0.00    -0.033 OA 
HETATM   26  C   UNL     1      -7.411   5.708  70.790  1.00  0.00    -0.084 A  
HETATM   27  H   UNL     1      -6.671   3.363  71.429  1.00  0.00     0.000 HD 
ENDBRANCH  15  18
ENDBRANCH  14  15
ENDBRANCH  12  14
ENDBRANCH   2  12
TORSDOF 6
ENDMDL
MODEL      354
REMARK 921   NORMALIZED FREE ENERGY PREDICTED BY IDOCK:    0.70 KCAL/MOL
REMARK 922        TOTAL FREE ENERGY PREDICTED BY IDOCK:    0.34 KCAL/MOL
REMARK 923 INTER-LIGAND FREE ENERGY PREDICTED BY IDOCK:   -0.38 KCAL/MOL
REMARK 924 INTRA-LIGAND FREE ENERGY PREDICTED BY IDOCK:    0.72 KCAL/MOL
REMARK 927      BINDING AFFINITY PREDICTED BY RF-SCORE:    0.00 PKD
ROOT
HETATM    1  C   UNL     1     -11.384  17.404  66.560  1.00  0.00     0.995 C  
HETATM    2  C   UNL     1     -11.930  17.337  67.993  1.00  0.00     1.621 C  
ENDROOT
BRANCH   2   3
HETATM    3  C   UNL     1     -12.056  15.843  68.396  1.00  0.00     0.202 C  
BRANCH   3   4
HETATM    4  C   UNL     1     -11.503  14.861  67.388  1.00  0.00    -0.354 A  
HETATM    5  C   UNL     1     -11.555  12.659  66.363  1.00  0.00    -0.441 A  
HETATM    6  H   UNL     1     -10.495  11.264  64.525  1.00  0.00     0.000 HD 
HETATM    7  C   UNL     1     -10.464  15.224  66.520  1.00  0.00    -0.299 A  
HETATM    8  C   UNL     1     -12.038  13.567  67.304  1.00  0.00    -0.367 A  
HETATM    9  C   UNL     1      -9.978  14.314  65.577  1.00  0.00    -0.341 A  
HETATM   10  O   UNL     1     -10.113  12.132  64.577  1.00  0.00    -0.279 OA 
HETATM   11  C   UNL     1     -10.536  13.041  65.501  1.00  0.00    -0.282 A  
ENDBRANCH   3   4
ENDBRANCH   2   3
BRANCH   2  12
HETATM   12  N   UNL     1     -11.079  18.073  68.940  1.00  0.00     0.155 NA 
HETATM   13  H   UNL     1     -10.450  17.434  69.426  1.00  0.00     0.000 HD 
BRANCH  12  14
HETATM   14  C   UNL     1     -10.323  19.178  68.340  1.00  0.00    -0.327 C  
BRANCH  14  15
HETATM   15  C   UNL     1      -8.816  19.115  68.700  1.00  0.00    -0.365 C  
HETATM   16  H   UNL     1      -7.637  17.969  69.795  1.00  0.00     0.000 HD 
HETATM   17  O   UNL     1      -8.560  18.008  69.574  1.00  0.00     0.384 OA 
BRANCH  15  18
HETATM   18  C   UNL     1      -7.951  18.986  67.460  1.00  0.00    -0.276 A  
HETATM   19  O   UNL     1      -7.662  20.390  64.068  1.00  0.00     0.595 OA 
HETATM   20  C   UNL     1      -7.430  19.635  65.180  1.00  0.00     0.375 A  
HETATM   21  C   UNL     1      -8.201  19.786  66.334  1.00  0.00    -0.371 A  
HETATM   22  C   UNL     1      -6.399  18.706  65.122  1.00  0.00    -0.247 A  
HETATM   23  H   UNL     1      -7.137  20.287  63.283  1.00  0.00     0.000 HD 
HETATM   24  C   UNL     1      -6.144  17.916  66.235  1.00  0.00    -0.206 A  
HETATM   25  O   UNL     1      -5.150  16.984  66.238  1.00  0.00    -0.348 OA 
HETATM   26  C   UNL     1      -6.903  18.049  67.394  1.00  0.00    -0.202 A  
HETATM   27  H   UNL     1      -4.976  16.443  66.999  1.00  0.00     0.000 HD 
ENDBRANCH  15  18
ENDBRANCH  14  15
ENDBRANCH  12  14
ENDBRANCH   2  12
TORSDOF 6
ENDMDL
MODEL      355
REMARK 921   NORMALIZED FREE ENERGY PREDICTED BY IDOCK:    0.89 KCAL/MOL
REMARK 922        TOTAL FREE ENERGY PREDICTED BY IDOCK:    0.60 KCAL/MOL
REMARK 923 INTER-LIGAND FREE ENERGY PREDICTED BY IDOCK:    0.56 KCAL/MOL
REMARK 924 INTRA-LIGAND FREE ENERGY PREDICTED BY IDOCK:    0.04 KCAL/MOL
REMARK 927      BINDING AFFINITY PREDICTED BY RF-SCORE:    0.00 PKD
ROOT
HETATM    1  C   UNL     1     -11.278  17.352  66.504  1.00  0.00     0.699 C  
HETATM    2  C   UNL     1     -11.843  17.193  67.923  1.00  0.00     1.189 C  
ENDROOT
BRANCH   2   3
HETATM    3  C   UNL     1     -12.186  15.695  68.144  1.00  0.00     0.421 C  
BRANCH   3   4
HETATM    4  C   UNL     1     -12.158  15.240  69.586  1.00  0.00    -0.342 A  
HETATM    5  C   UNL     1     -11.867  13.462  71.215  1.00  0.00     0.493 A  
HETATM    6  H   UNL     1     -11.789  13.008  73.713  1.00  0.00     0.000 HD 
HETATM    7  C   UNL     1     -12.358  16.148  70.634  1.00  0.00     0.069 A  
HETATM    8  C   UNL     1     -11.919  13.892  69.890  1.00  0.00    -0.405 A  
HETATM    9  C   UNL     1     -12.308  15.718  71.964  1.00  0.00    -0.534 A  
HETATM   10  O   UNL     1     -11.964  13.922  73.523  1.00  0.00     0.492 OA 
HETATM   11  C   UNL     1     -12.052  14.379  72.242  1.00  0.00    -0.040 A  
ENDBRANCH   3   4
ENDBRANCH   2   3
BRANCH   2  12
HETATM   12  N   UNL     1     -10.905  17.680  68.946  1.00  0.00    -0.253 NA 
HETATM   13  H   UNL     1     -10.330  16.914  69.296  1.00  0.00     0.000 HD 
BRANCH  12  14
HETATM   14  C   UNL     1     -10.059  18.795  68.507  1.00  0.00    -0.392 C  
BRANCH  14  15
HETATM   15  C   UNL     1      -8.549  18.484  68.681  1.00  0.00    -0.296 C  
HETATM   16  H   UNL     1      -7.445  16.950  69.253  1.00  0.00     0.000 HD 
HETATM   17  O   UNL     1      -8.369  17.141  69.147  1.00  0.00    -0.157 OA 
BRANCH  15  18
HETATM   18  C   UNL     1      -7.788  18.672  67.382  1.00  0.00    -0.242 A  
HETATM   19  O   UNL     1      -7.468  21.096  64.628  1.00  0.00    -0.037 OA 
HETATM   20  C   UNL     1      -7.299  19.984  65.400  1.00  0.00    -0.169 A  
HETATM   21  C   UNL     1      -7.969  19.833  66.615  1.00  0.00    -0.333 A  
HETATM   22  C   UNL     1      -6.436  19.002  64.930  1.00  0.00    -0.147 A  
HETATM   23  H   UNL     1      -7.012  21.198  63.802  1.00  0.00     0.000 HD 
HETATM   24  C   UNL     1      -6.249  17.854  65.688  1.00  0.00    -0.175 A  
HETATM   25  O   UNL     1      -5.420  16.853  65.277  1.00  0.00     0.932 OA 
HETATM   26  C   UNL     1      -6.911  17.684  66.900  1.00  0.00    -0.212 A  
HETATM   27  H   UNL     1      -5.292  16.067  65.795  1.00  0.00     0.000 HD 
ENDBRANCH  15  18
ENDBRANCH  14  15
ENDBRANCH  12  14
ENDBRANCH   2  12
TORSDOF 6
ENDMDL
