MODEL        1
REMARK 921   NORMALIZED FREE ENERGY PREDICTED BY IDOCK:   -5.91 KCAL/MOL
REMARK 922        TOTAL FREE ENERGY PREDICTED BY IDOCK:   -7.47 KCAL/MOL
REMARK 923 INTER-LIGAND FREE ENERGY PREDICTED BY IDOCK:   -6.94 KCAL/MOL
REMARK 924 INTRA-LIGAND FREE ENERGY PREDICTED BY IDOCK:   -0.53 KCAL/MOL
REMARK 927      BINDING AFFINITY PREDICTED BY RF-SCORE:    0.00 PKD
ROOT
HETATM    1  C   UNL     1     -12.009  12.716  67.131  1.00  0.00    -0.326 C  
HETATM    2  C   UNL     1     -11.158  13.551  68.103  1.00  0.00    -0.283 C  
HETATM    3  C   UNL     1     -11.179  15.024  67.609  1.00  0.00    -0.326 C  
HETATM    4  C   UNL     1     -11.684  13.414  69.553  1.00  0.00    -0.385 C  
ENDROOT
BRANCH   4   5
HETATM    5  C   UNL     1     -11.726  11.990  70.072  1.00  0.00    -0.346 A  
HETATM    6  C   UNL     1     -12.651  11.603  71.048  1.00  0.00    -0.431 A  
HETATM    7  C   UNL     1     -12.714  10.275  71.498  1.00  0.00    -0.557 A  
HETATM    8  C   UNL     1     -10.848  11.019  69.579  1.00  0.00    -0.267 A  
HETATM    9  C   UNL     1     -11.858   9.281  70.984  1.00  0.00    -0.376 A  
HETATM   10  C   UNL     1     -10.916   9.692  70.026  1.00  0.00    -0.297 A  
BRANCH   9  11
HETATM   11  C   UNL     1     -11.982   7.819  71.453  1.00  0.00    -0.331 C  
HETATM   12  C   UNL     1     -11.444   6.797  70.425  1.00  0.00    -0.419 C  
HETATM   13  C   UNL     1     -11.196   7.610  72.764  1.00  0.00    -0.431 C  
HETATM   14  C   UNL     1     -13.466   7.465  71.702  1.00  0.00    -0.437 C  
ENDBRANCH   9  11
ENDBRANCH   4   5
BRANCH   3  15
HETATM   15  N   UNL     1     -10.350  15.999  68.341  1.00  0.00    -0.244 NA 
HETATM   16  C   UNL     1      -8.507  17.276  66.382  1.00  0.00    -0.304 C  
HETATM   17  C   UNL     1      -9.986  17.643  66.449  1.00  0.00    -0.337 C  
HETATM   18  C   UNL     1     -10.582  17.370  67.837  1.00  0.00    -0.383 C  
HETATM   19  C   UNL     1      -8.907  15.712  68.322  1.00  0.00    -0.180 C  
HETATM   20  C   UNL     1      -8.255  15.881  66.947  1.00  0.00    -0.283 C  
ENDBRANCH   3  15
TORSDOF 3
ENDMDL
MODEL        2
REMARK 921   NORMALIZED FREE ENERGY PREDICTED BY IDOCK:   -5.89 KCAL/MOL
REMARK 922        TOTAL FREE ENERGY PREDICTED BY IDOCK:   -7.45 KCAL/MOL
REMARK 923 INTER-LIGAND FREE ENERGY PREDICTED BY IDOCK:   -6.68 KCAL/MOL
REMARK 924 INTRA-LIGAND FREE ENERGY PREDICTED BY IDOCK:   -0.77 KCAL/MOL
REMARK 927      BINDING AFFINITY PREDICTED BY RF-SCORE:    0.00 PKD
ROOT
HETATM    1  C   UNL     1      -9.778   9.387  70.818  1.00  0.00    -0.332 C  
HETATM    2  C   UNL     1     -10.391   9.393  69.407  1.00  0.00    -0.222 C  
HETATM    3  C   UNL     1     -10.144   7.995  68.775  1.00  0.00    -0.195 C  
HETATM    4  C   UNL     1     -11.896   9.754  69.461  1.00  0.00     0.204 C  
ENDROOT
BRANCH   4   5
HETATM    5  C   UNL     1     -12.197  11.091  70.108  1.00  0.00    -0.424 A  
HETATM    6  C   UNL     1     -12.853  11.167  71.341  1.00  0.00    -0.544 A  
HETATM    7  C   UNL     1     -13.096  12.404  71.956  1.00  0.00    -0.470 A  
HETATM    8  C   UNL     1     -11.814  12.289  69.495  1.00  0.00    -0.380 A  
HETATM    9  C   UNL     1     -12.685  13.615  71.365  1.00  0.00    -0.437 A  
HETATM   10  C   UNL     1     -12.053  13.524  70.114  1.00  0.00    -0.425 A  
BRANCH   9  11
HETATM   11  C   UNL     1     -12.913  14.957  72.085  1.00  0.00    -0.415 C  
HETATM   12  C   UNL     1     -14.376  15.453  72.011  1.00  0.00    -0.653 C  
HETATM   13  C   UNL     1     -12.544  14.832  73.578  1.00  0.00    -0.553 C  
HETATM   14  C   UNL     1     -12.034  16.058  71.448  1.00  0.00    -0.507 C  
ENDBRANCH   9  11
ENDBRANCH   4   5
BRANCH   3  15
HETATM   15  N   UNL     1     -10.570   7.796  67.377  1.00  0.00    -0.284 NA 
HETATM   16  C   UNL     1      -8.542   6.067  66.050  1.00  0.00    -0.147 C  
HETATM   17  C   UNL     1      -9.564   5.497  67.028  1.00  0.00    -0.144 C  
HETATM   18  C   UNL     1     -10.828   6.366  67.105  1.00  0.00    -0.393 C  
HETATM   19  C   UNL     1      -9.632   8.321  66.372  1.00  0.00    -0.230 C  
HETATM   20  C   UNL     1      -8.308   7.556  66.295  1.00  0.00    -0.134 C  
ENDBRANCH   3  15
TORSDOF 3
ENDMDL
MODEL        3
REMARK 921   NORMALIZED FREE ENERGY PREDICTED BY IDOCK:   -5.86 KCAL/MOL
REMARK 922        TOTAL FREE ENERGY PREDICTED BY IDOCK:   -7.42 KCAL/MOL
REMARK 923 INTER-LIGAND FREE ENERGY PREDICTED BY IDOCK:   -6.84 KCAL/MOL
REMARK 924 INTRA-LIGAND FREE ENERGY PREDICTED BY IDOCK:   -0.58 KCAL/MOL
REMARK 927      BINDING AFFINITY PREDICTED BY RF-SCORE:    0.00 PKD
ROOT
HETATM    1  C   UNL     1     -12.157  13.050  67.167  1.00  0.00    -0.325 C  
HETATM    2  C   UNL     1     -11.097  13.687  68.083  1.00  0.00    -0.281 C  
HETATM    3  C   UNL     1     -10.958  15.181  67.682  1.00  0.00    -0.308 C  
HETATM    4  C   UNL     1     -11.481  13.514  69.573  1.00  0.00    -0.318 C  
ENDROOT
BRANCH   4   5
HETATM    5  C   UNL     1     -11.673  12.074  70.008  1.00  0.00    -0.346 A  
HETATM    6  C   UNL     1     -10.879  11.048  69.485  1.00  0.00    -0.267 A  
HETATM    7  C   UNL     1     -11.033   9.723  69.919  1.00  0.00    -0.299 A  
HETATM    8  C   UNL     1     -12.643  11.734  70.957  1.00  0.00    -0.409 A  
HETATM    9  C   UNL     1     -11.983   9.373  70.897  1.00  0.00    -0.351 A  
HETATM   10  C   UNL     1     -12.792  10.409  71.392  1.00  0.00    -0.556 A  
BRANCH   9  11
HETATM   11  C   UNL     1     -12.096   7.921  71.398  1.00  0.00    -0.333 C  
HETATM   12  C   UNL     1     -11.507   6.884  70.414  1.00  0.00    -0.387 C  
HETATM   13  C   UNL     1     -11.349   7.758  72.739  1.00  0.00    -0.446 C  
HETATM   14  C   UNL     1     -13.581   7.545  71.609  1.00  0.00    -0.442 C  
ENDBRANCH   9  11
ENDBRANCH   4   5
BRANCH   3  15
HETATM   15  N   UNL     1      -9.925  15.977  68.371  1.00  0.00    -0.217 NA 
HETATM   16  C   UNL     1      -9.002  18.090  66.488  1.00  0.00    -0.280 C  
HETATM   17  C   UNL     1     -10.345  18.185  67.203  1.00  0.00    -0.391 C  
HETATM   18  C   UNL     1     -10.354  17.385  68.514  1.00  0.00    -0.378 C  
HETATM   19  C   UNL     1      -8.598  15.935  67.738  1.00  0.00    -0.159 C  
HETATM   20  C   UNL     1      -8.530  16.642  66.382  1.00  0.00    -0.348 C  
ENDBRANCH   3  15
TORSDOF 3
ENDMDL
MODEL        4
REMARK 921   NORMALIZED FREE ENERGY PREDICTED BY IDOCK:   -5.76 KCAL/MOL
REMARK 922        TOTAL FREE ENERGY PREDICTED BY IDOCK:   -7.30 KCAL/MOL
REMARK 923 INTER-LIGAND FREE ENERGY PREDICTED BY IDOCK:   -6.81 KCAL/MOL
REMARK 924 INTRA-LIGAND FREE ENERGY PREDICTED BY IDOCK:   -0.49 KCAL/MOL
REMARK 927      BINDING AFFINITY PREDICTED BY RF-SCORE:    0.00 PKD
ROOT
HETATM    1  C   UNL     1     -10.716   9.615  67.213  1.00  0.00    -0.284 C  
HETATM    2  C   UNL     1     -10.910  11.023  67.803  1.00  0.00    -0.297 C  
HETATM    3  C   UNL     1     -11.627  11.893  66.734  1.00  0.00    -0.268 C  
HETATM    4  C   UNL     1     -11.701  10.959  69.133  1.00  0.00    -0.397 C  
ENDROOT
BRANCH   4   5
HETATM    5  C   UNL     1     -11.067  10.087  70.198  1.00  0.00    -0.371 A  
HETATM    6  C   UNL     1     -11.838   9.501  71.207  1.00  0.00    -0.450 A  
HETATM    7  C   UNL     1     -11.255   8.663  72.169  1.00  0.00    -0.438 A  
HETATM    8  C   UNL     1      -9.691   9.833  70.194  1.00  0.00    -0.299 A  
HETATM    9  C   UNL     1      -9.876   8.373  72.155  1.00  0.00    -0.372 A  
HETATM   10  C   UNL     1      -9.111   8.992  71.154  1.00  0.00    -0.316 A  
BRANCH   9  11
HETATM   11  C   UNL     1      -9.267   7.406  73.188  1.00  0.00    -0.222 C  
HETATM   12  C   UNL     1      -8.272   8.088  74.156  1.00  0.00    -0.318 C  
HETATM   13  C   UNL     1     -10.381   6.770  74.046  1.00  0.00    -0.377 C  
HETATM   14  C   UNL     1      -8.491   6.279  72.468  1.00  0.00    -0.120 C  
ENDBRANCH   9  11
ENDBRANCH   4   5
BRANCH   3  15
HETATM   15  N   UNL     1     -11.839  13.318  67.047  1.00  0.00    -0.385 NA 
HETATM   16  C   UNL     1     -10.396  14.921  64.995  1.00  0.00    -0.401 C  
HETATM   17  C   UNL     1     -11.714  14.220  64.683  1.00  0.00    -0.439 C  
HETATM   18  C   UNL     1     -12.556  13.998  65.947  1.00  0.00    -0.449 C  
HETATM   19  C   UNL     1     -10.610  14.065  67.359  1.00  0.00    -0.278 C  
HETATM   20  C   UNL     1      -9.674  14.254  66.162  1.00  0.00    -0.325 C  
ENDBRANCH   3  15
TORSDOF 3
ENDMDL
MODEL        5
REMARK 921   NORMALIZED FREE ENERGY PREDICTED BY IDOCK:   -5.76 KCAL/MOL
REMARK 922        TOTAL FREE ENERGY PREDICTED BY IDOCK:   -7.30 KCAL/MOL
REMARK 923 INTER-LIGAND FREE ENERGY PREDICTED BY IDOCK:   -6.84 KCAL/MOL
REMARK 924 INTRA-LIGAND FREE ENERGY PREDICTED BY IDOCK:   -0.46 KCAL/MOL
REMARK 927      BINDING AFFINITY PREDICTED BY RF-SCORE:    0.00 PKD
ROOT
HETATM    1  C   UNL     1      -8.686  10.090  69.808  1.00  0.00    -0.198 C  
HETATM    2  C   UNL     1     -10.058   9.466  70.116  1.00  0.00    -0.273 C  
HETATM    3  C   UNL     1     -10.024   8.939  71.577  1.00  0.00    -0.320 C  
HETATM    4  C   UNL     1     -11.195  10.493  69.891  1.00  0.00    -0.374 C  
ENDROOT
BRANCH   4   5
HETATM    5  C   UNL     1     -11.247  11.073  68.491  1.00  0.00    -0.329 A  
HETATM    6  C   UNL     1     -10.791  10.345  67.388  1.00  0.00    -0.344 A  
HETATM    7  C   UNL     1     -10.877  10.869  66.090  1.00  0.00    -0.166 A  
HETATM    8  C   UNL     1     -11.766  12.352  68.263  1.00  0.00    -0.398 A  
HETATM    9  C   UNL     1     -11.428  12.141  65.843  1.00  0.00    -0.418 A  
HETATM   10  C   UNL     1     -11.855  12.872  66.964  1.00  0.00    -0.437 A  
BRANCH   9  11
HETATM   11  C   UNL     1     -11.563  12.673  64.404  1.00  0.00    -0.415 C  
HETATM   12  C   UNL     1     -11.840  14.193  64.334  1.00  0.00    -0.447 C  
HETATM   13  C   UNL     1     -10.266  12.405  63.612  1.00  0.00    -0.383 C  
HETATM   14  C   UNL     1     -12.738  11.970  63.685  1.00  0.00    -0.550 C  
ENDBRANCH   9  11
ENDBRANCH   4   5
BRANCH   3  15
HETATM   15  N   UNL     1     -11.210   8.214  72.067  1.00  0.00    -0.287 NA 
HETATM   16  C   UNL     1     -10.550   5.311  72.097  1.00  0.00    -0.281 C  
HETATM   17  C   UNL     1     -10.009   6.267  73.154  1.00  0.00    -0.183 C  
HETATM   18  C   UNL     1     -10.908   7.499  73.326  1.00  0.00    -0.355 C  
HETATM   19  C   UNL     1     -11.792   7.269  71.100  1.00  0.00    -0.312 C  
HETATM   20  C   UNL     1     -10.911   6.051  70.811  1.00  0.00    -0.364 C  
ENDBRANCH   3  15
TORSDOF 3
ENDMDL
MODEL        6
REMARK 921   NORMALIZED FREE ENERGY PREDICTED BY IDOCK:   -5.75 KCAL/MOL
REMARK 922        TOTAL FREE ENERGY PREDICTED BY IDOCK:   -7.28 KCAL/MOL
REMARK 923 INTER-LIGAND FREE ENERGY PREDICTED BY IDOCK:   -6.71 KCAL/MOL
REMARK 924 INTRA-LIGAND FREE ENERGY PREDICTED BY IDOCK:   -0.57 KCAL/MOL
REMARK 927      BINDING AFFINITY PREDICTED BY RF-SCORE:    0.00 PKD
ROOT
HETATM    1  C   UNL     1      -8.674   9.920  69.837  1.00  0.00    -0.225 C  
HETATM    2  C   UNL     1     -10.043   9.266  70.093  1.00  0.00    -0.249 C  
HETATM    3  C   UNL     1     -10.028   8.676  71.529  1.00  0.00    -0.274 C  
HETATM    4  C   UNL     1     -11.188  10.289  69.893  1.00  0.00    -0.360 C  
ENDROOT
BRANCH   4   5
HETATM    5  C   UNL     1     -11.223  10.931  68.519  1.00  0.00    -0.335 A  
HETATM    6  C   UNL     1     -10.828  10.222  67.380  1.00  0.00    -0.336 A  
HETATM    7  C   UNL     1     -10.899  10.806  66.106  1.00  0.00    -0.124 A  
HETATM    8  C   UNL     1     -11.664  12.248  68.353  1.00  0.00    -0.390 A  
HETATM    9  C   UNL     1     -11.373  12.119  65.921  1.00  0.00    -0.407 A  
HETATM   10  C   UNL     1     -11.738  12.827  67.078  1.00  0.00    -0.440 A  
BRANCH   9  11
HETATM   11  C   UNL     1     -11.494  12.719  64.508  1.00  0.00    -0.389 C  
HETATM   12  C   UNL     1     -12.654  12.116  63.682  1.00  0.00    -0.616 C  
HETATM   13  C   UNL     1     -11.732  14.241  64.593  1.00  0.00    -0.439 C  
HETATM   14  C   UNL     1     -10.195  12.464  63.709  1.00  0.00    -0.404 C  
ENDBRANCH   9  11
ENDBRANCH   4   5
BRANCH   3  15
HETATM   15  N   UNL     1     -11.214   7.915  71.965  1.00  0.00    -0.269 NA 
HETATM   16  C   UNL     1     -10.441   5.044  72.127  1.00  0.00    -0.274 C  
HETATM   17  C   UNL     1     -10.008   6.052  73.186  1.00  0.00    -0.187 C  
HETATM   18  C   UNL     1     -10.966   7.250  73.262  1.00  0.00    -0.311 C  
HETATM   19  C   UNL     1     -11.693   6.920  70.992  1.00  0.00    -0.345 C  
HETATM   20  C   UNL     1     -10.747   5.732  70.799  1.00  0.00    -0.342 C  
ENDBRANCH   3  15
TORSDOF 3
ENDMDL
MODEL        7
REMARK 921   NORMALIZED FREE ENERGY PREDICTED BY IDOCK:   -5.71 KCAL/MOL
REMARK 922        TOTAL FREE ENERGY PREDICTED BY IDOCK:   -7.24 KCAL/MOL
REMARK 923 INTER-LIGAND FREE ENERGY PREDICTED BY IDOCK:   -6.81 KCAL/MOL
REMARK 924 INTRA-LIGAND FREE ENERGY PREDICTED BY IDOCK:   -0.43 KCAL/MOL
REMARK 927      BINDING AFFINITY PREDICTED BY RF-SCORE:    0.00 PKD
ROOT
HETATM    1  C   UNL     1      -8.775  10.084  69.784  1.00  0.00    -0.198 C  
HETATM    2  C   UNL     1     -10.165   9.515  70.114  1.00  0.00    -0.291 C  
HETATM    3  C   UNL     1     -10.133   8.996  71.578  1.00  0.00    -0.339 C  
HETATM    4  C   UNL     1     -11.264  10.585  69.897  1.00  0.00    -0.374 C  
ENDROOT
BRANCH   4   5
HETATM    5  C   UNL     1     -11.312  11.158  68.494  1.00  0.00    -0.348 A  
HETATM    6  C   UNL     1     -10.922  10.397  67.387  1.00  0.00    -0.335 A  
HETATM    7  C   UNL     1     -11.004  10.917  66.087  1.00  0.00    -0.099 A  
HETATM    8  C   UNL     1     -11.761  12.464  68.267  1.00  0.00    -0.398 A  
HETATM    9  C   UNL     1     -11.487  12.218  65.842  1.00  0.00    -0.428 A  
HETATM   10  C   UNL     1     -11.847  12.980  66.966  1.00  0.00    -0.437 A  
BRANCH   9  11
HETATM   11  C   UNL     1     -11.621  12.748  64.402  1.00  0.00    -0.415 C  
HETATM   12  C   UNL     1     -10.336  12.569  63.560  1.00  0.00    -0.311 C  
HETATM   13  C   UNL     1     -12.760  12.011  63.666  1.00  0.00    -0.550 C  
HETATM   14  C   UNL     1     -11.938  14.261  64.420  1.00  0.00    -0.476 C  
ENDBRANCH   9  11
ENDBRANCH   4   5
BRANCH   3  15
HETATM   15  N   UNL     1     -11.340   8.320  72.087  1.00  0.00    -0.325 NA 
HETATM   16  C   UNL     1     -10.854   5.386  71.973  1.00  0.00    -0.266 C  
HETATM   17  C   UNL     1     -10.214   6.263  73.044  1.00  0.00    -0.213 C  
HETATM   18  C   UNL     1     -11.031   7.537  73.303  1.00  0.00    -0.309 C  
HETATM   19  C   UNL     1     -12.015   7.453  71.109  1.00  0.00    -0.320 C  
HETATM   20  C   UNL     1     -11.220   6.199  70.734  1.00  0.00    -0.373 C  
ENDBRANCH   3  15
TORSDOF 3
ENDMDL
MODEL        8
REMARK 921   NORMALIZED FREE ENERGY PREDICTED BY IDOCK:   -5.71 KCAL/MOL
REMARK 922        TOTAL FREE ENERGY PREDICTED BY IDOCK:   -7.24 KCAL/MOL
REMARK 923 INTER-LIGAND FREE ENERGY PREDICTED BY IDOCK:   -6.71 KCAL/MOL
REMARK 924 INTRA-LIGAND FREE ENERGY PREDICTED BY IDOCK:   -0.53 KCAL/MOL
REMARK 927      BINDING AFFINITY PREDICTED BY RF-SCORE:    0.00 PKD
ROOT
HETATM    1  C   UNL     1      -8.719   9.960  69.803  1.00  0.00    -0.229 C  
HETATM    2  C   UNL     1     -10.084   9.362  70.185  1.00  0.00    -0.273 C  
HETATM    3  C   UNL     1      -9.943   8.713  71.589  1.00  0.00    -0.282 C  
HETATM    4  C   UNL     1     -11.190  10.447  70.150  1.00  0.00    -0.393 C  
ENDROOT
BRANCH   4   5
HETATM    5  C   UNL     1     -11.341  11.145  68.813  1.00  0.00    -0.342 A  
HETATM    6  C   UNL     1     -11.750  12.480  68.736  1.00  0.00    -0.371 A  
HETATM    7  C   UNL     1     -11.851  13.135  67.500  1.00  0.00    -0.409 A  
HETATM    8  C   UNL     1     -11.062  10.474  67.617  1.00  0.00    -0.375 A  
HETATM    9  C   UNL     1     -11.542  12.481  66.291  1.00  0.00    -0.449 A  
HETATM   10  C   UNL     1     -11.160  11.132  66.383  1.00  0.00    -0.204 A  
BRANCH   9  11
HETATM   11  C   UNL     1     -11.607  13.236  64.950  1.00  0.00    -0.353 C  
HETATM   12  C   UNL     1     -10.289  13.960  64.589  1.00  0.00    -0.366 C  
HETATM   13  C   UNL     1     -11.924  12.256  63.801  1.00  0.00    -0.609 C  
HETATM   14  C   UNL     1     -12.713  14.315  65.001  1.00  0.00    -0.297 C  
ENDBRANCH   9  11
ENDBRANCH   4   5
BRANCH   3  15
HETATM   15  N   UNL     1     -11.113   7.992  72.126  1.00  0.00    -0.286 NA 
HETATM   16  C   UNL     1     -10.519   5.078  71.999  1.00  0.00    -0.269 C  
HETATM   17  C   UNL     1      -9.889   5.979  73.056  1.00  0.00    -0.176 C  
HETATM   18  C   UNL     1     -10.747   7.221  73.334  1.00  0.00    -0.369 C  
HETATM   19  C   UNL     1     -11.777   7.100  71.163  1.00  0.00    -0.313 C  
HETATM   20  C   UNL     1     -10.945   5.876  70.770  1.00  0.00    -0.343 C  
ENDBRANCH   3  15
TORSDOF 3
ENDMDL
MODEL        9
REMARK 921   NORMALIZED FREE ENERGY PREDICTED BY IDOCK:   -5.65 KCAL/MOL
REMARK 922        TOTAL FREE ENERGY PREDICTED BY IDOCK:   -7.17 KCAL/MOL
REMARK 923 INTER-LIGAND FREE ENERGY PREDICTED BY IDOCK:   -6.38 KCAL/MOL
REMARK 924 INTRA-LIGAND FREE ENERGY PREDICTED BY IDOCK:   -0.79 KCAL/MOL
REMARK 927      BINDING AFFINITY PREDICTED BY RF-SCORE:    0.00 PKD
ROOT
HETATM    1  C   UNL     1     -12.405  11.806  70.819  1.00  0.00    -0.433 C  
HETATM    2  C   UNL     1     -11.423  10.747  70.291  1.00  0.00    -0.406 C  
HETATM    3  C   UNL     1     -11.843   9.372  70.879  1.00  0.00    -0.294 C  
HETATM    4  C   UNL     1     -11.403  10.738  68.742  1.00  0.00    -0.352 C  
ENDROOT
BRANCH   4   5
HETATM    5  C   UNL     1     -11.041  12.069  68.113  1.00  0.00    -0.294 A  
HETATM    6  C   UNL     1     -11.945  12.751  67.292  1.00  0.00    -0.345 A  
HETATM    7  C   UNL     1     -11.622  14.001  66.742  1.00  0.00    -0.406 A  
HETATM    8  C   UNL     1      -9.794  12.660  68.346  1.00  0.00    -0.200 A  
HETATM    9  C   UNL     1     -10.383  14.621  66.998  1.00  0.00    -0.263 A  
HETATM   10  C   UNL     1      -9.475  13.911  67.800  1.00  0.00    -0.214 A  
BRANCH   9  11
HETATM   11  C   UNL     1     -10.072  16.018  66.429  1.00  0.00    -0.314 C  
HETATM   12  C   UNL     1     -10.534  17.172  67.349  1.00  0.00    -0.334 C  
HETATM   13  C   UNL     1      -8.553  16.181  66.214  1.00  0.00    -0.373 C  
HETATM   14  C   UNL     1     -10.789  16.212  65.073  1.00  0.00    -0.380 C  
ENDBRANCH   9  11
ENDBRANCH   4   5
BRANCH   3  15
HETATM   15  N   UNL     1     -10.983   8.212  70.579  1.00  0.00    -0.242 NA 
HETATM   16  C   UNL     1     -10.923   6.477  72.998  1.00  0.00    -0.270 C  
HETATM   17  C   UNL     1     -12.136   6.523  72.074  1.00  0.00    -0.358 C  
HETATM   18  C   UNL     1     -11.755   6.953  70.650  1.00  0.00    -0.367 C  
HETATM   19  C   UNL     1      -9.789   8.099  71.431  1.00  0.00    -0.174 C  
HETATM   20  C   UNL     1     -10.095   7.755  72.891  1.00  0.00    -0.363 C  
ENDBRANCH   3  15
TORSDOF 3
ENDMDL
MODEL       10
REMARK 921   NORMALIZED FREE ENERGY PREDICTED BY IDOCK:   -5.57 KCAL/MOL
REMARK 922        TOTAL FREE ENERGY PREDICTED BY IDOCK:   -7.07 KCAL/MOL
REMARK 923 INTER-LIGAND FREE ENERGY PREDICTED BY IDOCK:   -6.30 KCAL/MOL
REMARK 924 INTRA-LIGAND FREE ENERGY PREDICTED BY IDOCK:   -0.78 KCAL/MOL
REMARK 927      BINDING AFFINITY PREDICTED BY RF-SCORE:    0.00 PKD
ROOT
HETATM    1  C   UNL     1     -11.030   6.647  67.290  1.00  0.00    -0.456 C  
HETATM    2  C   UNL     1     -10.533   7.294  68.594  1.00  0.00    -0.214 C  
HETATM    3  C   UNL     1      -9.898   6.177  69.468  1.00  0.00    -0.159 C  
HETATM    4  C   UNL     1      -9.536   8.441  68.296  1.00  0.00    -0.156 C  
ENDROOT
BRANCH   4   5
HETATM    5  C   UNL     1     -10.091   9.539  67.410  1.00  0.00    -0.262 A  
HETATM    6  C   UNL     1     -11.035  10.451  67.893  1.00  0.00    -0.354 A  
HETATM    7  C   UNL     1     -11.517  11.490  67.082  1.00  0.00    -0.313 A  
HETATM    8  C   UNL     1      -9.663   9.678  66.085  1.00  0.00    -0.317 A  
HETATM    9  C   UNL     1     -11.068  11.660  65.758  1.00  0.00    -0.313 A  
HETATM   10  C   UNL     1     -10.143  10.719  65.278  1.00  0.00    -0.353 A  
BRANCH   9  11
HETATM   11  C   UNL     1     -11.570  12.840  64.904  1.00  0.00    -0.369 C  
HETATM   12  C   UNL     1     -12.713  13.639  65.573  1.00  0.00    -0.514 C  
HETATM   13  C   UNL     1     -10.417  13.829  64.630  1.00  0.00    -0.433 C  
HETATM   14  C   UNL     1     -12.114  12.325  63.552  1.00  0.00    -0.649 C  
ENDBRANCH   9  11
ENDBRANCH   4   5
BRANCH   3  15
HETATM   15  N   UNL     1      -9.430   6.550  70.815  1.00  0.00    -0.171 NA 
HETATM   16  C   UNL     1     -11.036   5.009  72.793  1.00  0.00    -0.310 C  
HETATM   17  C   UNL     1      -9.924   4.355  71.980  1.00  0.00    -0.252 C  
HETATM   18  C   UNL     1      -8.873   5.377  71.523  1.00  0.00    -0.135 C  
HETATM   19  C   UNL     1     -10.451   7.188  71.662  1.00  0.00    -0.198 C  
HETATM   20  C   UNL     1     -11.582   6.250  72.091  1.00  0.00    -0.367 C  
ENDBRANCH   3  15
TORSDOF 3
ENDMDL
MODEL       11
REMARK 921   NORMALIZED FREE ENERGY PREDICTED BY IDOCK:   -5.56 KCAL/MOL
REMARK 922        TOTAL FREE ENERGY PREDICTED BY IDOCK:   -7.06 KCAL/MOL
REMARK 923 INTER-LIGAND FREE ENERGY PREDICTED BY IDOCK:   -6.42 KCAL/MOL
REMARK 924 INTRA-LIGAND FREE ENERGY PREDICTED BY IDOCK:   -0.64 KCAL/MOL
REMARK 927      BINDING AFFINITY PREDICTED BY RF-SCORE:    0.00 PKD
ROOT
HETATM    1  C   UNL     1     -10.619   9.098  67.247  1.00  0.00    -0.303 C  
HETATM    2  C   UNL     1     -10.445  10.535  67.767  1.00  0.00    -0.263 C  
HETATM    3  C   UNL     1     -11.039  11.501  66.705  1.00  0.00    -0.295 C  
HETATM    4  C   UNL     1     -11.116  10.706  69.152  1.00  0.00    -0.309 C  
ENDROOT
BRANCH   4   5
HETATM    5  C   UNL     1     -10.604   9.756  70.218  1.00  0.00    -0.348 A  
HETATM    6  C   UNL     1      -9.236   9.504  70.366  1.00  0.00    -0.305 A  
HETATM    7  C   UNL     1      -8.763   8.656  71.378  1.00  0.00    -0.262 A  
HETATM    8  C   UNL     1     -11.487   9.114  71.092  1.00  0.00    -0.388 A  
HETATM    9  C   UNL     1      -9.639   8.030  72.286  1.00  0.00    -0.286 A  
HETATM   10  C   UNL     1     -11.011   8.270  72.106  1.00  0.00    -0.396 A  
BRANCH   9  11
HETATM   11  C   UNL     1      -9.093   7.146  73.423  1.00  0.00    -0.193 C  
HETATM   12  C   UNL     1     -10.200   6.549  74.322  1.00  0.00    -0.373 C  
HETATM   13  C   UNL     1      -8.287   5.966  72.841  1.00  0.00    -0.118 C  
HETATM   14  C   UNL     1      -8.167   7.975  74.342  1.00  0.00    -0.284 C  
ENDBRANCH   9  11
ENDBRANCH   4   5
BRANCH   3  15
HETATM   15  N   UNL     1     -10.901  12.948  66.949  1.00  0.00    -0.254 NA 
HETATM   16  C   UNL     1     -11.917  14.375  64.541  1.00  0.00    -0.487 C  
HETATM   17  C   UNL     1     -12.862  13.729  65.548  1.00  0.00    -0.464 C  
HETATM   18  C   UNL     1     -12.223  13.612  66.939  1.00  0.00    -0.352 C  
HETATM   19  C   UNL     1     -10.002  13.643  66.014  1.00  0.00    -0.302 C  
HETATM   20  C   UNL     1     -10.535  13.727  64.581  1.00  0.00    -0.433 C  
ENDBRANCH   3  15
TORSDOF 3
ENDMDL
MODEL       12
REMARK 921   NORMALIZED FREE ENERGY PREDICTED BY IDOCK:   -5.48 KCAL/MOL
REMARK 922        TOTAL FREE ENERGY PREDICTED BY IDOCK:   -6.97 KCAL/MOL
REMARK 923 INTER-LIGAND FREE ENERGY PREDICTED BY IDOCK:   -6.20 KCAL/MOL
REMARK 924 INTRA-LIGAND FREE ENERGY PREDICTED BY IDOCK:   -0.77 KCAL/MOL
REMARK 927      BINDING AFFINITY PREDICTED BY RF-SCORE:    0.00 PKD
ROOT
HETATM    1  C   UNL     1     -11.104   6.667  67.267  1.00  0.00    -0.418 C  
HETATM    2  C   UNL     1     -10.563   7.281  68.570  1.00  0.00    -0.207 C  
HETATM    3  C   UNL     1      -9.968   6.131  69.427  1.00  0.00    -0.166 C  
HETATM    4  C   UNL     1      -9.520   8.385  68.267  1.00  0.00    -0.147 C  
ENDROOT
BRANCH   4   5
HETATM    5  C   UNL     1     -10.036   9.513  67.395  1.00  0.00    -0.262 A  
HETATM    6  C   UNL     1      -9.662   9.619  66.052  1.00  0.00    -0.331 A  
HETATM    7  C   UNL     1     -10.172  10.641  65.238  1.00  0.00    -0.351 A  
HETATM    8  C   UNL     1     -10.913  10.475  67.909  1.00  0.00    -0.352 A  
HETATM    9  C   UNL     1     -11.081  11.595  65.735  1.00  0.00    -0.313 A  
HETATM   10  C   UNL     1     -11.425  11.493  67.093  1.00  0.00    -0.313 A  
BRANCH   9  11
HETATM   11  C   UNL     1     -11.671  12.676  64.808  1.00  0.00    -0.402 C  
HETATM   12  C   UNL     1     -12.327  12.099  63.532  1.00  0.00    -0.682 C  
HETATM   13  C   UNL     1     -12.751  13.487  65.554  1.00  0.00    -0.493 C  
HETATM   14  C   UNL     1     -10.558  13.642  64.342  1.00  0.00    -0.360 C  
ENDBRANCH   9  11
ENDBRANCH   4   5
BRANCH   3  15
HETATM   15  N   UNL     1      -9.468   6.473  70.772  1.00  0.00    -0.171 NA 
HETATM   16  C   UNL     1     -11.197   5.092  72.763  1.00  0.00    -0.295 C  
HETATM   17  C   UNL     1     -10.147   4.338  71.954  1.00  0.00    -0.237 C  
HETATM   18  C   UNL     1      -9.013   5.262  71.488  1.00  0.00    -0.135 C  
HETATM   19  C   UNL     1     -10.428   7.204  71.614  1.00  0.00    -0.198 C  
HETATM   20  C   UNL     1     -11.635   6.370  72.051  1.00  0.00    -0.368 C  
ENDBRANCH   3  15
TORSDOF 3
ENDMDL
MODEL       13
REMARK 921   NORMALIZED FREE ENERGY PREDICTED BY IDOCK:   -5.47 KCAL/MOL
REMARK 922        TOTAL FREE ENERGY PREDICTED BY IDOCK:   -6.95 KCAL/MOL
REMARK 923 INTER-LIGAND FREE ENERGY PREDICTED BY IDOCK:   -6.18 KCAL/MOL
REMARK 924 INTRA-LIGAND FREE ENERGY PREDICTED BY IDOCK:   -0.77 KCAL/MOL
REMARK 927      BINDING AFFINITY PREDICTED BY RF-SCORE:    0.00 PKD
ROOT
HETATM    1  C   UNL     1      -8.829   9.540  70.566  1.00  0.00    -0.253 C  
HETATM    2  C   UNL     1     -10.071   8.667  70.318  1.00  0.00    -0.206 C  
HETATM    3  C   UNL     1     -10.127   7.589  71.436  1.00  0.00    -0.186 C  
HETATM    4  C   UNL     1     -11.354   9.533  70.276  1.00  0.00    -0.284 C  
ENDROOT
BRANCH   4   5
HETATM    5  C   UNL     1     -11.336  10.630  69.230  1.00  0.00    -0.346 A  
HETATM    6  C   UNL     1     -11.002  10.357  67.900  1.00  0.00    -0.354 A  
HETATM    7  C   UNL     1     -11.024  11.367  66.926  1.00  0.00    -0.355 A  
HETATM    8  C   UNL     1     -11.666  11.948  69.565  1.00  0.00    -0.410 A  
HETATM    9  C   UNL     1     -11.387  12.690  67.245  1.00  0.00    -0.372 A  
HETATM   10  C   UNL     1     -11.692  12.955  68.590  1.00  0.00    -0.359 A  
BRANCH   9  11
HETATM   11  C   UNL     1     -11.457  13.770  66.149  1.00  0.00    -0.350 C  
HETATM   12  C   UNL     1     -11.083  15.183  66.655  1.00  0.00    -0.308 C  
HETATM   13  C   UNL     1     -10.493  13.424  64.995  1.00  0.00    -0.378 C  
HETATM   14  C   UNL     1     -12.894  13.862  65.585  1.00  0.00    -0.467 C  
ENDBRANCH   9  11
ENDBRANCH   4   5
BRANCH   3  15
HETATM   15  N   UNL     1     -11.193   6.574  71.350  1.00  0.00    -0.270 NA 
HETATM   16  C   UNL     1      -9.898   3.936  70.875  1.00  0.00    -0.213 C  
HETATM   17  C   UNL     1      -9.876   4.604  72.246  1.00  0.00    -0.222 C  
HETATM   18  C   UNL     1     -11.054   5.573  72.429  1.00  0.00    -0.256 C  
HETATM   19  C   UNL     1     -11.277   5.884  70.054  1.00  0.00    -0.270 C  
HETATM   20  C   UNL     1     -10.092   4.960  69.760  1.00  0.00    -0.319 C  
ENDBRANCH   3  15
TORSDOF 3
ENDMDL
MODEL       14
REMARK 921   NORMALIZED FREE ENERGY PREDICTED BY IDOCK:   -5.45 KCAL/MOL
REMARK 922        TOTAL FREE ENERGY PREDICTED BY IDOCK:   -6.93 KCAL/MOL
REMARK 923 INTER-LIGAND FREE ENERGY PREDICTED BY IDOCK:   -6.15 KCAL/MOL
REMARK 924 INTRA-LIGAND FREE ENERGY PREDICTED BY IDOCK:   -0.78 KCAL/MOL
REMARK 927      BINDING AFFINITY PREDICTED BY RF-SCORE:    0.00 PKD
ROOT
HETATM    1  C   UNL     1      -8.405  12.411  68.335  1.00  0.00    -0.137 C  
HETATM    2  C   UNL     1      -9.805  12.991  68.069  1.00  0.00    -0.224 C  
HETATM    3  C   UNL     1      -9.664  14.097  66.988  1.00  0.00    -0.258 C  
HETATM    4  C   UNL     1     -10.791  11.876  67.641  1.00  0.00    -0.271 C  
ENDROOT
BRANCH   4   5
HETATM    5  C   UNL     1     -10.933  10.747  68.642  1.00  0.00    -0.285 A  
HETATM    6  C   UNL     1     -11.594  10.938  69.860  1.00  0.00    -0.410 A  
HETATM    7  C   UNL     1     -11.758   9.880  70.767  1.00  0.00    -0.424 A  
HETATM    8  C   UNL     1     -10.417   9.475  68.369  1.00  0.00    -0.261 A  
HETATM    9  C   UNL     1     -11.272   8.588  70.489  1.00  0.00    -0.262 A  
HETATM   10  C   UNL     1     -10.586   8.419  69.275  1.00  0.00    -0.193 A  
BRANCH   9  11
HETATM   11  C   UNL     1     -11.513   7.429  71.475  1.00  0.00    -0.292 C  
HETATM   12  C   UNL     1     -13.007   7.071  71.649  1.00  0.00    -0.400 C  
HETATM   13  C   UNL     1     -10.788   6.156  70.990  1.00  0.00    -0.338 C  
HETATM   14  C   UNL     1     -10.975   7.803  72.876  1.00  0.00    -0.467 C  
ENDBRANCH   9  11
ENDBRANCH   4   5
BRANCH   3  15
HETATM   15  N   UNL     1     -10.875  14.862  66.635  1.00  0.00    -0.314 NA 
HETATM   16  C   UNL     1     -10.460  17.675  67.516  1.00  0.00    -0.365 C  
HETATM   17  C   UNL     1      -9.776  17.115  66.274  1.00  0.00    -0.296 C  
HETATM   18  C   UNL     1     -10.556  15.938  65.672  1.00  0.00    -0.378 C  
HETATM   19  C   UNL     1     -11.592  15.435  67.785  1.00  0.00    -0.228 C  
HETATM   20  C   UNL     1     -10.836  16.563  68.492  1.00  0.00    -0.349 C  
ENDBRANCH   3  15
TORSDOF 3
ENDMDL
MODEL       15
REMARK 921   NORMALIZED FREE ENERGY PREDICTED BY IDOCK:   -5.44 KCAL/MOL
REMARK 922        TOTAL FREE ENERGY PREDICTED BY IDOCK:   -6.93 KCAL/MOL
REMARK 923 INTER-LIGAND FREE ENERGY PREDICTED BY IDOCK:   -6.28 KCAL/MOL
REMARK 924 INTRA-LIGAND FREE ENERGY PREDICTED BY IDOCK:   -0.65 KCAL/MOL
REMARK 927      BINDING AFFINITY PREDICTED BY RF-SCORE:    0.00 PKD
ROOT
HETATM    1  C   UNL     1     -12.604  11.650  70.961  1.00  0.00    -0.431 C  
HETATM    2  C   UNL     1     -11.534  10.664  70.464  1.00  0.00    -0.407 C  
HETATM    3  C   UNL     1     -11.893   9.255  71.012  1.00  0.00    -0.307 C  
HETATM    4  C   UNL     1     -11.441  10.684  68.918  1.00  0.00    -0.334 C  
ENDROOT
BRANCH   4   5
HETATM    5  C   UNL     1     -11.135  12.045  68.326  1.00  0.00    -0.290 A  
HETATM    6  C   UNL     1      -9.828  12.540  68.286  1.00  0.00    -0.227 A  
HETATM    7  C   UNL     1      -9.543  13.783  67.702  1.00  0.00    -0.219 A  
HETATM    8  C   UNL     1     -12.154  12.841  67.791  1.00  0.00    -0.191 A  
HETATM    9  C   UNL     1     -10.554  14.579  67.130  1.00  0.00    -0.274 A  
HETATM   10  C   UNL     1     -11.866  14.082  67.204  1.00  0.00    -0.444 A  
BRANCH   9  11
HETATM   11  C   UNL     1     -10.210  15.915  66.445  1.00  0.00    -0.311 C  
HETATM   12  C   UNL     1     -10.888  16.091  65.067  1.00  0.00    -0.421 C  
HETATM   13  C   UNL     1     -10.654  17.098  67.331  1.00  0.00    -0.297 C  
HETATM   14  C   UNL     1      -8.685  16.015  66.211  1.00  0.00    -0.372 C  
ENDBRANCH   9  11
ENDBRANCH   4   5
BRANCH   3  15
HETATM   15  N   UNL     1     -10.950   8.156  70.736  1.00  0.00    -0.240 NA 
HETATM   16  C   UNL     1     -11.008   6.303  73.065  1.00  0.00    -0.271 C  
HETATM   17  C   UNL     1     -12.136   6.337  72.040  1.00  0.00    -0.321 C  
HETATM   18  C   UNL     1     -11.656   6.858  70.678  1.00  0.00    -0.353 C  
HETATM   19  C   UNL     1      -9.830   8.058  71.685  1.00  0.00    -0.170 C  
HETATM   20  C   UNL     1     -10.243   7.624  73.094  1.00  0.00    -0.401 C  
ENDBRANCH   3  15
TORSDOF 3
ENDMDL
MODEL       16
REMARK 921   NORMALIZED FREE ENERGY PREDICTED BY IDOCK:   -5.42 KCAL/MOL
REMARK 922        TOTAL FREE ENERGY PREDICTED BY IDOCK:   -6.90 KCAL/MOL
REMARK 923 INTER-LIGAND FREE ENERGY PREDICTED BY IDOCK:   -6.07 KCAL/MOL
REMARK 924 INTRA-LIGAND FREE ENERGY PREDICTED BY IDOCK:   -0.82 KCAL/MOL
REMARK 927      BINDING AFFINITY PREDICTED BY RF-SCORE:    0.00 PKD
ROOT
HETATM    1  C   UNL     1     -10.281  14.903  65.148  1.00  0.00    -0.409 C  
HETATM    2  C   UNL     1     -10.158  15.594  66.517  1.00  0.00    -0.293 C  
HETATM    3  C   UNL     1     -10.527  17.092  66.328  1.00  0.00    -0.258 C  
HETATM    4  C   UNL     1     -11.057  14.899  67.569  1.00  0.00    -0.319 C  
ENDROOT
BRANCH   4   5
HETATM    5  C   UNL     1     -10.769  13.423  67.762  1.00  0.00    -0.259 A  
HETATM    6  C   UNL     1     -11.769  12.461  67.587  1.00  0.00    -0.412 A  
HETATM    7  C   UNL     1     -11.490  11.094  67.728  1.00  0.00    -0.349 A  
HETATM    8  C   UNL     1      -9.487  12.981  68.109  1.00  0.00    -0.218 A  
HETATM    9  C   UNL     1     -10.196  10.634  68.044  1.00  0.00    -0.202 A  
HETATM   10  C   UNL     1      -9.210  11.613  68.245  1.00  0.00    -0.187 A  
BRANCH   9  11
HETATM   11  C   UNL     1      -9.900   9.125  68.139  1.00  0.00    -0.188 C  
HETATM   12  C   UNL     1     -10.646   8.426  69.299  1.00  0.00    -0.193 C  
HETATM   13  C   UNL     1     -10.315   8.416  66.832  1.00  0.00    -0.378 C  
HETATM   14  C   UNL     1      -8.390   8.893  68.372  1.00  0.00    -0.125 C  
ENDBRANCH   9  11
ENDBRANCH   4   5
BRANCH   3  15
HETATM   15  N   UNL     1     -10.392  17.979  67.498  1.00  0.00    -0.369 NA 
HETATM   16  C   UNL     1      -8.276  19.980  66.880  1.00  0.00    -0.368 C  
HETATM   17  C   UNL     1      -9.671  20.074  66.271  1.00  0.00    -0.546 C  
HETATM   18  C   UNL     1     -10.724  19.375  67.142  1.00  0.00    -0.483 C  
HETATM   19  C   UNL     1      -9.069  17.943  68.143  1.00  0.00    -0.278 C  
HETATM   20  C   UNL     1      -7.947  18.549  67.296  1.00  0.00    -0.241 C  
ENDBRANCH   3  15
TORSDOF 3
ENDMDL
MODEL       17
REMARK 921   NORMALIZED FREE ENERGY PREDICTED BY IDOCK:   -5.42 KCAL/MOL
REMARK 922        TOTAL FREE ENERGY PREDICTED BY IDOCK:   -6.89 KCAL/MOL
REMARK 923 INTER-LIGAND FREE ENERGY PREDICTED BY IDOCK:   -6.14 KCAL/MOL
REMARK 924 INTRA-LIGAND FREE ENERGY PREDICTED BY IDOCK:   -0.75 KCAL/MOL
REMARK 927      BINDING AFFINITY PREDICTED BY RF-SCORE:    0.00 PKD
ROOT
HETATM    1  C   UNL     1     -11.982  13.079  67.029  1.00  0.00    -0.409 C  
HETATM    2  C   UNL     1     -11.547  13.053  68.504  1.00  0.00    -0.363 C  
HETATM    3  C   UNL     1     -11.599  11.578  68.990  1.00  0.00    -0.318 C  
HETATM    4  C   UNL     1     -10.140  13.676  68.675  1.00  0.00    -0.182 C  
ENDROOT
BRANCH   4   5
HETATM    5  C   UNL     1     -10.022  15.103  68.176  1.00  0.00    -0.221 A  
HETATM    6  C   UNL     1     -10.772  16.134  68.749  1.00  0.00    -0.294 A  
HETATM    7  C   UNL     1     -10.631  17.460  68.311  1.00  0.00    -0.366 A  
HETATM    8  C   UNL     1      -9.146  15.429  67.135  1.00  0.00    -0.236 A  
HETATM    9  C   UNL     1      -9.729  17.806  67.286  1.00  0.00    -0.285 A  
HETATM   10  C   UNL     1      -9.003  16.755  66.702  1.00  0.00    -0.278 A  
BRANCH   9  11
HETATM   11  C   UNL     1      -9.551  19.275  66.860  1.00  0.00    -0.398 C  
HETATM   12  C   UNL     1     -10.526  19.713  65.743  1.00  0.00    -0.540 C  
HETATM   13  C   UNL     1      -9.780  20.212  68.065  1.00  0.00    -0.464 C  
HETATM   14  C   UNL     1      -8.120  19.503  66.320  1.00  0.00    -0.344 C  
ENDBRANCH   9  11
ENDBRANCH   4   5
BRANCH   3  15
HETATM   15  N   UNL     1     -11.307  11.319  70.412  1.00  0.00    -0.123 NA 
HETATM   16  C   UNL     1     -12.389   8.629  71.086  1.00  0.00    -0.243 C  
HETATM   17  C   UNL     1     -11.107   8.798  70.278  1.00  0.00    -0.240 C  
HETATM   18  C   UNL     1     -10.424  10.143  70.563  1.00  0.00    -0.105 C  
HETATM   19  C   UNL     1     -12.498  11.144  71.259  1.00  0.00    -0.360 C  
HETATM   20  C   UNL     1     -13.283   9.861  70.974  1.00  0.00    -0.375 C  
ENDBRANCH   3  15
TORSDOF 3
ENDMDL
MODEL       18
REMARK 921   NORMALIZED FREE ENERGY PREDICTED BY IDOCK:   -5.38 KCAL/MOL
REMARK 922        TOTAL FREE ENERGY PREDICTED BY IDOCK:   -6.85 KCAL/MOL
REMARK 923 INTER-LIGAND FREE ENERGY PREDICTED BY IDOCK:   -6.18 KCAL/MOL
REMARK 924 INTRA-LIGAND FREE ENERGY PREDICTED BY IDOCK:   -0.67 KCAL/MOL
REMARK 927      BINDING AFFINITY PREDICTED BY RF-SCORE:    0.00 PKD
ROOT
HETATM    1  C   UNL     1      -8.573  12.379  68.164  1.00  0.00    -0.185 C  
HETATM    2  C   UNL     1      -9.925  13.114  68.130  1.00  0.00    -0.234 C  
HETATM    3  C   UNL     1      -9.802  14.291  67.124  1.00  0.00    -0.252 C  
HETATM    4  C   UNL     1     -11.071  12.142  67.757  1.00  0.00    -0.302 C  
ENDROOT
BRANCH   4   5
HETATM    5  C   UNL     1     -11.208  10.949  68.683  1.00  0.00    -0.326 A  
HETATM    6  C   UNL     1     -10.666   9.705  68.346  1.00  0.00    -0.251 A  
HETATM    7  C   UNL     1     -10.760   8.614  69.223  1.00  0.00    -0.151 A  
HETATM    8  C   UNL     1     -11.872  11.064  69.910  1.00  0.00    -0.431 A  
HETATM    9  C   UNL     1     -11.396   8.726  70.474  1.00  0.00    -0.255 A  
HETATM   10  C   UNL     1     -11.961   9.974  70.786  1.00  0.00    -0.426 A  
BRANCH   9  11
HETATM   11  C   UNL     1     -11.440   7.530  71.443  1.00  0.00    -0.291 C  
HETATM   12  C   UNL     1     -10.966   7.880  72.873  1.00  0.00    -0.452 C  
HETATM   13  C   UNL     1     -12.880   6.986  71.556  1.00  0.00    -0.420 C  
HETATM   14  C   UNL     1     -10.521   6.397  70.932  1.00  0.00    -0.275 C  
ENDBRANCH   9  11
ENDBRANCH   4   5
BRANCH   3  15
HETATM   15  N   UNL     1     -10.958  15.197  66.993  1.00  0.00    -0.319 NA 
HETATM   16  C   UNL     1     -10.207  17.806  68.216  1.00  0.00    -0.382 C  
HETATM   17  C   UNL     1      -9.679  17.379  66.850  1.00  0.00    -0.286 C  
HETATM   18  C   UNL     1     -10.613  16.373  66.164  1.00  0.00    -0.255 C  
HETATM   19  C   UNL     1     -11.525  15.653  68.272  1.00  0.00    -0.350 C  
HETATM   20  C   UNL     1     -10.611  16.598  69.058  1.00  0.00    -0.340 C  
ENDBRANCH   3  15
TORSDOF 3
ENDMDL
MODEL       19
REMARK 921   NORMALIZED FREE ENERGY PREDICTED BY IDOCK:   -5.36 KCAL/MOL
REMARK 922        TOTAL FREE ENERGY PREDICTED BY IDOCK:   -6.83 KCAL/MOL
REMARK 923 INTER-LIGAND FREE ENERGY PREDICTED BY IDOCK:   -6.12 KCAL/MOL
REMARK 924 INTRA-LIGAND FREE ENERGY PREDICTED BY IDOCK:   -0.71 KCAL/MOL
REMARK 927      BINDING AFFINITY PREDICTED BY RF-SCORE:    0.00 PKD
ROOT
HETATM    1  C   UNL     1     -12.163  11.563  70.230  1.00  0.00    -0.415 C  
HETATM    2  C   UNL     1     -11.655  11.057  68.869  1.00  0.00    -0.383 C  
HETATM    3  C   UNL     1     -11.625  12.266  67.893  1.00  0.00    -0.354 C  
HETATM    4  C   UNL     1     -10.267  10.387  69.012  1.00  0.00    -0.233 C  
ENDROOT
BRANCH   4   5
HETATM    5  C   UNL     1     -10.229   9.226  69.987  1.00  0.00    -0.244 A  
HETATM    6  C   UNL     1      -9.538   9.322  71.199  1.00  0.00    -0.305 A  
HETATM    7  C   UNL     1      -9.537   8.260  72.117  1.00  0.00    -0.338 A  
HETATM    8  C   UNL     1     -10.897   8.030  69.706  1.00  0.00    -0.194 A  
HETATM    9  C   UNL     1     -10.233   7.063  71.860  1.00  0.00    -0.205 A  
HETATM   10  C   UNL     1     -10.899   6.972  70.626  1.00  0.00    -0.274 A  
BRANCH   9  11
HETATM   11  C   UNL     1     -10.264   5.933  72.905  1.00  0.00    -0.212 C  
HETATM   12  C   UNL     1      -9.235   4.813  72.629  1.00  0.00    -0.143 C  
HETATM   13  C   UNL     1      -9.965   6.497  74.310  1.00  0.00    -0.362 C  
HETATM   14  C   UNL     1     -11.659   5.266  72.926  1.00  0.00    -0.292 C  
ENDBRANCH   9  11
ENDBRANCH   4   5
BRANCH   3  15
HETATM   15  N   UNL     1     -11.254  12.000  66.491  1.00  0.00    -0.318 NA 
HETATM   16  C   UNL     1     -10.964  14.624  65.115  1.00  0.00    -0.395 C  
HETATM   17  C   UNL     1      -9.904  14.103  66.079  1.00  0.00    -0.329 C  
HETATM   18  C   UNL     1      -9.926  12.571  66.180  1.00  0.00    -0.255 C  
HETATM   19  C   UNL     1     -12.231  12.475  65.499  1.00  0.00    -0.377 C  
HETATM   20  C   UNL     1     -12.328  13.999  65.399  1.00  0.00    -0.495 C  
ENDBRANCH   3  15
TORSDOF 3
ENDMDL
MODEL       20
REMARK 921   NORMALIZED FREE ENERGY PREDICTED BY IDOCK:   -5.36 KCAL/MOL
REMARK 922        TOTAL FREE ENERGY PREDICTED BY IDOCK:   -6.83 KCAL/MOL
REMARK 923 INTER-LIGAND FREE ENERGY PREDICTED BY IDOCK:   -6.03 KCAL/MOL
REMARK 924 INTRA-LIGAND FREE ENERGY PREDICTED BY IDOCK:   -0.80 KCAL/MOL
REMARK 927      BINDING AFFINITY PREDICTED BY RF-SCORE:    0.00 PKD
ROOT
HETATM    1  C   UNL     1     -12.026  13.384  67.407  1.00  0.00    -0.391 C  
HETATM    2  C   UNL     1     -10.624  12.813  67.133  1.00  0.00    -0.249 C  
HETATM    3  C   UNL     1     -10.779  11.300  66.819  1.00  0.00    -0.275 C  
HETATM    4  C   UNL     1      -9.932  13.581  65.980  1.00  0.00    -0.308 C  
ENDROOT
BRANCH   4   5
HETATM    5  C   UNL     1      -9.793  15.073  66.214  1.00  0.00    -0.307 A  
HETATM    6  C   UNL     1     -10.529  15.995  65.464  1.00  0.00    -0.426 A  
HETATM    7  C   UNL     1     -10.428  17.372  65.710  1.00  0.00    -0.221 A  
HETATM    8  C   UNL     1      -8.932  15.568  67.200  1.00  0.00    -0.232 A  
HETATM    9  C   UNL     1      -9.590  17.881  66.721  1.00  0.00    -0.305 A  
HETATM   10  C   UNL     1      -8.836  16.945  67.447  1.00  0.00    -0.212 A  
BRANCH   9  11
HETATM   11  C   UNL     1      -9.537  19.393  67.010  1.00  0.00    -0.412 C  
HETATM   12  C   UNL     1     -10.065  19.769  68.414  1.00  0.00    -0.568 C  
HETATM   13  C   UNL     1      -8.084  19.904  66.913  1.00  0.00    -0.346 C  
HETATM   14  C   UNL     1     -10.402  20.161  65.985  1.00  0.00    -0.483 C  
ENDBRANCH   9  11
ENDBRANCH   4   5
BRANCH   3  15
HETATM   15  N   UNL     1      -9.547  10.518  66.612  1.00  0.00    -0.168 NA 
HETATM   16  C   UNL     1      -9.675   8.132  68.387  1.00  0.00    -0.172 C  
HETATM   17  C   UNL     1     -10.498   8.223  67.106  1.00  0.00    -0.386 C  
HETATM   18  C   UNL     1      -9.859   9.172  66.083  1.00  0.00    -0.293 C  
HETATM   19  C   UNL     1      -8.698  10.385  67.806  1.00  0.00    -0.122 C  
HETATM   20  C   UNL     1      -9.307   9.517  68.911  1.00  0.00    -0.149 C  
ENDBRANCH   3  15
TORSDOF 3
ENDMDL
MODEL       21
REMARK 921   NORMALIZED FREE ENERGY PREDICTED BY IDOCK:   -5.35 KCAL/MOL
REMARK 922        TOTAL FREE ENERGY PREDICTED BY IDOCK:   -6.82 KCAL/MOL
REMARK 923 INTER-LIGAND FREE ENERGY PREDICTED BY IDOCK:   -6.05 KCAL/MOL
REMARK 924 INTRA-LIGAND FREE ENERGY PREDICTED BY IDOCK:   -0.77 KCAL/MOL
REMARK 927      BINDING AFFINITY PREDICTED BY RF-SCORE:    0.00 PKD
ROOT
HETATM    1  C   UNL     1      -8.420  12.002  67.935  1.00  0.00    -0.160 C  
HETATM    2  C   UNL     1      -9.813  12.622  67.731  1.00  0.00    -0.212 C  
HETATM    3  C   UNL     1      -9.700  13.684  66.603  1.00  0.00    -0.284 C  
HETATM    4  C   UNL     1     -10.861  11.530  67.404  1.00  0.00    -0.294 C  
ENDROOT
BRANCH   4   5
HETATM    5  C   UNL     1     -10.981  10.442  68.453  1.00  0.00    -0.312 A  
HETATM    6  C   UNL     1     -10.597   9.125  68.178  1.00  0.00    -0.235 A  
HETATM    7  C   UNL     1     -10.673   8.129  69.163  1.00  0.00    -0.117 A  
HETATM    8  C   UNL     1     -11.468  10.729  69.732  1.00  0.00    -0.386 A  
HETATM    9  C   UNL     1     -11.130   8.413  70.464  1.00  0.00    -0.267 A  
HETATM   10  C   UNL     1     -11.539   9.733  70.716  1.00  0.00    -0.417 A  
BRANCH   9  11
HETATM   11  C   UNL     1     -11.153   7.316  71.545  1.00  0.00    -0.264 C  
HETATM   12  C   UNL     1     -10.356   6.050  71.152  1.00  0.00    -0.267 C  
HETATM   13  C   UNL     1     -10.547   7.850  72.860  1.00  0.00    -0.434 C  
HETATM   14  C   UNL     1     -12.606   6.865  71.816  1.00  0.00    -0.386 C  
ENDBRANCH   9  11
ENDBRANCH   4   5
BRANCH   3  15
HETATM   15  N   UNL     1     -10.903  14.479  66.294  1.00  0.00    -0.311 NA 
HETATM   16  C   UNL     1     -10.479  17.222  67.371  1.00  0.00    -0.338 C  
HETATM   17  C   UNL     1      -9.788  16.745  66.098  1.00  0.00    -0.330 C  
HETATM   18  C   UNL     1     -10.570  15.617  65.411  1.00  0.00    -0.415 C  
HETATM   19  C   UNL     1     -11.627  14.977  67.475  1.00  0.00    -0.301 C  
HETATM   20  C   UNL     1     -10.871  16.048  68.265  1.00  0.00    -0.319 C  
ENDBRANCH   3  15
TORSDOF 3
ENDMDL
MODEL       22
REMARK 921   NORMALIZED FREE ENERGY PREDICTED BY IDOCK:   -5.29 KCAL/MOL
REMARK 922        TOTAL FREE ENERGY PREDICTED BY IDOCK:   -6.75 KCAL/MOL
REMARK 923 INTER-LIGAND FREE ENERGY PREDICTED BY IDOCK:   -5.99 KCAL/MOL
REMARK 924 INTRA-LIGAND FREE ENERGY PREDICTED BY IDOCK:   -0.76 KCAL/MOL
REMARK 927      BINDING AFFINITY PREDICTED BY RF-SCORE:    0.00 PKD
ROOT
HETATM    1  C   UNL     1     -11.612  12.260  65.767  1.00  0.00    -0.443 C  
HETATM    2  C   UNL     1     -10.339  11.668  66.395  1.00  0.00    -0.266 C  
HETATM    3  C   UNL     1      -9.373  11.284  65.240  1.00  0.00    -0.203 C  
HETATM    4  C   UNL     1      -9.696  12.669  67.386  1.00  0.00    -0.199 C  
ENDROOT
BRANCH   4   5
HETATM    5  C   UNL     1     -10.611  13.112  68.511  1.00  0.00    -0.274 A  
HETATM    6  C   UNL     1     -11.324  12.181  69.274  1.00  0.00    -0.327 A  
HETATM    7  C   UNL     1     -12.139  12.592  70.338  1.00  0.00    -0.380 A  
HETATM    8  C   UNL     1     -10.758  14.467  68.825  1.00  0.00    -0.257 A  
HETATM    9  C   UNL     1     -12.269  13.951  70.686  1.00  0.00    -0.443 A  
HETATM   10  C   UNL     1     -11.570  14.875  69.893  1.00  0.00    -0.328 A  
BRANCH   9  11
HETATM   11  C   UNL     1     -13.127  14.374  71.894  1.00  0.00    -0.433 C  
HETATM   12  C   UNL     1     -12.297  14.953  73.063  1.00  0.00    -0.448 C  
HETATM   13  C   UNL     1     -14.145  15.454  71.473  1.00  0.00    -0.596 C  
HETATM   14  C   UNL     1     -13.898  13.156  72.452  1.00  0.00    -0.583 C  
ENDBRANCH   9  11
ENDBRANCH   4   5
BRANCH   3  15
HETATM   15  N   UNL     1      -8.113  10.608  65.603  1.00  0.00    -0.161 NA 
HETATM   16  C   UNL     1      -8.250   7.819  64.570  1.00  0.00    -0.060 C  
HETATM   17  C   UNL     1      -7.997   9.005  63.645  1.00  0.00    -0.150 C  
HETATM   18  C   UNL     1      -7.372  10.191  64.393  1.00  0.00    -0.116 C  
HETATM   19  C   UNL     1      -8.276   9.450  66.496  1.00  0.00    -0.115 C  
HETATM   20  C   UNL     1      -8.971   8.252  65.844  1.00  0.00    -0.208 C  
ENDBRANCH   3  15
TORSDOF 3
ENDMDL
MODEL       23
REMARK 921   NORMALIZED FREE ENERGY PREDICTED BY IDOCK:   -5.29 KCAL/MOL
REMARK 922        TOTAL FREE ENERGY PREDICTED BY IDOCK:   -6.75 KCAL/MOL
REMARK 923 INTER-LIGAND FREE ENERGY PREDICTED BY IDOCK:   -6.84 KCAL/MOL
REMARK 924 INTRA-LIGAND FREE ENERGY PREDICTED BY IDOCK:    0.10 KCAL/MOL
REMARK 927      BINDING AFFINITY PREDICTED BY RF-SCORE:    0.00 PKD
ROOT
HETATM    1  C   UNL     1     -13.284   9.644  71.489  1.00  0.00    -0.484 C  
HETATM    2  C   UNL     1     -11.796   9.289  71.645  1.00  0.00    -0.453 C  
HETATM    3  C   UNL     1     -11.702   7.992  72.495  1.00  0.00    -0.387 C  
HETATM    4  C   UNL     1     -11.118   9.132  70.261  1.00  0.00    -0.272 C  
ENDROOT
BRANCH   4   5
HETATM    5  C   UNL     1     -11.218  10.356  69.372  1.00  0.00    -0.314 A  
HETATM    6  C   UNL     1     -11.483  11.620  69.907  1.00  0.00    -0.308 A  
HETATM    7  C   UNL     1     -11.536  12.756  69.086  1.00  0.00    -0.373 A  
HETATM    8  C   UNL     1     -11.034  10.255  67.988  1.00  0.00    -0.345 A  
HETATM    9  C   UNL     1     -11.320  12.673  67.697  1.00  0.00    -0.362 A  
HETATM   10  C   UNL     1     -11.084  11.393  67.170  1.00  0.00    -0.366 A  
BRANCH   9  11
HETATM   11  C   UNL     1     -11.328  13.941  66.823  1.00  0.00    -0.347 C  
HETATM   12  C   UNL     1     -12.524  14.005  65.845  1.00  0.00    -0.513 C  
HETATM   13  C   UNL     1     -11.393  15.201  67.712  1.00  0.00    -0.335 C  
HETATM   14  C   UNL     1     -10.043  14.005  65.966  1.00  0.00    -0.327 C  
ENDBRANCH   9  11
ENDBRANCH   4   5
BRANCH   3  15
HETATM   15  N   UNL     1     -10.355   7.509  72.853  1.00  0.00    -0.264 NA 
HETATM   16  C   UNL     1     -10.299   4.566  72.408  1.00  0.00    -0.256 C  
HETATM   17  C   UNL     1     -10.244   5.553  71.247  1.00  0.00    -0.283 C  
HETATM   18  C   UNL     1      -9.680   6.914  71.679  1.00  0.00    -0.161 C  
HETATM   19  C   UNL     1     -10.326   6.550  73.968  1.00  0.00    -0.340 C  
HETATM   20  C   UNL     1     -10.951   5.191  73.639  1.00  0.00    -0.350 C  
ENDBRANCH   3  15
TORSDOF 3
ENDMDL
MODEL       24
REMARK 921   NORMALIZED FREE ENERGY PREDICTED BY IDOCK:   -5.28 KCAL/MOL
REMARK 922        TOTAL FREE ENERGY PREDICTED BY IDOCK:   -6.74 KCAL/MOL
REMARK 923 INTER-LIGAND FREE ENERGY PREDICTED BY IDOCK:   -6.17 KCAL/MOL
REMARK 924 INTRA-LIGAND FREE ENERGY PREDICTED BY IDOCK:   -0.57 KCAL/MOL
REMARK 927      BINDING AFFINITY PREDICTED BY RF-SCORE:    0.00 PKD
ROOT
HETATM    1  C   UNL     1     -11.484  14.959  67.358  1.00  0.00    -0.354 C  
HETATM    2  C   UNL     1     -11.291  14.101  68.621  1.00  0.00    -0.306 C  
HETATM    3  C   UNL     1     -12.148  14.725  69.756  1.00  0.00    -0.319 C  
HETATM    4  C   UNL     1     -11.669  12.624  68.347  1.00  0.00    -0.377 C  
ENDROOT
BRANCH   4   5
HETATM    5  C   UNL     1     -10.892  11.977  67.217  1.00  0.00    -0.290 A  
HETATM    6  C   UNL     1     -11.390  11.965  65.910  1.00  0.00    -0.365 A  
HETATM    7  C   UNL     1     -10.651  11.401  64.860  1.00  0.00    -0.368 A  
HETATM    8  C   UNL     1      -9.647  11.384  67.450  1.00  0.00    -0.185 A  
HETATM    9  C   UNL     1      -9.381  10.830  65.076  1.00  0.00    -0.261 A  
HETATM   10  C   UNL     1      -8.908  10.824  66.398  1.00  0.00    -0.174 A  
BRANCH   9  11
HETATM   11  C   UNL     1      -8.564  10.266  63.899  1.00  0.00    -0.191 C  
HETATM   12  C   UNL     1      -8.575   8.721  63.829  1.00  0.00    -0.061 C  
HETATM   13  C   UNL     1      -9.123  10.791  62.560  1.00  0.00    -0.344 C  
HETATM   14  C   UNL     1      -7.085  10.698  64.022  1.00  0.00     0.253 C  
ENDBRANCH   9  11
ENDBRANCH   4   5
BRANCH   3  15
HETATM   15  N   UNL     1     -12.049  14.118  71.096  1.00  0.00    -0.345 NA 
HETATM   16  C   UNL     1     -13.635  15.799  72.973  1.00  0.00    -0.638 C  
HETATM   17  C   UNL     1     -14.305  14.853  71.983  1.00  0.00    -0.651 C  
HETATM   18  C   UNL     1     -13.381  13.695  71.582  1.00  0.00    -0.346 C  
HETATM   19  C   UNL     1     -11.412  14.973  72.109  1.00  0.00    -0.239 C  
HETATM   20  C   UNL     1     -12.240  16.200  72.501  1.00  0.00    -0.609 C  
ENDBRANCH   3  15
TORSDOF 3
ENDMDL
MODEL       25
REMARK 921   NORMALIZED FREE ENERGY PREDICTED BY IDOCK:   -5.27 KCAL/MOL
REMARK 922        TOTAL FREE ENERGY PREDICTED BY IDOCK:   -6.72 KCAL/MOL
REMARK 923 INTER-LIGAND FREE ENERGY PREDICTED BY IDOCK:   -6.01 KCAL/MOL
REMARK 924 INTRA-LIGAND FREE ENERGY PREDICTED BY IDOCK:   -0.71 KCAL/MOL
REMARK 927      BINDING AFFINITY PREDICTED BY RF-SCORE:    0.00 PKD
ROOT
HETATM    1  C   UNL     1      -9.029  14.751  66.956  1.00  0.00    -0.258 C  
HETATM    2  C   UNL     1     -10.016  15.841  67.408  1.00  0.00    -0.237 C  
HETATM    3  C   UNL     1      -9.850  17.058  66.458  1.00  0.00    -0.294 C  
HETATM    4  C   UNL     1     -11.467  15.300  67.418  1.00  0.00    -0.246 C  
ENDROOT
BRANCH   4   5
HETATM    5  C   UNL     1     -11.677  14.083  68.298  1.00  0.00    -0.392 A  
HETATM    6  C   UNL     1     -11.807  14.206  69.685  1.00  0.00    -0.379 A  
HETATM    7  C   UNL     1     -12.039  13.082  70.491  1.00  0.00    -0.373 A  
HETATM    8  C   UNL     1     -11.759  12.801  67.743  1.00  0.00    -0.412 A  
HETATM    9  C   UNL     1     -12.157  11.791  69.941  1.00  0.00    -0.359 A  
HETATM   10  C   UNL     1     -11.996  11.680  68.550  1.00  0.00    -0.284 A  
BRANCH   9  11
HETATM   11  C   UNL     1     -12.468  10.579  70.840  1.00  0.00    -0.488 C  
HETATM   12  C   UNL     1     -13.511   9.614  70.231  1.00  0.00     0.631 C  
HETATM   13  C   UNL     1     -11.183   9.764  71.099  1.00  0.00    -0.444 C  
HETATM   14  C   UNL     1     -13.036  11.055  72.197  1.00  0.00    -0.244 C  
ENDBRANCH   9  11
ENDBRANCH   4   5
BRANCH   3  15
HETATM   15  N   UNL     1     -10.639  18.268  66.757  1.00  0.00    -0.351 NA 
HETATM   16  C   UNL     1      -8.736  20.422  67.533  1.00  0.00    -0.370 C  
HETATM   17  C   UNL     1      -8.910  19.991  66.081  1.00  0.00    -0.320 C  
HETATM   18  C   UNL     1     -10.289  19.366  65.831  1.00  0.00    -0.451 C  
HETATM   19  C   UNL     1     -10.522  18.746  68.144  1.00  0.00    -0.315 C  
HETATM   20  C   UNL     1      -9.142  19.308  68.496  1.00  0.00    -0.425 C  
ENDBRANCH   3  15
TORSDOF 3
ENDMDL
MODEL       26
REMARK 921   NORMALIZED FREE ENERGY PREDICTED BY IDOCK:   -5.26 KCAL/MOL
REMARK 922        TOTAL FREE ENERGY PREDICTED BY IDOCK:   -6.72 KCAL/MOL
REMARK 923 INTER-LIGAND FREE ENERGY PREDICTED BY IDOCK:   -5.98 KCAL/MOL
REMARK 924 INTRA-LIGAND FREE ENERGY PREDICTED BY IDOCK:   -0.73 KCAL/MOL
REMARK 927      BINDING AFFINITY PREDICTED BY RF-SCORE:    0.00 PKD
ROOT
HETATM    1  C   UNL     1     -11.628  11.107  69.781  1.00  0.00    -0.409 C  
HETATM    2  C   UNL     1     -11.834  12.579  69.386  1.00  0.00    -0.368 C  
HETATM    3  C   UNL     1     -12.267  13.357  70.660  1.00  0.00    -0.350 C  
HETATM    4  C   UNL     1     -10.549  13.165  68.751  1.00  0.00    -0.225 C  
ENDROOT
BRANCH   4   5
HETATM    5  C   UNL     1     -10.057  12.416  67.528  1.00  0.00    -0.205 A  
HETATM    6  C   UNL     1      -8.766  11.882  67.478  1.00  0.00    -0.163 A  
HETATM    7  C   UNL     1      -8.327  11.156  66.360  1.00  0.00    -0.167 A  
HETATM    8  C   UNL     1     -10.889  12.227  66.419  1.00  0.00    -0.299 A  
HETATM    9  C   UNL     1      -9.165  10.931  65.251  1.00  0.00    -0.236 A  
HETATM   10  C   UNL     1     -10.449  11.498  65.305  1.00  0.00    -0.336 A  
BRANCH   9  11
HETATM   11  C   UNL     1      -8.681  10.084  64.060  1.00  0.00    -0.222 C  
HETATM   12  C   UNL     1      -7.218  10.375  63.654  1.00  0.00    -0.002 C  
HETATM   13  C   UNL     1      -8.774   8.581  64.400  1.00  0.00     0.053 C  
HETATM   14  C   UNL     1      -9.556  10.366  62.816  1.00  0.00    -0.311 C  
ENDBRANCH   9  11
ENDBRANCH   4   5
BRANCH   3  15
HETATM   15  N   UNL     1     -12.611  14.782  70.502  1.00  0.00    -0.350 NA 
HETATM   16  C   UNL     1     -13.221  15.872  73.205  1.00  0.00    -0.692 C  
HETATM   17  C   UNL     1     -11.790  15.594  72.757  1.00  0.00    -0.580 C  
HETATM   18  C   UNL     1     -11.649  15.639  71.229  1.00  0.00    -0.428 C  
HETATM   19  C   UNL     1     -13.980  15.130  70.914  1.00  0.00    -0.178 C  
HETATM   20  C   UNL     1     -14.223  15.026  72.423  1.00  0.00    -0.516 C  
ENDBRANCH   3  15
TORSDOF 3
ENDMDL
MODEL       27
REMARK 921   NORMALIZED FREE ENERGY PREDICTED BY IDOCK:   -5.26 KCAL/MOL
REMARK 922        TOTAL FREE ENERGY PREDICTED BY IDOCK:   -6.72 KCAL/MOL
REMARK 923 INTER-LIGAND FREE ENERGY PREDICTED BY IDOCK:   -5.91 KCAL/MOL
REMARK 924 INTRA-LIGAND FREE ENERGY PREDICTED BY IDOCK:   -0.80 KCAL/MOL
REMARK 927      BINDING AFFINITY PREDICTED BY RF-SCORE:    0.00 PKD
ROOT
HETATM    1  C   UNL     1     -12.125  13.120  67.407  1.00  0.00    -0.316 C  
HETATM    2  C   UNL     1     -10.687  12.606  67.217  1.00  0.00    -0.259 C  
HETATM    3  C   UNL     1     -10.762  11.087  66.900  1.00  0.00    -0.274 C  
HETATM    4  C   UNL     1      -9.960  13.401  66.105  1.00  0.00    -0.299 C  
ENDROOT
BRANCH   4   5
HETATM    5  C   UNL     1      -9.896  14.897  66.343  1.00  0.00    -0.292 A  
HETATM    6  C   UNL     1      -9.177  15.429  67.419  1.00  0.00    -0.204 A  
HETATM    7  C   UNL     1      -9.087  16.815  67.614  1.00  0.00    -0.218 A  
HETATM    8  C   UNL     1     -10.545  15.790  65.484  1.00  0.00    -0.424 A  
HETATM    9  C   UNL     1      -9.709  17.725  66.736  1.00  0.00    -0.309 A  
HETATM   10  C   UNL     1     -10.451  17.175  65.678  1.00  0.00    -0.208 A  
BRANCH   9  11
HETATM   11  C   UNL     1      -9.551  19.243  66.938  1.00  0.00    -0.398 C  
HETATM   12  C   UNL     1      -8.109  19.748  66.697  1.00  0.00    -0.341 C  
HETATM   13  C   UNL     1     -10.475  20.010  65.969  1.00  0.00    -0.523 C  
HETATM   14  C   UNL     1      -9.924  19.629  68.388  1.00  0.00    -0.543 C  
ENDBRANCH   9  11
ENDBRANCH   4   5
BRANCH   3  15
HETATM   15  N   UNL     1      -9.489  10.356  66.767  1.00  0.00    -0.163 NA 
HETATM   16  C   UNL     1      -9.694   7.873  68.397  1.00  0.00    -0.170 C  
HETATM   17  C   UNL     1     -10.399   8.009  67.051  1.00  0.00    -0.414 C  
HETATM   18  C   UNL     1      -9.704   9.033  66.142  1.00  0.00    -0.283 C  
HETATM   19  C   UNL     1      -8.749  10.184  68.027  1.00  0.00    -0.122 C  
HETATM   20  C   UNL     1      -9.425   9.238  69.024  1.00  0.00    -0.155 C  
ENDBRANCH   3  15
TORSDOF 3
ENDMDL
MODEL       28
REMARK 921   NORMALIZED FREE ENERGY PREDICTED BY IDOCK:   -5.25 KCAL/MOL
REMARK 922        TOTAL FREE ENERGY PREDICTED BY IDOCK:   -6.69 KCAL/MOL
REMARK 923 INTER-LIGAND FREE ENERGY PREDICTED BY IDOCK:   -5.90 KCAL/MOL
REMARK 924 INTRA-LIGAND FREE ENERGY PREDICTED BY IDOCK:   -0.79 KCAL/MOL
REMARK 927      BINDING AFFINITY PREDICTED BY RF-SCORE:    0.00 PKD
ROOT
HETATM    1  C   UNL     1      -8.778  10.607  67.257  1.00  0.00    -0.129 C  
HETATM    2  C   UNL     1     -10.231  11.078  67.444  1.00  0.00    -0.229 C  
HETATM    3  C   UNL     1     -10.676  11.779  66.131  1.00  0.00    -0.277 C  
HETATM    4  C   UNL     1     -11.152   9.889  67.814  1.00  0.00    -0.196 C  
ENDROOT
BRANCH   4   5
HETATM    5  C   UNL     1     -10.737   9.140  69.065  1.00  0.00    -0.176 A  
HETATM    6  C   UNL     1     -10.351   7.797  69.010  1.00  0.00    -0.219 A  
HETATM    7  C   UNL     1      -9.930   7.118  70.163  1.00  0.00    -0.190 A  
HETATM    8  C   UNL     1     -10.718   9.778  70.311  1.00  0.00    -0.358 A  
HETATM    9  C   UNL     1      -9.874   7.758  71.417  1.00  0.00    -0.195 A  
HETATM   10  C   UNL     1     -10.293   9.098  71.461  1.00  0.00    -0.414 A  
BRANCH   9  11
HETATM   11  C   UNL     1      -9.356   7.009  72.659  1.00  0.00    -0.159 C  
HETATM   12  C   UNL     1      -8.187   6.045  72.351  1.00  0.00    -0.109 C  
HETATM   13  C   UNL     1      -8.858   8.013  73.719  1.00  0.00    -0.313 C  
HETATM   14  C   UNL     1     -10.489   6.157  73.276  1.00  0.00    -0.261 C  
ENDBRANCH   9  11
ENDBRANCH   4   5
BRANCH   3  15
HETATM   15  N   UNL     1     -12.015  12.396  66.110  1.00  0.00    -0.608 NA 
HETATM   16  C   UNL     1     -11.823  14.929  64.557  1.00  0.00    -0.404 C  
HETATM   17  C   UNL     1     -11.829  13.566  63.871  1.00  0.00    -0.460 C  
HETATM   18  C   UNL     1     -12.526  12.499  64.726  1.00  0.00    -0.457 C  
HETATM   19  C   UNL     1     -12.090  13.717  66.755  1.00  0.00    -0.418 C  
HETATM   20  C   UNL     1     -11.343  14.822  66.002  1.00  0.00    -0.332 C  
ENDBRANCH   3  15
TORSDOF 3
ENDMDL
MODEL       29
REMARK 921   NORMALIZED FREE ENERGY PREDICTED BY IDOCK:   -5.24 KCAL/MOL
REMARK 922        TOTAL FREE ENERGY PREDICTED BY IDOCK:   -6.69 KCAL/MOL
REMARK 923 INTER-LIGAND FREE ENERGY PREDICTED BY IDOCK:   -6.56 KCAL/MOL
REMARK 924 INTRA-LIGAND FREE ENERGY PREDICTED BY IDOCK:   -0.13 KCAL/MOL
REMARK 927      BINDING AFFINITY PREDICTED BY RF-SCORE:    0.00 PKD
ROOT
HETATM    1  C   UNL     1     -13.186  10.402  71.905  1.00  0.00    -0.535 C  
HETATM    2  C   UNL     1     -12.995  11.611  70.973  1.00  0.00    -0.227 C  
HETATM    3  C   UNL     1     -13.401  12.887  71.760  1.00  0.00    -0.359 C  
HETATM    4  C   UNL     1     -11.538  11.682  70.454  1.00  0.00    -0.158 C  
ENDROOT
BRANCH   4   5
HETATM    5  C   UNL     1     -11.075  10.442  69.715  1.00  0.00    -0.352 A  
HETATM    6  C   UNL     1     -11.187  10.344  68.324  1.00  0.00    -0.330 A  
HETATM    7  C   UNL     1     -10.722   9.211  67.640  1.00  0.00    -0.257 A  
HETATM    8  C   UNL     1     -10.508   9.365  70.405  1.00  0.00    -0.311 A  
HETATM    9  C   UNL     1     -10.119   8.135  68.319  1.00  0.00    -0.230 A  
HETATM   10  C   UNL     1     -10.039   8.236  69.718  1.00  0.00    -0.197 A  
BRANCH   9  11
HETATM   11  C   UNL     1      -9.565   6.926  67.542  1.00  0.00    -0.150 C  
HETATM   12  C   UNL     1      -8.609   6.044  68.378  1.00  0.00    -0.111 C  
HETATM   13  C   UNL     1     -10.722   6.024  67.062  1.00  0.00    -0.412 C  
HETATM   14  C   UNL     1      -8.767   7.408  66.308  1.00  0.00    -0.163 C  
ENDBRANCH   9  11
ENDBRANCH   4   5
BRANCH   3  15
HETATM   15  N   UNL     1     -13.386  14.169  71.031  1.00  0.00    -0.279 NA 
HETATM   16  C   UNL     1     -12.402  16.265  72.903  1.00  0.00    -0.553 C  
HETATM   17  C   UNL     1     -11.457  15.252  72.265  1.00  0.00    -0.480 C  
HETATM   18  C   UNL     1     -12.011  14.707  70.941  1.00  0.00    -0.326 C  
HETATM   19  C   UNL     1     -14.275  15.200  71.589  1.00  0.00    -0.567 C  
HETATM   20  C   UNL     1     -13.832  15.735  72.953  1.00  0.00    -0.565 C  
ENDBRANCH   3  15
TORSDOF 3
ENDMDL
MODEL       30
REMARK 921   NORMALIZED FREE ENERGY PREDICTED BY IDOCK:   -5.24 KCAL/MOL
REMARK 922        TOTAL FREE ENERGY PREDICTED BY IDOCK:   -6.69 KCAL/MOL
REMARK 923 INTER-LIGAND FREE ENERGY PREDICTED BY IDOCK:   -6.28 KCAL/MOL
REMARK 924 INTRA-LIGAND FREE ENERGY PREDICTED BY IDOCK:   -0.41 KCAL/MOL
REMARK 927      BINDING AFFINITY PREDICTED BY RF-SCORE:    0.00 PKD
ROOT
HETATM    1  C   UNL     1      -8.294  11.914  67.984  1.00  0.00    -0.160 C  
HETATM    2  C   UNL     1      -9.396  11.430  67.026  1.00  0.00    -0.183 C  
HETATM    3  C   UNL     1      -8.772  10.365  66.082  1.00  0.00    -0.152 C  
HETATM    4  C   UNL     1     -10.607  10.875  67.815  1.00  0.00    -0.255 C  
ENDROOT
BRANCH   4   5
HETATM    5  C   UNL     1     -11.229  11.861  68.785  1.00  0.00    -0.314 A  
HETATM    6  C   UNL     1     -11.935  11.422  69.909  1.00  0.00    -0.434 A  
HETATM    7  C   UNL     1     -12.476  12.336  70.826  1.00  0.00    -0.356 A  
HETATM    8  C   UNL     1     -11.101  13.240  68.588  1.00  0.00    -0.301 A  
HETATM    9  C   UNL     1     -12.325  13.726  70.656  1.00  0.00    -0.445 A  
HETATM   10  C   UNL     1     -11.639  14.152  69.507  1.00  0.00    -0.349 A  
BRANCH   9  11
HETATM   11  C   UNL     1     -12.879  14.710  71.704  1.00  0.00    -0.403 C  
HETATM   12  C   UNL     1     -11.935  15.902  71.987  1.00  0.00    -0.602 C  
HETATM   13  C   UNL     1     -14.226  15.294  71.229  1.00  0.00    -0.506 C  
HETATM   14  C   UNL     1     -13.100  13.984  73.051  1.00  0.00    -0.365 C  
ENDBRANCH   9  11
ENDBRANCH   4   5
BRANCH   3  15
HETATM   15  N   UNL     1      -9.627   9.821  65.011  1.00  0.00    -0.287 NA 
HETATM   16  C   UNL     1      -8.793  11.092  62.451  1.00  0.00    -0.358 C  
HETATM   17  C   UNL     1      -7.963   9.995  63.110  1.00  0.00    -0.148 C  
HETATM   18  C   UNL     1      -8.818   9.093  64.010  1.00  0.00    -0.076 C  
HETATM   19  C   UNL     1     -10.461  10.822  64.326  1.00  0.00    -0.259 C  
HETATM   20  C   UNL     1      -9.669  11.815  63.472  1.00  0.00    -0.325 C  
ENDBRANCH   3  15
TORSDOF 3
ENDMDL
MODEL       31
REMARK 921   NORMALIZED FREE ENERGY PREDICTED BY IDOCK:   -5.23 KCAL/MOL
REMARK 922        TOTAL FREE ENERGY PREDICTED BY IDOCK:   -6.68 KCAL/MOL
REMARK 923 INTER-LIGAND FREE ENERGY PREDICTED BY IDOCK:   -5.92 KCAL/MOL
REMARK 924 INTRA-LIGAND FREE ENERGY PREDICTED BY IDOCK:   -0.76 KCAL/MOL
REMARK 927      BINDING AFFINITY PREDICTED BY RF-SCORE:    0.00 PKD
ROOT
HETATM    1  C   UNL     1     -12.122  13.093  67.003  1.00  0.00    -0.366 C  
HETATM    2  C   UNL     1     -10.736  12.545  67.384  1.00  0.00    -0.254 C  
HETATM    3  C   UNL     1     -10.750  11.009  67.149  1.00  0.00    -0.265 C  
HETATM    4  C   UNL     1      -9.622  13.251  66.573  1.00  0.00    -0.267 C  
ENDROOT
BRANCH   4   5
HETATM    5  C   UNL     1      -9.591  14.759  66.731  1.00  0.00    -0.267 A  
HETATM    6  C   UNL     1      -9.950  15.605  65.678  1.00  0.00    -0.388 A  
HETATM    7  C   UNL     1      -9.957  16.999  65.840  1.00  0.00    -0.239 A  
HETATM    8  C   UNL     1      -9.213  15.346  67.944  1.00  0.00    -0.180 A  
HETATM    9  C   UNL     1      -9.611  17.600  67.066  1.00  0.00    -0.276 A  
HETATM   10  C   UNL     1      -9.226  16.738  68.105  1.00  0.00    -0.224 A  
BRANCH   9  11
HETATM   11  C   UNL     1      -9.680  19.129  67.237  1.00  0.00    -0.386 C  
HETATM   12  C   UNL     1     -10.650  19.815  66.247  1.00  0.00    -0.572 C  
HETATM   13  C   UNL     1     -10.151  19.486  68.663  1.00  0.00    -0.535 C  
HETATM   14  C   UNL     1      -8.285  19.754  67.005  1.00  0.00    -0.340 C  
ENDBRANCH   9  11
ENDBRANCH   4   5
BRANCH   3  15
HETATM   15  N   UNL     1      -9.545  10.251  67.535  1.00  0.00    -0.155 NA 
HETATM   16  C   UNL     1     -10.428   7.576  68.500  1.00  0.00    -0.211 C  
HETATM   17  C   UNL     1     -10.411   7.928  67.016  1.00  0.00    -0.411 C  
HETATM   18  C   UNL     1      -9.398   9.038  66.702  1.00  0.00    -0.177 C  
HETATM   19  C   UNL     1      -9.489   9.875  68.956  1.00  0.00    -0.183 C  
HETATM   20  C   UNL     1     -10.530   8.829  69.366  1.00  0.00    -0.228 C  
ENDBRANCH   3  15
TORSDOF 3
ENDMDL
MODEL       32
REMARK 921   NORMALIZED FREE ENERGY PREDICTED BY IDOCK:   -5.22 KCAL/MOL
REMARK 922        TOTAL FREE ENERGY PREDICTED BY IDOCK:   -6.66 KCAL/MOL
REMARK 923 INTER-LIGAND FREE ENERGY PREDICTED BY IDOCK:   -5.93 KCAL/MOL
REMARK 924 INTRA-LIGAND FREE ENERGY PREDICTED BY IDOCK:   -0.73 KCAL/MOL
REMARK 927      BINDING AFFINITY PREDICTED BY RF-SCORE:    0.00 PKD
ROOT
HETATM    1  C   UNL     1     -12.124  11.539  70.150  1.00  0.00    -0.432 C  
HETATM    2  C   UNL     1     -11.624  11.050  68.780  1.00  0.00    -0.386 C  
HETATM    3  C   UNL     1     -11.554  12.279  67.832  1.00  0.00    -0.354 C  
HETATM    4  C   UNL     1     -10.256  10.337  68.915  1.00  0.00    -0.220 C  
ENDROOT
BRANCH   4   5
HETATM    5  C   UNL     1     -10.257   9.154  69.864  1.00  0.00    -0.222 A  
HETATM    6  C   UNL     1     -11.014   8.010  69.594  1.00  0.00    -0.106 A  
HETATM    7  C   UNL     1     -10.982   6.902  70.454  1.00  0.00    -0.315 A  
HETATM    8  C   UNL     1      -9.489   9.171  71.033  1.00  0.00    -0.344 A  
HETATM    9  C   UNL     1     -10.186   6.894  71.616  1.00  0.00    -0.205 A  
HETATM   10  C   UNL     1      -9.455   8.061  71.889  1.00  0.00    -0.240 A  
BRANCH   9  11
HETATM   11  C   UNL     1     -10.124   5.645  72.516  1.00  0.00    -0.208 C  
HETATM   12  C   UNL     1     -11.517   5.101  72.908  1.00  0.00    -0.329 C  
HETATM   13  C   UNL     1      -9.370   4.506  71.798  1.00  0.00    -0.194 C  
HETATM   14  C   UNL     1      -9.385   5.976  73.834  1.00  0.00    -0.133 C  
ENDBRANCH   9  11
ENDBRANCH   4   5
BRANCH   3  15
HETATM   15  N   UNL     1     -11.183  12.033  66.426  1.00  0.00    -0.322 NA 
HETATM   16  C   UNL     1     -11.006  14.673  65.061  1.00  0.00    -0.415 C  
HETATM   17  C   UNL     1      -9.919  14.189  66.014  1.00  0.00    -0.340 C  
HETATM   18  C   UNL     1      -9.880  12.657  66.109  1.00  0.00    -0.259 C  
HETATM   19  C   UNL     1     -12.185  12.474  65.443  1.00  0.00    -0.412 C  
HETATM   20  C   UNL     1     -12.342  13.995  65.351  1.00  0.00    -0.495 C  
ENDBRANCH   3  15
TORSDOF 3
ENDMDL
MODEL       33
REMARK 921   NORMALIZED FREE ENERGY PREDICTED BY IDOCK:   -5.21 KCAL/MOL
REMARK 922        TOTAL FREE ENERGY PREDICTED BY IDOCK:   -6.66 KCAL/MOL
REMARK 923 INTER-LIGAND FREE ENERGY PREDICTED BY IDOCK:   -5.83 KCAL/MOL
REMARK 924 INTRA-LIGAND FREE ENERGY PREDICTED BY IDOCK:   -0.82 KCAL/MOL
REMARK 927      BINDING AFFINITY PREDICTED BY RF-SCORE:    0.00 PKD
ROOT
HETATM    1  C   UNL     1      -8.179  13.187  68.251  1.00  0.00    -0.154 C  
HETATM    2  C   UNL     1      -9.221  12.713  67.223  1.00  0.00    -0.195 C  
HETATM    3  C   UNL     1      -9.409  11.182  67.408  1.00  0.00    -0.164 C  
HETATM    4  C   UNL     1     -10.550  13.490  67.387  1.00  0.00    -0.254 C  
ENDROOT
BRANCH   4   5
HETATM    5  C   UNL     1     -10.417  14.995  67.260  1.00  0.00    -0.265 A  
HETATM    6  C   UNL     1     -10.732  15.842  68.326  1.00  0.00    -0.291 A  
HETATM    7  C   UNL     1     -10.571  17.231  68.218  1.00  0.00    -0.383 A  
HETATM    8  C   UNL     1      -9.961  15.577  66.072  1.00  0.00    -0.356 A  
HETATM    9  C   UNL     1     -10.081  17.827  67.039  1.00  0.00    -0.337 A  
HETATM   10  C   UNL     1      -9.796  16.965  65.968  1.00  0.00    -0.281 A  
BRANCH   9  11
HETATM   11  C   UNL     1      -9.859  19.349  66.962  1.00  0.00    -0.440 C  
HETATM   12  C   UNL     1      -8.378  19.745  66.760  1.00  0.00    -0.354 C  
HETATM   13  C   UNL     1     -10.660  19.947  65.786  1.00  0.00    -0.490 C  
HETATM   14  C   UNL     1     -10.328  20.022  68.273  1.00  0.00    -0.494 C  
ENDBRANCH   9  11
ENDBRANCH   4   5
BRANCH   3  15
HETATM   15  N   UNL     1     -10.302  10.487  66.463  1.00  0.00    -0.240 NA 
HETATM   16  C   UNL     1      -8.629   8.669  64.803  1.00  0.00    -0.139 C  
HETATM   17  C   UNL     1      -8.983   8.335  66.248  1.00  0.00    -0.221 C  
HETATM   18  C   UNL     1     -10.279   9.026  66.694  1.00  0.00    -0.263 C  
HETATM   19  C   UNL     1     -10.022  10.759  65.044  1.00  0.00    -0.300 C  
HETATM   20  C   UNL     1      -8.699  10.172  64.546  1.00  0.00    -0.211 C  
ENDBRANCH   3  15
TORSDOF 3
ENDMDL
MODEL       34
REMARK 921   NORMALIZED FREE ENERGY PREDICTED BY IDOCK:   -5.19 KCAL/MOL
REMARK 922        TOTAL FREE ENERGY PREDICTED BY IDOCK:   -6.63 KCAL/MOL
REMARK 923 INTER-LIGAND FREE ENERGY PREDICTED BY IDOCK:   -5.80 KCAL/MOL
REMARK 924 INTRA-LIGAND FREE ENERGY PREDICTED BY IDOCK:   -0.83 KCAL/MOL
REMARK 927      BINDING AFFINITY PREDICTED BY RF-SCORE:    0.00 PKD
ROOT
HETATM    1  C   UNL     1     -12.120  11.778  68.967  1.00  0.00    -0.276 C  
HETATM    2  C   UNL     1     -11.210  11.544  67.750  1.00  0.00    -0.343 C  
HETATM    3  C   UNL     1     -11.102  12.884  66.972  1.00  0.00    -0.275 C  
HETATM    4  C   UNL     1      -9.825  11.011  68.192  1.00  0.00    -0.185 C  
ENDROOT
BRANCH   4   5
HETATM    5  C   UNL     1      -9.875   9.725  68.994  1.00  0.00    -0.183 A  
HETATM    6  C   UNL     1      -9.415   9.678  70.314  1.00  0.00    -0.300 A  
HETATM    7  C   UNL     1      -9.499   8.497  71.066  1.00  0.00    -0.234 A  
HETATM    8  C   UNL     1     -10.396   8.552  68.438  1.00  0.00    -0.241 A  
HETATM    9  C   UNL     1     -10.051   7.318  70.529  1.00  0.00    -0.195 A  
HETATM   10  C   UNL     1     -10.482   7.374  69.194  1.00  0.00    -0.217 A  
BRANCH   9  11
HETATM   11  C   UNL     1     -10.184   6.049  71.392  1.00  0.00    -0.253 C  
HETATM   12  C   UNL     1     -11.505   5.985  72.193  1.00  0.00    -0.356 C  
HETATM   13  C   UNL     1     -10.125   4.789  70.501  1.00  0.00    -0.291 C  
HETATM   14  C   UNL     1      -9.032   5.982  72.421  1.00  0.00    -0.137 C  
ENDBRANCH   9  11
ENDBRANCH   4   5
BRANCH   3  15
HETATM   15  N   UNL     1     -10.345  12.877  65.706  1.00  0.00    -0.280 NA 
HETATM   16  C   UNL     1     -12.265  13.424  63.498  1.00  0.00    -0.468 C  
HETATM   17  C   UNL     1     -11.779  14.529  64.429  1.00  0.00    -0.381 C  
HETATM   18  C   UNL     1     -10.413  14.198  65.045  1.00  0.00    -0.425 C  
HETATM   19  C   UNL     1     -10.758  11.835  64.753  1.00  0.00    -0.302 C  
HETATM   20  C   UNL     1     -12.151  12.052  64.157  1.00  0.00    -0.458 C  
ENDBRANCH   3  15
TORSDOF 3
ENDMDL
MODEL       35
REMARK 921   NORMALIZED FREE ENERGY PREDICTED BY IDOCK:   -5.14 KCAL/MOL
REMARK 922        TOTAL FREE ENERGY PREDICTED BY IDOCK:   -6.57 KCAL/MOL
REMARK 923 INTER-LIGAND FREE ENERGY PREDICTED BY IDOCK:   -6.78 KCAL/MOL
REMARK 924 INTRA-LIGAND FREE ENERGY PREDICTED BY IDOCK:    0.21 KCAL/MOL
REMARK 927      BINDING AFFINITY PREDICTED BY RF-SCORE:    0.00 PKD
ROOT
HETATM    1  C   UNL     1     -12.556  10.346  70.964  1.00  0.00    -0.491 C  
HETATM    2  C   UNL     1     -11.128   9.774  70.924  1.00  0.00    -0.428 C  
HETATM    3  C   UNL     1     -11.028   8.668  72.010  1.00  0.00    -0.362 C  
HETATM    4  C   UNL     1     -10.789   9.240  69.511  1.00  0.00    -0.211 C  
ENDROOT
BRANCH   4   5
HETATM    5  C   UNL     1     -10.913  10.269  68.404  1.00  0.00    -0.308 A  
HETATM    6  C   UNL     1     -10.508   9.979  67.098  1.00  0.00    -0.305 A  
HETATM    7  C   UNL     1     -10.660  10.920  66.068  1.00  0.00    -0.254 A  
HETATM    8  C   UNL     1     -11.450  11.536  68.659  1.00  0.00    -0.354 A  
HETATM    9  C   UNL     1     -11.230  12.186  66.305  1.00  0.00    -0.382 A  
HETATM   10  C   UNL     1     -11.606  12.473  67.628  1.00  0.00    -0.416 A  
BRANCH   9  11
HETATM   11  C   UNL     1     -11.439  13.182  65.149  1.00  0.00    -0.327 C  
HETATM   12  C   UNL     1     -10.277  14.191  64.990  1.00  0.00    -0.399 C  
HETATM   13  C   UNL     1     -11.576  12.426  63.810  1.00  0.00    -0.553 C  
HETATM   14  C   UNL     1     -12.723  14.010  65.385  1.00  0.00    -0.499 C  
ENDBRANCH   9  11
ENDBRANCH   4   5
BRANCH   3  15
HETATM   15  N   UNL     1      -9.712   8.035  72.217  1.00  0.00    -0.206 NA 
HETATM   16  C   UNL     1     -10.174   5.364  73.447  1.00  0.00    -0.219 C  
HETATM   17  C   UNL     1     -10.439   5.622  71.968  1.00  0.00    -0.270 C  
HETATM   18  C   UNL     1      -9.598   6.788  71.430  1.00  0.00    -0.167 C  
HETATM   19  C   UNL     1      -9.383   7.754  73.623  1.00  0.00    -0.275 C  
HETATM   20  C   UNL     1     -10.241   6.656  74.257  1.00  0.00    -0.354 C  
ENDBRANCH   3  15
TORSDOF 3
ENDMDL
MODEL       36
REMARK 921   NORMALIZED FREE ENERGY PREDICTED BY IDOCK:   -4.97 KCAL/MOL
REMARK 922        TOTAL FREE ENERGY PREDICTED BY IDOCK:   -6.36 KCAL/MOL
REMARK 923 INTER-LIGAND FREE ENERGY PREDICTED BY IDOCK:   -5.53 KCAL/MOL
REMARK 924 INTRA-LIGAND FREE ENERGY PREDICTED BY IDOCK:   -0.84 KCAL/MOL
REMARK 927      BINDING AFFINITY PREDICTED BY RF-SCORE:    0.00 PKD
ROOT
HETATM    1  C   UNL     1      -9.189   8.022  68.325  1.00  0.00    -0.134 C  
HETATM    2  C   UNL     1      -9.916   8.558  69.570  1.00  0.00    -0.193 C  
HETATM    3  C   UNL     1      -9.449   7.721  70.792  1.00  0.00    -0.161 C  
HETATM    4  C   UNL     1      -9.644  10.071  69.758  1.00  0.00    -0.249 C  
ENDROOT
BRANCH   4   5
HETATM    5  C   UNL     1     -10.042  10.932  68.575  1.00  0.00    -0.193 A  
HETATM    6  C   UNL     1      -9.085  11.639  67.840  1.00  0.00    -0.171 A  
HETATM    7  C   UNL     1      -9.452  12.403  66.722  1.00  0.00    -0.228 A  
HETATM    8  C   UNL     1     -11.380  11.032  68.178  1.00  0.00    -0.374 A  
HETATM    9  C   UNL     1     -10.791  12.485  66.292  1.00  0.00    -0.299 A  
HETATM   10  C   UNL     1     -11.744  11.793  67.058  1.00  0.00    -0.247 A  
BRANCH   9  11
HETATM   11  C   UNL     1     -11.162  13.285  65.030  1.00  0.00    -0.325 C  
HETATM   12  C   UNL     1     -10.316  14.566  64.843  1.00  0.00    -0.401 C  
HETATM   13  C   UNL     1     -10.966  12.416  63.770  1.00  0.00    -0.501 C  
HETATM   14  C   UNL     1     -12.641  13.731  65.099  1.00  0.00    -0.471 C  
ENDBRANCH   9  11
ENDBRANCH   4   5
BRANCH   3  15
HETATM   15  N   UNL     1     -10.087   8.000  72.092  1.00  0.00    -0.214 NA 
HETATM   16  C   UNL     1     -11.392   5.490  73.019  1.00  0.00    -0.323 C  
HETATM   17  C   UNL     1      -9.881   5.681  73.090  1.00  0.00    -0.180 C  
HETATM   18  C   UNL     1      -9.494   7.165  73.159  1.00  0.00    -0.167 C  
HETATM   19  C   UNL     1     -11.549   7.837  72.103  1.00  0.00    -0.317 C  
HETATM   20  C   UNL     1     -12.016   6.387  71.952  1.00  0.00    -0.381 C  
ENDBRANCH   3  15
TORSDOF 3
ENDMDL
MODEL       37
REMARK 921   NORMALIZED FREE ENERGY PREDICTED BY IDOCK:   -4.94 KCAL/MOL
REMARK 922        TOTAL FREE ENERGY PREDICTED BY IDOCK:   -6.34 KCAL/MOL
REMARK 923 INTER-LIGAND FREE ENERGY PREDICTED BY IDOCK:   -5.61 KCAL/MOL
REMARK 924 INTRA-LIGAND FREE ENERGY PREDICTED BY IDOCK:   -0.73 KCAL/MOL
REMARK 927      BINDING AFFINITY PREDICTED BY RF-SCORE:    0.00 PKD
ROOT
HETATM    1  C   UNL     1      -7.294  15.840  69.070  1.00  0.00    -0.177 C  
HETATM    2  C   UNL     1      -8.232  16.269  67.928  1.00  0.00    -0.156 C  
HETATM    3  C   UNL     1      -7.675  17.587  67.325  1.00  0.00    -0.202 C  
HETATM    4  C   UNL     1      -8.358  15.147  66.868  1.00  0.00    -0.267 C  
ENDROOT
BRANCH   4   5
HETATM    5  C   UNL     1      -8.856  13.823  67.412  1.00  0.00    -0.211 A  
HETATM    6  C   UNL     1      -8.010  12.713  67.503  1.00  0.00    -0.174 A  
HETATM    7  C   UNL     1      -8.464  11.500  68.043  1.00  0.00    -0.148 A  
HETATM    8  C   UNL     1     -10.177  13.678  67.851  1.00  0.00    -0.250 A  
HETATM    9  C   UNL     1      -9.781  11.352  68.519  1.00  0.00    -0.199 A  
HETATM   10  C   UNL     1     -10.626  12.466  68.395  1.00  0.00    -0.251 A  
BRANCH   9  11
HETATM   11  C   UNL     1     -10.240  10.029  69.159  1.00  0.00    -0.224 C  
HETATM   12  C   UNL     1     -11.599  10.138  69.888  1.00  0.00    -0.290 C  
HETATM   13  C   UNL     1     -10.385   8.936  68.079  1.00  0.00    -0.271 C  
HETATM   14  C   UNL     1      -9.206   9.557  70.206  1.00  0.00    -0.303 C  
ENDBRANCH   9  11
ENDBRANCH   4   5
BRANCH   3  15
HETATM   15  N   UNL     1      -8.467  18.239  66.266  1.00  0.00    -0.440 NA 
HETATM   16  C   UNL     1      -9.847  20.583  67.476  1.00  0.00    -0.534 C  
HETATM   17  C   UNL     1      -8.358  20.609  67.151  1.00  0.00    -0.292 C  
HETATM   18  C   UNL     1      -7.998  19.622  66.032  1.00  0.00    -0.328 C  
HETATM   19  C   UNL     1      -9.919  18.253  66.508  1.00  0.00    -0.373 C  
HETATM   20  C   UNL     1     -10.348  19.153  67.669  1.00  0.00    -0.521 C  
ENDBRANCH   3  15
TORSDOF 3
ENDMDL
MODEL       38
REMARK 921   NORMALIZED FREE ENERGY PREDICTED BY IDOCK:   -4.90 KCAL/MOL
REMARK 922        TOTAL FREE ENERGY PREDICTED BY IDOCK:   -6.29 KCAL/MOL
REMARK 923 INTER-LIGAND FREE ENERGY PREDICTED BY IDOCK:   -5.74 KCAL/MOL
REMARK 924 INTRA-LIGAND FREE ENERGY PREDICTED BY IDOCK:   -0.55 KCAL/MOL
REMARK 927      BINDING AFFINITY PREDICTED BY RF-SCORE:    0.00 PKD
ROOT
HETATM    1  C   UNL     1     -12.114  12.941  66.430  1.00  0.00    -0.400 C  
HETATM    2  C   UNL     1     -10.745  13.474  66.885  1.00  0.00    -0.274 C  
HETATM    3  C   UNL     1     -10.815  15.026  66.887  1.00  0.00    -0.315 C  
HETATM    4  C   UNL     1     -10.365  12.904  68.274  1.00  0.00    -0.248 C  
ENDROOT
BRANCH   4   5
HETATM    5  C   UNL     1     -10.324  11.390  68.340  1.00  0.00    -0.209 A  
HETATM    6  C   UNL     1     -10.803  10.701  69.459  1.00  0.00    -0.303 A  
HETATM    7  C   UNL     1     -10.800   9.298  69.500  1.00  0.00    -0.211 A  
HETATM    8  C   UNL     1      -9.816  10.637  67.275  1.00  0.00    -0.206 A  
HETATM    9  C   UNL     1     -10.322   8.530  68.421  1.00  0.00    -0.241 A  
HETATM   10  C   UNL     1      -9.818   9.236  67.317  1.00  0.00    -0.236 A  
BRANCH   9  11
HETATM   11  C   UNL     1     -10.380   6.991  68.467  1.00  0.00    -0.204 C  
HETATM   12  C   UNL     1     -11.320   6.444  69.565  1.00  0.00    -0.460 C  
HETATM   13  C   UNL     1     -10.878   6.435  67.116  1.00  0.00    -0.467 C  
HETATM   14  C   UNL     1      -8.974   6.415  68.752  1.00  0.00    -0.126 C  
ENDBRANCH   9  11
ENDBRANCH   4   5
BRANCH   3  15
HETATM   15  N   UNL     1      -9.578  15.763  67.206  1.00  0.00    -0.216 NA 
HETATM   16  C   UNL     1     -10.312  18.612  67.664  1.00  0.00    -0.455 C  
HETATM   17  C   UNL     1     -10.599  17.533  68.703  1.00  0.00    -0.288 C  
HETATM   18  C   UNL     1      -9.644  16.338  68.567  1.00  0.00    -0.222 C  
HETATM   19  C   UNL     1      -9.233  16.823  66.246  1.00  0.00    -0.279 C  
HETATM   20  C   UNL     1     -10.193  18.016  66.263  1.00  0.00    -0.381 C  
ENDBRANCH   3  15
TORSDOF 3
ENDMDL
MODEL       39
REMARK 921   NORMALIZED FREE ENERGY PREDICTED BY IDOCK:   -4.87 KCAL/MOL
REMARK 922        TOTAL FREE ENERGY PREDICTED BY IDOCK:   -6.26 KCAL/MOL
REMARK 923 INTER-LIGAND FREE ENERGY PREDICTED BY IDOCK:   -5.50 KCAL/MOL
REMARK 924 INTRA-LIGAND FREE ENERGY PREDICTED BY IDOCK:   -0.75 KCAL/MOL
REMARK 927      BINDING AFFINITY PREDICTED BY RF-SCORE:    0.00 PKD
ROOT
HETATM    1  C   UNL     1      -8.950   8.800  72.071  1.00  0.00    -0.227 C  
HETATM    2  C   UNL     1      -9.882   7.728  71.481  1.00  0.00    -0.200 C  
HETATM    3  C   UNL     1      -9.898   6.521  72.458  1.00  0.00    -0.165 C  
HETATM    4  C   UNL     1     -11.299   8.303  71.238  1.00  0.00    -0.308 C  
ENDROOT
BRANCH   4   5
HETATM    5  C   UNL     1     -11.337   9.513  70.324  1.00  0.00    -0.284 A  
HETATM    6  C   UNL     1     -11.915  10.716  70.741  1.00  0.00    -0.477 A  
HETATM    7  C   UNL     1     -11.913  11.845  69.907  1.00  0.00    -0.398 A  
HETATM    8  C   UNL     1     -10.782   9.461  69.041  1.00  0.00    -0.209 A  
HETATM    9  C   UNL     1     -11.328  11.815  68.627  1.00  0.00    -0.327 A  
HETATM   10  C   UNL     1     -10.778  10.591  68.212  1.00  0.00    -0.270 A  
BRANCH   9  11
HETATM   11  C   UNL     1     -11.289  13.082  67.751  1.00  0.00    -0.333 C  
HETATM   12  C   UNL     1     -11.990  12.906  66.384  1.00  0.00    -0.462 C  
HETATM   13  C   UNL     1     -11.984  14.254  68.477  1.00  0.00    -0.352 C  
HETATM   14  C   UNL     1      -9.825  13.480  67.456  1.00  0.00    -0.227 C  
ENDBRANCH   9  11
ENDBRANCH   4   5
BRANCH   3  15
HETATM   15  N   UNL     1     -10.661   5.326  72.051  1.00  0.00    -0.222 NA 
HETATM   16  C   UNL     1      -9.564   2.997  73.546  1.00  0.00    -0.129 C  
HETATM   17  C   UNL     1     -10.465   4.028  74.217  1.00  0.00    -0.283 C  
HETATM   18  C   UNL     1     -11.375   4.739  73.205  1.00  0.00    -0.322 C  
HETATM   19  C   UNL     1      -9.858   4.282  71.394  1.00  0.00    -0.190 C  
HETATM   20  C   UNL     1      -8.863   3.583  72.323  1.00  0.00    -0.118 C  
ENDBRANCH   3  15
TORSDOF 3
ENDMDL
MODEL       40
REMARK 921   NORMALIZED FREE ENERGY PREDICTED BY IDOCK:   -4.87 KCAL/MOL
REMARK 922        TOTAL FREE ENERGY PREDICTED BY IDOCK:   -6.25 KCAL/MOL
REMARK 923 INTER-LIGAND FREE ENERGY PREDICTED BY IDOCK:   -5.94 KCAL/MOL
REMARK 924 INTRA-LIGAND FREE ENERGY PREDICTED BY IDOCK:   -0.32 KCAL/MOL
REMARK 927      BINDING AFFINITY PREDICTED BY RF-SCORE:    0.00 PKD
ROOT
HETATM    1  C   UNL     1     -10.594  14.226  66.127  1.00  0.00    -0.293 C  
HETATM    2  C   UNL     1      -9.979  15.046  67.274  1.00  0.00    -0.233 C  
HETATM    3  C   UNL     1      -9.915  16.529  66.817  1.00  0.00    -0.276 C  
HETATM    4  C   UNL     1     -10.796  14.870  68.577  1.00  0.00    -0.249 C  
ENDROOT
BRANCH   4   5
HETATM    5  C   UNL     1     -10.927  13.434  69.046  1.00  0.00    -0.265 A  
HETATM    6  C   UNL     1     -10.001  12.459  68.660  1.00  0.00    -0.117 A  
HETATM    7  C   UNL     1     -10.104  11.140  69.126  1.00  0.00    -0.134 A  
HETATM    8  C   UNL     1     -11.974  13.046  69.889  1.00  0.00    -0.381 A  
HETATM    9  C   UNL     1     -11.133  10.746  70.003  1.00  0.00    -0.327 A  
HETATM   10  C   UNL     1     -12.072  11.729  70.358  1.00  0.00    -0.440 A  
BRANCH   9  11
HETATM   11  C   UNL     1     -11.194   9.306  70.546  1.00  0.00    -0.315 C  
HETATM   12  C   UNL     1     -12.540   8.961  71.224  1.00  0.00    -0.309 C  
HETATM   13  C   UNL     1     -10.984   8.293  69.400  1.00  0.00    -0.013 C  
HETATM   14  C   UNL     1     -10.089   9.090  71.606  1.00  0.00    -0.405 C  
ENDBRANCH   9  11
ENDBRANCH   4   5
BRANCH   3  15
HETATM   15  N   UNL     1      -9.273  17.495  67.728  1.00  0.00    -0.250 NA 
HETATM   16  C   UNL     1      -9.960  20.232  66.780  1.00  0.00    -0.587 C  
HETATM   17  C   UNL     1     -10.972  19.362  67.518  1.00  0.00    -0.416 C  
HETATM   18  C   UNL     1     -10.286  18.323  68.417  1.00  0.00    -0.380 C  
HETATM   19  C   UNL     1      -8.281  18.373  67.087  1.00  0.00    -0.245 C  
HETATM   20  C   UNL     1      -8.883  19.385  66.108  1.00  0.00    -0.301 C  
ENDBRANCH   3  15
TORSDOF 3
ENDMDL
MODEL       41
REMARK 921   NORMALIZED FREE ENERGY PREDICTED BY IDOCK:   -4.85 KCAL/MOL
REMARK 922        TOTAL FREE ENERGY PREDICTED BY IDOCK:   -6.23 KCAL/MOL
REMARK 923 INTER-LIGAND FREE ENERGY PREDICTED BY IDOCK:   -5.80 KCAL/MOL
REMARK 924 INTRA-LIGAND FREE ENERGY PREDICTED BY IDOCK:   -0.43 KCAL/MOL
REMARK 927      BINDING AFFINITY PREDICTED BY RF-SCORE:    0.00 PKD
ROOT
HETATM    1  C   UNL     1      -9.820  17.728  68.271  1.00  0.00    -0.340 C  
HETATM    2  C   UNL     1      -8.406  17.661  67.669  1.00  0.00    -0.226 C  
HETATM    3  C   UNL     1      -7.516  18.682  68.429  1.00  0.00    -0.297 C  
HETATM    4  C   UNL     1      -7.842  16.221  67.748  1.00  0.00    -0.155 C  
ENDROOT
BRANCH   4   5
HETATM    5  C   UNL     1      -8.696  15.175  67.059  1.00  0.00    -0.264 A  
HETATM    6  C   UNL     1      -9.415  15.477  65.898  1.00  0.00    -0.377 A  
HETATM    7  C   UNL     1     -10.173  14.496  65.241  1.00  0.00    -0.431 A  
HETATM    8  C   UNL     1      -8.777  13.871  67.559  1.00  0.00    -0.194 A  
HETATM    9  C   UNL     1     -10.236  13.172  65.716  1.00  0.00    -0.294 A  
HETATM   10  C   UNL     1      -9.532  12.891  66.898  1.00  0.00    -0.237 A  
BRANCH   9  11
HETATM   11  C   UNL     1     -11.030  12.099  64.948  1.00  0.00    -0.355 C  
HETATM   12  C   UNL     1     -10.567  11.924  63.483  1.00  0.00    -0.507 C  
HETATM   13  C   UNL     1     -10.885  10.728  65.642  1.00  0.00    -0.065 C  
HETATM   14  C   UNL     1     -12.528  12.476  64.903  1.00  0.00    -0.524 C  
ENDBRANCH   9  11
ENDBRANCH   4   5
BRANCH   3  15
HETATM   15  N   UNL     1      -6.129  18.858  67.959  1.00  0.00    -0.209 NA 
HETATM   16  C   UNL     1      -6.080  21.210  66.134  1.00  0.00    -0.309 C  
HETATM   17  C   UNL     1      -6.179  21.371  67.648  1.00  0.00    -0.345 C  
HETATM   18  C   UNL     1      -5.589  20.165  68.391  1.00  0.00    -0.231 C  
HETATM   19  C   UNL     1      -5.953  18.716  66.505  1.00  0.00    -0.156 C  
HETATM   20  C   UNL     1      -6.591  19.843  65.687  1.00  0.00    -0.282 C  
ENDBRANCH   3  15
TORSDOF 3
ENDMDL
MODEL       42
REMARK 921   NORMALIZED FREE ENERGY PREDICTED BY IDOCK:   -4.84 KCAL/MOL
REMARK 922        TOTAL FREE ENERGY PREDICTED BY IDOCK:   -6.22 KCAL/MOL
REMARK 923 INTER-LIGAND FREE ENERGY PREDICTED BY IDOCK:   -5.50 KCAL/MOL
REMARK 924 INTRA-LIGAND FREE ENERGY PREDICTED BY IDOCK:   -0.73 KCAL/MOL
REMARK 927      BINDING AFFINITY PREDICTED BY RF-SCORE:    0.00 PKD
ROOT
HETATM    1  C   UNL     1     -11.692  14.479  68.371  1.00  0.00    -0.367 C  
HETATM    2  C   UNL     1     -10.694  15.031  67.340  1.00  0.00    -0.289 C  
HETATM    3  C   UNL     1     -10.609  16.570  67.536  1.00  0.00    -0.313 C  
HETATM    4  C   UNL     1      -9.313  14.346  67.487  1.00  0.00    -0.198 C  
ENDROOT
BRANCH   4   5
HETATM    5  C   UNL     1      -9.345  12.836  67.347  1.00  0.00    -0.193 A  
HETATM    6  C   UNL     1      -9.824  12.227  66.183  1.00  0.00    -0.257 A  
HETATM    7  C   UNL     1      -9.816  10.831  66.042  1.00  0.00    -0.285 A  
HETATM    8  C   UNL     1      -8.882  12.010  68.377  1.00  0.00    -0.149 A  
HETATM    9  C   UNL     1      -9.322   9.990  67.058  1.00  0.00    -0.180 A  
HETATM   10  C   UNL     1      -8.871  10.615  68.232  1.00  0.00    -0.139 A  
BRANCH   9  11
HETATM   11  C   UNL     1      -9.271   8.464  66.858  1.00  0.00    -0.196 C  
HETATM   12  C   UNL     1     -10.652   7.781  66.988  1.00  0.00    -0.396 C  
HETATM   13  C   UNL     1      -8.722   8.127  65.456  1.00  0.00    -0.152 C  
HETATM   14  C   UNL     1      -8.350   7.819  67.919  1.00  0.00    -0.123 C  
ENDBRANCH   9  11
ENDBRANCH   4   5
BRANCH   3  15
HETATM   15  N   UNL     1      -9.773  17.332  66.590  1.00  0.00    -0.275 NA 
HETATM   16  C   UNL     1      -9.682  20.155  67.530  1.00  0.00    -0.557 C  
HETATM   17  C   UNL     1      -8.881  19.056  68.218  1.00  0.00    -0.370 C  
HETATM   18  C   UNL     1      -8.582  17.886  67.269  1.00  0.00    -0.237 C  
HETATM   19  C   UNL     1     -10.478  18.414  65.885  1.00  0.00    -0.321 C  
HETATM   20  C   UNL     1     -10.886  19.583  66.785  1.00  0.00    -0.500 C  
ENDBRANCH   3  15
TORSDOF 3
ENDMDL
MODEL       43
REMARK 921   NORMALIZED FREE ENERGY PREDICTED BY IDOCK:   -4.81 KCAL/MOL
REMARK 922        TOTAL FREE ENERGY PREDICTED BY IDOCK:   -6.19 KCAL/MOL
REMARK 923 INTER-LIGAND FREE ENERGY PREDICTED BY IDOCK:   -6.55 KCAL/MOL
REMARK 924 INTRA-LIGAND FREE ENERGY PREDICTED BY IDOCK:    0.36 KCAL/MOL
REMARK 927      BINDING AFFINITY PREDICTED BY RF-SCORE:    0.00 PKD
ROOT
HETATM    1  C   UNL     1     -11.751  10.634  70.530  1.00  0.00    -0.451 C  
HETATM    2  C   UNL     1     -10.494   9.757  70.411  1.00  0.00    -0.358 C  
HETATM    3  C   UNL     1     -10.420   8.857  71.675  1.00  0.00    -0.338 C  
HETATM    4  C   UNL     1     -10.521   8.928  69.104  1.00  0.00    -0.236 C  
ENDROOT
BRANCH   4   5
HETATM    5  C   UNL     1     -10.637   9.756  67.839  1.00  0.00    -0.310 A  
HETATM    6  C   UNL     1     -11.346  10.961  67.825  1.00  0.00    -0.366 A  
HETATM    7  C   UNL     1     -11.418  11.744  66.663  1.00  0.00    -0.337 A  
HETATM    8  C   UNL     1     -10.025   9.341  66.651  1.00  0.00    -0.333 A  
HETATM    9  C   UNL     1     -10.778  11.354  65.470  1.00  0.00    -0.313 A  
HETATM   10  C   UNL     1     -10.095  10.128  65.492  1.00  0.00    -0.338 A  
BRANCH   9  11
HETATM   11  C   UNL     1     -10.825  12.257  64.223  1.00  0.00    -0.392 C  
HETATM   12  C   UNL     1     -12.212  12.289  63.540  1.00  0.00    -0.669 C  
HETATM   13  C   UNL     1     -10.465  13.709  64.601  1.00  0.00    -0.442 C  
HETATM   14  C   UNL     1      -9.815  11.755  63.165  1.00  0.00    -0.363 C  
ENDBRANCH   9  11
ENDBRANCH   4   5
BRANCH   3  15
HETATM   15  N   UNL     1      -9.238   7.988  71.824  1.00  0.00    -0.149 NA 
HETATM   16  C   UNL     1     -10.015   5.684  73.542  1.00  0.00    -0.185 C  
HETATM   17  C   UNL     1     -10.453   5.781  72.084  1.00  0.00    -0.258 C  
HETATM   18  C   UNL     1      -9.495   6.647  71.255  1.00  0.00    -0.162 C  
HETATM   19  C   UNL     1      -8.754   7.845  73.207  1.00  0.00    -0.236 C  
HETATM   20  C   UNL     1      -9.701   7.061  74.120  1.00  0.00    -0.308 C  
ENDBRANCH   3  15
TORSDOF 3
ENDMDL
MODEL       44
REMARK 921   NORMALIZED FREE ENERGY PREDICTED BY IDOCK:   -4.81 KCAL/MOL
REMARK 922        TOTAL FREE ENERGY PREDICTED BY IDOCK:   -6.18 KCAL/MOL
REMARK 923 INTER-LIGAND FREE ENERGY PREDICTED BY IDOCK:   -5.43 KCAL/MOL
REMARK 924 INTRA-LIGAND FREE ENERGY PREDICTED BY IDOCK:   -0.75 KCAL/MOL
REMARK 927      BINDING AFFINITY PREDICTED BY RF-SCORE:    0.00 PKD
ROOT
HETATM    1  C   UNL     1     -10.717   9.235  67.819  1.00  0.00    -0.270 C  
HETATM    2  C   UNL     1     -10.555  10.442  68.759  1.00  0.00    -0.232 C  
HETATM    3  C   UNL     1     -11.011  11.711  67.987  1.00  0.00    -0.224 C  
HETATM    4  C   UNL     1     -11.357  10.233  70.067  1.00  0.00    -0.370 C  
ENDROOT
BRANCH   4   5
HETATM    5  C   UNL     1     -10.982   8.983  70.839  1.00  0.00    -0.332 A  
HETATM    6  C   UNL     1     -11.872   7.910  70.956  1.00  0.00    -0.285 A  
HETATM    7  C   UNL     1     -11.507   6.740  71.638  1.00  0.00    -0.322 A  
HETATM    8  C   UNL     1      -9.728   8.864  71.447  1.00  0.00    -0.370 A  
HETATM    9  C   UNL     1     -10.236   6.595  72.225  1.00  0.00    -0.206 A  
HETATM   10  C   UNL     1      -9.364   7.691  72.124  1.00  0.00    -0.188 A  
BRANCH   9  11
HETATM   11  C   UNL     1      -9.838   5.279  72.921  1.00  0.00    -0.179 C  
HETATM   12  C   UNL     1     -10.041   4.029  72.034  1.00  0.00    -0.227 C  
HETATM   13  C   UNL     1      -8.349   5.319  73.326  1.00  0.00    -0.111 C  
HETATM   14  C   UNL     1     -10.692   5.070  74.192  1.00  0.00    -0.297 C  
ENDBRANCH   9  11
ENDBRANCH   4   5
BRANCH   3  15
HETATM   15  N   UNL     1     -10.858  13.012  68.666  1.00  0.00    -0.254 NA 
HETATM   16  C   UNL     1     -10.697  15.116  66.566  1.00  0.00    -0.310 C  
HETATM   17  C   UNL     1     -12.018  14.451  66.934  1.00  0.00    -0.425 C  
HETATM   18  C   UNL     1     -12.003  13.899  68.366  1.00  0.00    -0.356 C  
HETATM   19  C   UNL     1      -9.604  13.717  68.360  1.00  0.00    -0.203 C  
HETATM   20  C   UNL     1      -9.509  14.225  66.919  1.00  0.00    -0.272 C  
ENDBRANCH   3  15
TORSDOF 3
ENDMDL
MODEL       45
REMARK 921   NORMALIZED FREE ENERGY PREDICTED BY IDOCK:   -4.77 KCAL/MOL
REMARK 922        TOTAL FREE ENERGY PREDICTED BY IDOCK:   -6.14 KCAL/MOL
REMARK 923 INTER-LIGAND FREE ENERGY PREDICTED BY IDOCK:   -5.97 KCAL/MOL
REMARK 924 INTRA-LIGAND FREE ENERGY PREDICTED BY IDOCK:   -0.16 KCAL/MOL
REMARK 927      BINDING AFFINITY PREDICTED BY RF-SCORE:    0.00 PKD
ROOT
HETATM    1  C   UNL     1      -8.297   9.781  70.039  1.00  0.00    -0.211 C  
HETATM    2  C   UNL     1      -9.100   8.553  69.576  1.00  0.00    -0.150 C  
HETATM    3  C   UNL     1      -8.952   7.450  70.660  1.00  0.00    -0.155 C  
HETATM    4  C   UNL     1     -10.581   8.928  69.320  1.00  0.00    -0.219 C  
ENDROOT
BRANCH   4   5
HETATM    5  C   UNL     1     -10.781  10.032  68.301  1.00  0.00    -0.280 A  
HETATM    6  C   UNL     1     -11.453  11.212  68.635  1.00  0.00    -0.363 A  
HETATM    7  C   UNL     1     -11.603  12.248  67.700  1.00  0.00    -0.421 A  
HETATM    8  C   UNL     1     -10.287   9.905  66.998  1.00  0.00    -0.303 A  
HETATM    9  C   UNL     1     -11.080  12.146  66.396  1.00  0.00    -0.358 A  
HETATM   10  C   UNL     1     -10.434  10.943  66.067  1.00  0.00    -0.287 A  
BRANCH   9  11
HETATM   11  C   UNL     1     -11.208  13.318  65.405  1.00  0.00    -0.306 C  
HETATM   12  C   UNL     1     -11.004  12.900  63.931  1.00  0.00    -0.422 C  
HETATM   13  C   UNL     1     -12.609  13.957  65.512  1.00  0.00    -0.560 C  
HETATM   14  C   UNL     1     -10.146  14.397  65.717  1.00  0.00    -0.361 C  
ENDBRANCH   9  11
ENDBRANCH   4   5
BRANCH   3  15
HETATM   15  N   UNL     1      -9.569   6.139  70.385  1.00  0.00    -0.163 NA 
HETATM   16  C   UNL     1     -11.284   5.437  72.716  1.00  0.00    -0.358 C  
HETATM   17  C   UNL     1     -11.714   6.479  71.689  1.00  0.00    -0.374 C  
HETATM   18  C   UNL     1     -11.042   6.253  70.327  1.00  0.00    -0.364 C  
HETATM   19  C   UNL     1      -9.200   5.079  71.336  1.00  0.00    -0.146 C  
HETATM   20  C   UNL     1      -9.766   5.280  72.745  1.00  0.00    -0.171 C  
ENDBRANCH   3  15
TORSDOF 3
ENDMDL
MODEL       46
REMARK 921   NORMALIZED FREE ENERGY PREDICTED BY IDOCK:   -4.73 KCAL/MOL
REMARK 922        TOTAL FREE ENERGY PREDICTED BY IDOCK:   -6.09 KCAL/MOL
REMARK 923 INTER-LIGAND FREE ENERGY PREDICTED BY IDOCK:   -5.39 KCAL/MOL
REMARK 924 INTRA-LIGAND FREE ENERGY PREDICTED BY IDOCK:   -0.70 KCAL/MOL
REMARK 927      BINDING AFFINITY PREDICTED BY RF-SCORE:    0.00 PKD
ROOT
HETATM    1  C   UNL     1     -12.021  12.259  67.524  1.00  0.00    -0.210 C  
HETATM    2  C   UNL     1     -10.649  11.568  67.602  1.00  0.00    -0.235 C  
HETATM    3  C   UNL     1     -10.877  10.038  67.463  1.00  0.00    -0.265 C  
HETATM    4  C   UNL     1      -9.692  12.117  66.515  1.00  0.00    -0.234 C  
ENDROOT
BRANCH   4   5
HETATM    5  C   UNL     1      -9.468  13.616  66.577  1.00  0.00    -0.270 A  
HETATM    6  C   UNL     1     -10.059  14.475  65.645  1.00  0.00    -0.384 A  
HETATM    7  C   UNL     1      -9.881  15.864  65.728  1.00  0.00    -0.380 A  
HETATM    8  C   UNL     1      -8.671  14.182  67.578  1.00  0.00    -0.208 A  
HETATM    9  C   UNL     1      -9.108  16.448  66.751  1.00  0.00    -0.259 A  
HETATM   10  C   UNL     1      -8.498  15.570  67.661  1.00  0.00    -0.177 A  
BRANCH   9  11
HETATM   11  C   UNL     1      -8.972  17.979  66.855  1.00  0.00    -0.268 C  
HETATM   12  C   UNL     1      -8.721  18.477  68.298  1.00  0.00    -0.333 C  
HETATM   13  C   UNL     1      -7.794  18.470  65.988  1.00  0.00    -0.182 C  
HETATM   14  C   UNL     1     -10.268  18.663  66.364  1.00  0.00    -0.461 C  
ENDBRANCH   9  11
ENDBRANCH   4   5
BRANCH   3  15
HETATM   15  N   UNL     1      -9.701   9.159  67.600  1.00  0.00    -0.153 NA 
HETATM   16  C   UNL     1     -10.673   6.460  68.399  1.00  0.00    -0.349 C  
HETATM   17  C   UNL     1     -10.819   6.974  66.971  1.00  0.00    -0.413 C  
HETATM   18  C   UNL     1      -9.765   8.040  66.636  1.00  0.00    -0.243 C  
HETATM   19  C   UNL     1      -9.493   8.622  68.954  1.00  0.00    -0.146 C  
HETATM   20  C   UNL     1     -10.556   7.612  69.395  1.00  0.00    -0.217 C  
ENDBRANCH   3  15
TORSDOF 3
ENDMDL
MODEL       47
REMARK 921   NORMALIZED FREE ENERGY PREDICTED BY IDOCK:   -4.64 KCAL/MOL
REMARK 922        TOTAL FREE ENERGY PREDICTED BY IDOCK:   -5.98 KCAL/MOL
REMARK 923 INTER-LIGAND FREE ENERGY PREDICTED BY IDOCK:   -5.20 KCAL/MOL
REMARK 924 INTRA-LIGAND FREE ENERGY PREDICTED BY IDOCK:   -0.78 KCAL/MOL
REMARK 927      BINDING AFFINITY PREDICTED BY RF-SCORE:    0.00 PKD
ROOT
HETATM    1  C   UNL     1      -8.614   9.618  70.046  1.00  0.00    -0.237 C  
HETATM    2  C   UNL     1      -9.147   8.396  69.279  1.00  0.00    -0.150 C  
HETATM    3  C   UNL     1      -9.058   7.165  70.223  1.00  0.00    -0.156 C  
HETATM    4  C   UNL     1     -10.591   8.646  68.779  1.00  0.00    -0.169 C  
ENDROOT
BRANCH   4   5
HETATM    5  C   UNL     1     -10.744   9.863  67.888  1.00  0.00    -0.316 A  
HETATM    6  C   UNL     1     -10.133   9.921  66.631  1.00  0.00    -0.297 A  
HETATM    7  C   UNL     1     -10.308  11.031  65.792  1.00  0.00    -0.316 A  
HETATM    8  C   UNL     1     -11.514  10.958  68.293  1.00  0.00    -0.376 A  
HETATM    9  C   UNL     1     -11.107  12.126  66.176  1.00  0.00    -0.354 A  
HETATM   10  C   UNL     1     -11.691  12.065  67.452  1.00  0.00    -0.352 A  
BRANCH   9  11
HETATM   11  C   UNL     1     -11.331  13.309  65.216  1.00  0.00    -0.317 C  
HETATM   12  C   UNL     1     -10.187  14.350  65.248  1.00  0.00    -0.416 C  
HETATM   13  C   UNL     1     -11.451  12.803  63.763  1.00  0.00    -0.533 C  
HETATM   14  C   UNL     1     -12.630  14.059  65.589  1.00  0.00    -0.542 C  
ENDBRANCH   9  11
ENDBRANCH   4   5
BRANCH   3  15
HETATM   15  N   UNL     1      -9.434   5.852  69.667  1.00  0.00    -0.141 NA 
HETATM   16  C   UNL     1      -7.537   3.831  70.752  1.00  0.00    -0.041 C  
HETATM   17  C   UNL     1      -8.659   4.415  71.604  1.00  0.00    -0.126 C  
HETATM   18  C   UNL     1      -9.827   4.918  70.744  1.00  0.00    -0.215 C  
HETATM   19  C   UNL     1      -8.399   5.223  68.832  1.00  0.00    -0.092 C  
HETATM   20  C   UNL     1      -7.160   4.769  69.609  1.00  0.00    -0.054 C  
ENDBRANCH   3  15
TORSDOF 3
ENDMDL
MODEL       48
REMARK 921   NORMALIZED FREE ENERGY PREDICTED BY IDOCK:   -4.61 KCAL/MOL
REMARK 922        TOTAL FREE ENERGY PREDICTED BY IDOCK:   -5.95 KCAL/MOL
REMARK 923 INTER-LIGAND FREE ENERGY PREDICTED BY IDOCK:   -5.16 KCAL/MOL
REMARK 924 INTRA-LIGAND FREE ENERGY PREDICTED BY IDOCK:   -0.80 KCAL/MOL
REMARK 927      BINDING AFFINITY PREDICTED BY RF-SCORE:    0.00 PKD
ROOT
HETATM    1  C   UNL     1      -8.585   9.388  70.259  1.00  0.00    -0.249 C  
HETATM    2  C   UNL     1     -10.091   9.517  69.973  1.00  0.00    -0.279 C  
HETATM    3  C   UNL     1     -10.297  10.748  69.048  1.00  0.00    -0.215 C  
HETATM    4  C   UNL     1     -10.647   8.214  69.346  1.00  0.00    -0.206 C  
ENDROOT
BRANCH   4   5
HETATM    5  C   UNL     1     -10.433   6.972  70.189  1.00  0.00    -0.232 A  
HETATM    6  C   UNL     1     -10.830   6.930  71.529  1.00  0.00    -0.257 A  
HETATM    7  C   UNL     1     -10.667   5.766  72.295  1.00  0.00    -0.282 A  
HETATM    8  C   UNL     1      -9.844   5.826  69.643  1.00  0.00    -0.230 A  
HETATM    9  C   UNL     1     -10.105   4.596  71.748  1.00  0.00    -0.261 A  
HETATM   10  C   UNL     1      -9.686   4.663  70.409  1.00  0.00    -0.292 A  
BRANCH   9  11
HETATM   11  C   UNL     1      -9.987   3.313  72.592  1.00  0.00    -0.221 C  
HETATM   12  C   UNL     1      -9.931   2.022  71.742  1.00  0.00    -0.215 C  
HETATM   13  C   UNL     1      -8.705   3.355  73.450  1.00  0.00    -0.078 C  
HETATM   14  C   UNL     1     -11.208   3.179  73.531  1.00  0.00    -0.286 C  
ENDBRANCH   9  11
ENDBRANCH   4   5
BRANCH   3  15
HETATM   15  N   UNL     1     -11.683  11.122  68.712  1.00  0.00    -0.345 NA 
HETATM   16  C   UNL     1     -12.125  13.910  69.658  1.00  0.00    -0.404 C  
HETATM   17  C   UNL     1     -11.311  13.609  68.404  1.00  0.00    -0.329 C  
HETATM   18  C   UNL     1     -11.707  12.265  67.775  1.00  0.00    -0.337 C  
HETATM   19  C   UNL     1     -12.533  11.429  69.874  1.00  0.00    -0.125 C  
HETATM   20  C   UNL     1     -12.145  12.715  70.608  1.00  0.00    -0.315 C  
ENDBRANCH   3  15
TORSDOF 3
ENDMDL
MODEL       49
REMARK 921   NORMALIZED FREE ENERGY PREDICTED BY IDOCK:   -4.60 KCAL/MOL
REMARK 922        TOTAL FREE ENERGY PREDICTED BY IDOCK:   -5.93 KCAL/MOL
REMARK 923 INTER-LIGAND FREE ENERGY PREDICTED BY IDOCK:   -5.51 KCAL/MOL
REMARK 924 INTRA-LIGAND FREE ENERGY PREDICTED BY IDOCK:   -0.43 KCAL/MOL
REMARK 927      BINDING AFFINITY PREDICTED BY RF-SCORE:    0.00 PKD
ROOT
HETATM    1  C   UNL     1      -7.562   8.290  66.362  1.00  0.00    -0.091 C  
HETATM    2  C   UNL     1      -8.847   7.456  66.499  1.00  0.00    -0.165 C  
HETATM    3  C   UNL     1      -8.470   6.107  67.171  1.00  0.00    -0.104 C  
HETATM    4  C   UNL     1      -9.923   8.229  67.301  1.00  0.00    -0.289 C  
ENDROOT
BRANCH   4   5
HETATM    5  C   UNL     1     -10.297   9.575  66.712  1.00  0.00    -0.298 A  
HETATM    6  C   UNL     1     -10.053   9.870  65.367  1.00  0.00    -0.270 A  
HETATM    7  C   UNL     1     -10.436  11.102  64.816  1.00  0.00    -0.388 A  
HETATM    8  C   UNL     1     -10.911  10.556  67.498  1.00  0.00    -0.365 A  
HETATM    9  C   UNL     1     -11.085  12.085  65.588  1.00  0.00    -0.361 A  
HETATM   10  C   UNL     1     -11.297  11.785  66.944  1.00  0.00    -0.386 A  
BRANCH   9  11
HETATM   11  C   UNL     1     -11.546  13.408  64.948  1.00  0.00    -0.354 C  
HETATM   12  C   UNL     1     -10.421  14.464  64.844  1.00  0.00    -0.448 C  
HETATM   13  C   UNL     1     -12.073  13.155  63.520  1.00  0.00    -0.585 C  
HETATM   14  C   UNL     1     -12.678  14.040  65.791  1.00  0.00    -0.487 C  
ENDBRANCH   9  11
ENDBRANCH   4   5
BRANCH   3  15
HETATM   15  N   UNL     1      -9.537   5.101  67.323  1.00  0.00    -0.134 NA 
HETATM   16  C   UNL     1      -8.786   2.728  65.689  1.00  0.00    -0.133 C  
HETATM   17  C   UNL     1      -8.112   3.028  67.023  1.00  0.00    -0.079 C  
HETATM   18  C   UNL     1      -9.011   3.866  67.943  1.00  0.00    -0.125 C  
HETATM   19  C   UNL     1     -10.236   4.758  66.074  1.00  0.00    -0.278 C  
HETATM   20  C   UNL     1      -9.375   3.992  65.067  1.00  0.00    -0.163 C  
ENDBRANCH   3  15
TORSDOF 3
ENDMDL
MODEL       50
REMARK 921   NORMALIZED FREE ENERGY PREDICTED BY IDOCK:   -4.58 KCAL/MOL
REMARK 922        TOTAL FREE ENERGY PREDICTED BY IDOCK:   -5.91 KCAL/MOL
REMARK 923 INTER-LIGAND FREE ENERGY PREDICTED BY IDOCK:   -5.50 KCAL/MOL
REMARK 924 INTRA-LIGAND FREE ENERGY PREDICTED BY IDOCK:   -0.41 KCAL/MOL
REMARK 927      BINDING AFFINITY PREDICTED BY RF-SCORE:    0.00 PKD
ROOT
HETATM    1  C   UNL     1      -9.958  17.719  68.020  1.00  0.00    -0.333 C  
HETATM    2  C   UNL     1      -8.468  17.587  67.658  1.00  0.00    -0.215 C  
HETATM    3  C   UNL     1      -7.672  18.580  68.548  1.00  0.00    -0.308 C  
HETATM    4  C   UNL     1      -7.986  16.126  67.835  1.00  0.00    -0.150 C  
ENDROOT
BRANCH   4   5
HETATM    5  C   UNL     1      -8.759  15.107  67.020  1.00  0.00    -0.264 A  
HETATM    6  C   UNL     1      -8.842  13.771  67.423  1.00  0.00    -0.211 A  
HETATM    7  C   UNL     1      -9.590  12.839  66.688  1.00  0.00    -0.255 A  
HETATM    8  C   UNL     1      -9.422  15.480  65.846  1.00  0.00    -0.377 A  
HETATM    9  C   UNL     1     -10.290  13.210  65.523  1.00  0.00    -0.299 A  
HETATM   10  C   UNL     1     -10.173  14.549  65.115  1.00  0.00    -0.420 A  
BRANCH   9  11
HETATM   11  C   UNL     1     -11.150  12.183  64.763  1.00  0.00    -0.364 C  
HETATM   12  C   UNL     1     -12.654  12.540  64.738  1.00  0.00    -0.493 C  
HETATM   13  C   UNL     1     -10.679  12.072  63.298  1.00  0.00    -0.400 C  
HETATM   14  C   UNL     1     -11.030  10.792  65.429  1.00  0.00     0.040 C  
ENDBRANCH   9  11
ENDBRANCH   4   5
BRANCH   3  15
HETATM   15  N   UNL     1      -6.221  18.693  68.311  1.00  0.00    -0.205 NA 
HETATM   16  C   UNL     1      -5.129  20.638  70.283  1.00  0.00    -0.338 C  
HETATM   17  C   UNL     1      -5.516  19.220  70.687  1.00  0.00    -0.250 C  
HETATM   18  C   UNL     1      -5.458  18.250  69.498  1.00  0.00    -0.212 C  
HETATM   19  C   UNL     1      -5.769  20.037  67.917  1.00  0.00    -0.202 C  
HETATM   20  C   UNL     1      -5.878  21.083  69.029  1.00  0.00    -0.242 C  
ENDBRANCH   3  15
TORSDOF 3
ENDMDL
MODEL       51
REMARK 921   NORMALIZED FREE ENERGY PREDICTED BY IDOCK:   -4.52 KCAL/MOL
REMARK 922        TOTAL FREE ENERGY PREDICTED BY IDOCK:   -5.84 KCAL/MOL
REMARK 923 INTER-LIGAND FREE ENERGY PREDICTED BY IDOCK:   -5.34 KCAL/MOL
REMARK 924 INTRA-LIGAND FREE ENERGY PREDICTED BY IDOCK:   -0.50 KCAL/MOL
REMARK 927      BINDING AFFINITY PREDICTED BY RF-SCORE:    0.00 PKD
ROOT
HETATM    1  C   UNL     1      -8.393  12.460  67.359  1.00  0.00    -0.180 C  
HETATM    2  C   UNL     1      -9.851  12.808  67.703  1.00  0.00    -0.214 C  
HETATM    3  C   UNL     1     -10.077  14.306  67.356  1.00  0.00    -0.247 C  
HETATM    4  C   UNL     1     -10.833  11.878  66.948  1.00  0.00    -0.305 C  
ENDROOT
BRANCH   4   5
HETATM    5  C   UNL     1     -10.628  10.400  67.217  1.00  0.00    -0.322 A  
HETATM    6  C   UNL     1     -10.165   9.540  66.216  1.00  0.00    -0.290 A  
HETATM    7  C   UNL     1      -9.939   8.181  66.478  1.00  0.00    -0.302 A  
HETATM    8  C   UNL     1     -10.885   9.857  68.481  1.00  0.00    -0.257 A  
HETATM    9  C   UNL     1     -10.162   7.629  67.755  1.00  0.00    -0.259 A  
HETATM   10  C   UNL     1     -10.654   8.499  68.742  1.00  0.00    -0.162 A  
BRANCH   9  11
HETATM   11  C   UNL     1      -9.854   6.146  68.035  1.00  0.00    -0.134 C  
HETATM   12  C   UNL     1      -8.345   5.852  68.196  1.00  0.00    -0.115 C  
HETATM   13  C   UNL     1     -10.553   5.692  69.334  1.00  0.00    -0.374 C  
HETATM   14  C   UNL     1     -10.360   5.269  66.866  1.00  0.00    -0.303 C  
ENDBRANCH   9  11
ENDBRANCH   4   5
BRANCH   3  15
HETATM   15  N   UNL     1     -11.390  14.891  67.689  1.00  0.00    -0.328 NA 
HETATM   16  C   UNL     1     -11.243  15.919  70.479  1.00  0.00    -0.395 C  
HETATM   17  C   UNL     1     -10.585  16.656  69.318  1.00  0.00    -0.343 C  
HETATM   18  C   UNL     1     -11.264  16.335  67.979  1.00  0.00    -0.260 C  
HETATM   19  C   UNL     1     -12.088  14.231  68.804  1.00  0.00    -0.265 C  
HETATM   20  C   UNL     1     -11.421  14.436  70.167  1.00  0.00    -0.280 C  
ENDBRANCH   3  15
TORSDOF 3
ENDMDL
MODEL       52
REMARK 921   NORMALIZED FREE ENERGY PREDICTED BY IDOCK:   -4.51 KCAL/MOL
REMARK 922        TOTAL FREE ENERGY PREDICTED BY IDOCK:   -5.83 KCAL/MOL
REMARK 923 INTER-LIGAND FREE ENERGY PREDICTED BY IDOCK:   -5.34 KCAL/MOL
REMARK 924 INTRA-LIGAND FREE ENERGY PREDICTED BY IDOCK:   -0.50 KCAL/MOL
REMARK 927      BINDING AFFINITY PREDICTED BY RF-SCORE:    0.00 PKD
ROOT
HETATM    1  C   UNL     1      -8.198  11.983  68.090  1.00  0.00    -0.163 C  
HETATM    2  C   UNL     1      -9.263  11.379  67.159  1.00  0.00    -0.170 C  
HETATM    3  C   UNL     1      -8.570  10.307  66.274  1.00  0.00    -0.137 C  
HETATM    4  C   UNL     1     -10.440  10.791  67.976  1.00  0.00    -0.225 C  
ENDROOT
BRANCH   4   5
HETATM    5  C   UNL     1     -11.127  11.785  68.891  1.00  0.00    -0.297 A  
HETATM    6  C   UNL     1     -11.718  11.377  70.091  1.00  0.00    -0.414 A  
HETATM    7  C   UNL     1     -12.318  12.305  70.954  1.00  0.00    -0.363 A  
HETATM    8  C   UNL     1     -11.177  13.145  68.565  1.00  0.00    -0.307 A  
HETATM    9  C   UNL     1     -12.346  13.681  70.654  1.00  0.00    -0.440 A  
HETATM   10  C   UNL     1     -11.774  14.072  69.432  1.00  0.00    -0.365 A  
BRANCH   9  11
HETATM   11  C   UNL     1     -12.961  14.689  71.642  1.00  0.00    -0.408 C  
HETATM   12  C   UNL     1     -13.048  14.154  73.091  1.00  0.00    -0.300 C  
HETATM   13  C   UNL     1     -12.120  15.982  71.679  1.00  0.00    -0.537 C  
HETATM   14  C   UNL     1     -14.402  15.047  71.210  1.00  0.00    -0.503 C  
ENDBRANCH   9  11
ENDBRANCH   4   5
BRANCH   3  15
HETATM   15  N   UNL     1      -9.384   9.653  65.233  1.00  0.00    -0.244 NA 
HETATM   16  C   UNL     1      -7.521   8.407  63.274  1.00  0.00    -0.111 C  
HETATM   17  C   UNL     1      -7.772   7.789  64.645  1.00  0.00    -0.121 C  
HETATM   18  C   UNL     1      -9.140   8.194  65.213  1.00  0.00     0.195 C  
HETATM   19  C   UNL     1      -9.196  10.196  63.879  1.00  0.00    -0.280 C  
HETATM   20  C   UNL     1      -7.819   9.904  63.275  1.00  0.00    -0.146 C  
ENDBRANCH   3  15
TORSDOF 3
ENDMDL
MODEL       53
REMARK 921   NORMALIZED FREE ENERGY PREDICTED BY IDOCK:   -4.48 KCAL/MOL
REMARK 922        TOTAL FREE ENERGY PREDICTED BY IDOCK:   -5.79 KCAL/MOL
REMARK 923 INTER-LIGAND FREE ENERGY PREDICTED BY IDOCK:   -5.35 KCAL/MOL
REMARK 924 INTRA-LIGAND FREE ENERGY PREDICTED BY IDOCK:   -0.44 KCAL/MOL
REMARK 927      BINDING AFFINITY PREDICTED BY RF-SCORE:    0.00 PKD
ROOT
HETATM    1  C   UNL     1      -8.592   9.573  69.951  1.00  0.00    -0.217 C  
HETATM    2  C   UNL     1      -9.696   8.896  69.123  1.00  0.00    -0.168 C  
HETATM    3  C   UNL     1      -9.317   7.399  68.956  1.00  0.00    -0.145 C  
HETATM    4  C   UNL     1     -11.079   9.077  69.796  1.00  0.00    -0.117 C  
ENDROOT
BRANCH   4   5
HETATM    5  C   UNL     1     -11.482  10.521  70.022  1.00  0.00    -0.393 A  
HETATM    6  C   UNL     1     -12.347  10.877  71.061  1.00  0.00    -0.498 A  
HETATM    7  C   UNL     1     -12.687  12.219  71.293  1.00  0.00    -0.351 A  
HETATM    8  C   UNL     1     -10.986  11.542  69.204  1.00  0.00    -0.276 A  
HETATM    9  C   UNL     1     -12.168  13.258  70.497  1.00  0.00    -0.416 A  
HETATM   10  C   UNL     1     -11.323  12.883  69.439  1.00  0.00    -0.265 A  
BRANCH   9  11
HETATM   11  C   UNL     1     -12.510  14.728  70.803  1.00  0.00    -0.402 C  
HETATM   12  C   UNL     1     -12.189  15.690  69.636  1.00  0.00    -0.264 C  
HETATM   13  C   UNL     1     -14.014  14.872  71.117  1.00  0.00    -0.403 C  
HETATM   14  C   UNL     1     -11.700  15.219  72.025  1.00  0.00    -0.529 C  
ENDBRANCH   9  11
ENDBRANCH   4   5
BRANCH   3  15
HETATM   15  N   UNL     1     -10.193   6.564  68.113  1.00  0.00    -0.154 NA 
HETATM   16  C   UNL     1      -8.874   3.917  67.777  1.00  0.00    -0.135 C  
HETATM   17  C   UNL     1      -9.565   4.308  69.078  1.00  0.00    -0.240 C  
HETATM   18  C   UNL     1     -10.651   5.368  68.853  1.00  0.00    -0.127 C  
HETATM   19  C   UNL     1      -9.594   6.145  66.836  1.00  0.00    -0.142 C  
HETATM   20  C   UNL     1      -8.442   5.148  66.985  1.00  0.00    -0.106 C  
ENDBRANCH   3  15
TORSDOF 3
ENDMDL
MODEL       54
REMARK 921   NORMALIZED FREE ENERGY PREDICTED BY IDOCK:   -4.48 KCAL/MOL
REMARK 922        TOTAL FREE ENERGY PREDICTED BY IDOCK:   -5.79 KCAL/MOL
REMARK 923 INTER-LIGAND FREE ENERGY PREDICTED BY IDOCK:   -5.12 KCAL/MOL
REMARK 924 INTRA-LIGAND FREE ENERGY PREDICTED BY IDOCK:   -0.67 KCAL/MOL
REMARK 927      BINDING AFFINITY PREDICTED BY RF-SCORE:    0.00 PKD
ROOT
HETATM    1  C   UNL     1      -8.273   8.981  69.200  1.00  0.00    -0.121 C  
HETATM    2  C   UNL     1      -9.519   8.103  68.992  1.00  0.00    -0.155 C  
HETATM    3  C   UNL     1      -9.358   6.832  69.870  1.00  0.00    -0.157 C  
HETATM    4  C   UNL     1     -10.810   8.888  69.330  1.00  0.00    -0.113 C  
ENDROOT
BRANCH   4   5
HETATM    5  C   UNL     1     -10.995  10.163  68.530  1.00  0.00    -0.278 A  
HETATM    6  C   UNL     1     -11.522  11.317  69.120  1.00  0.00    -0.364 A  
HETATM    7  C   UNL     1     -11.656  12.506  68.388  1.00  0.00    -0.368 A  
HETATM    8  C   UNL     1     -10.632  10.224  67.181  1.00  0.00    -0.320 A  
HETATM    9  C   UNL     1     -11.263  12.589  67.038  1.00  0.00    -0.353 A  
HETATM   10  C   UNL     1     -10.762  11.415  66.452  1.00  0.00    -0.325 A  
BRANCH   9  11
HETATM   11  C   UNL     1     -11.367  13.920  66.270  1.00  0.00    -0.329 C  
HETATM   12  C   UNL     1     -12.690  14.073  65.483  1.00  0.00    -0.517 C  
HETATM   13  C   UNL     1     -11.275  15.110  67.249  1.00  0.00    -0.324 C  
HETATM   14  C   UNL     1     -10.218  14.033  65.242  1.00  0.00    -0.383 C  
ENDBRANCH   9  11
ENDBRANCH   4   5
BRANCH   3  15
HETATM   15  N   UNL     1     -10.400   5.794  69.762  1.00  0.00    -0.236 NA 
HETATM   16  C   UNL     1      -9.120   3.333  68.681  1.00  0.00    -0.206 C  
HETATM   17  C   UNL     1      -8.920   3.771  70.128  1.00  0.00    -0.175 C  
HETATM   18  C   UNL     1     -10.083   4.638  70.629  1.00  0.00    -0.191 C  
HETATM   19  C   UNL     1     -10.651   5.319  68.393  1.00  0.00    -0.007 C  
HETATM   20  C   UNL     1      -9.496   4.514  67.790  1.00  0.00    -0.196 C  
ENDBRANCH   3  15
TORSDOF 3
ENDMDL
MODEL       55
REMARK 921   NORMALIZED FREE ENERGY PREDICTED BY IDOCK:   -4.38 KCAL/MOL
REMARK 922        TOTAL FREE ENERGY PREDICTED BY IDOCK:   -5.68 KCAL/MOL
REMARK 923 INTER-LIGAND FREE ENERGY PREDICTED BY IDOCK:   -5.17 KCAL/MOL
REMARK 924 INTRA-LIGAND FREE ENERGY PREDICTED BY IDOCK:   -0.50 KCAL/MOL
REMARK 927      BINDING AFFINITY PREDICTED BY RF-SCORE:    0.00 PKD
ROOT
HETATM    1  C   UNL     1      -6.972  12.823  67.680  1.00  0.00    -0.146 C  
HETATM    2  C   UNL     1      -8.394  12.527  67.175  1.00  0.00    -0.179 C  
HETATM    3  C   UNL     1      -8.635  10.997  67.301  1.00  0.00    -0.130 C  
HETATM    4  C   UNL     1      -9.442  13.351  67.964  1.00  0.00    -0.218 C  
ENDROOT
BRANCH   4   5
HETATM    5  C   UNL     1      -9.228  14.851  67.911  1.00  0.00    -0.183 A  
HETATM    6  C   UNL     1      -9.738  15.618  66.859  1.00  0.00    -0.240 A  
HETATM    7  C   UNL     1      -9.572  17.011  66.834  1.00  0.00    -0.263 A  
HETATM    8  C   UNL     1      -8.523  15.512  68.923  1.00  0.00    -0.207 A  
HETATM    9  C   UNL     1      -8.894  17.692  67.863  1.00  0.00    -0.246 A  
HETATM   10  C   UNL     1      -8.362  16.904  68.898  1.00  0.00    -0.208 A  
BRANCH   9  11
HETATM   11  C   UNL     1      -8.772  19.227  67.842  1.00  0.00    -0.352 C  
HETATM   12  C   UNL     1     -10.063  19.952  68.288  1.00  0.00    -0.571 C  
HETATM   13  C   UNL     1      -7.638  19.685  68.784  1.00  0.00    -0.351 C  
HETATM   14  C   UNL     1      -8.455  19.716  66.410  1.00  0.00    -0.382 C  
ENDBRANCH   9  11
ENDBRANCH   4   5
BRANCH   3  15
HETATM   15  N   UNL     1      -9.911  10.465  66.787  1.00  0.00    -0.198 NA 
HETATM   16  C   UNL     1     -10.212   7.685  67.810  1.00  0.00    -0.259 C  
HETATM   17  C   UNL     1     -10.438   8.898  68.706  1.00  0.00    -0.223 C  
HETATM   18  C   UNL     1     -10.832  10.142  67.898  1.00  0.00    -0.284 C  
HETATM   19  C   UNL     1      -9.775   9.290  65.911  1.00  0.00    -0.285 C  
HETATM   20  C   UNL     1      -9.301   8.026  66.633  1.00  0.00    -0.249 C  
ENDBRANCH   3  15
TORSDOF 3
ENDMDL
MODEL       56
REMARK 921   NORMALIZED FREE ENERGY PREDICTED BY IDOCK:   -4.29 KCAL/MOL
REMARK 922        TOTAL FREE ENERGY PREDICTED BY IDOCK:   -5.57 KCAL/MOL
REMARK 923 INTER-LIGAND FREE ENERGY PREDICTED BY IDOCK:   -4.75 KCAL/MOL
REMARK 924 INTRA-LIGAND FREE ENERGY PREDICTED BY IDOCK:   -0.83 KCAL/MOL
REMARK 927      BINDING AFFINITY PREDICTED BY RF-SCORE:    0.00 PKD
ROOT
HETATM    1  C   UNL     1     -11.540  10.899  69.301  1.00  0.00    -0.388 C  
HETATM    2  C   UNL     1     -12.013  11.263  70.719  1.00  0.00    -0.383 C  
HETATM    3  C   UNL     1     -12.938  12.507  70.607  1.00  0.00     0.208 C  
HETATM    4  C   UNL     1     -12.727  10.062  71.387  1.00  0.00    -0.518 C  
ENDROOT
BRANCH   4   5
HETATM    5  C   UNL     1     -11.884   8.806  71.482  1.00  0.00    -0.377 A  
HETATM    6  C   UNL     1     -10.700   8.783  72.227  1.00  0.00    -0.322 A  
HETATM    7  C   UNL     1      -9.943   7.609  72.346  1.00  0.00    -0.256 A  
HETATM    8  C   UNL     1     -12.274   7.628  70.836  1.00  0.00    -0.194 A  
HETATM    9  C   UNL     1     -10.343   6.408  71.727  1.00  0.00    -0.231 A  
HETATM   10  C   UNL     1     -11.517   6.454  70.959  1.00  0.00    -0.394 A  
BRANCH   9  11
HETATM   11  C   UNL     1      -9.525   5.117  71.916  1.00  0.00    -0.184 C  
HETATM   12  C   UNL     1      -8.293   5.299  72.833  1.00  0.00    -0.112 C  
HETATM   13  C   UNL     1     -10.405   4.014  72.542  1.00  0.00    -0.223 C  
HETATM   14  C   UNL     1      -8.997   4.616  70.552  1.00  0.00    -0.155 C  
ENDBRANCH   9  11
ENDBRANCH   4   5
BRANCH   3  15
HETATM   15  N   UNL     1     -13.442  13.095  71.862  1.00  0.00    -0.444 NA 
HETATM   16  C   UNL     1     -12.630  15.959  71.913  1.00  0.00    -0.502 C  
HETATM   17  C   UNL     1     -13.773  15.465  71.033  1.00  0.00    -0.420 C  
HETATM   18  C   UNL     1     -14.407  14.180  71.584  1.00  0.00    -0.294 C  
HETATM   19  C   UNL     1     -12.395  13.595  72.767  1.00  0.00     0.553 C  
HETATM   20  C   UNL     1     -11.657  14.830  72.244  1.00  0.00    -0.113 C  
ENDBRANCH   3  15
TORSDOF 3
ENDMDL
MODEL       57
REMARK 921   NORMALIZED FREE ENERGY PREDICTED BY IDOCK:   -4.29 KCAL/MOL
REMARK 922        TOTAL FREE ENERGY PREDICTED BY IDOCK:   -5.57 KCAL/MOL
REMARK 923 INTER-LIGAND FREE ENERGY PREDICTED BY IDOCK:   -4.90 KCAL/MOL
REMARK 924 INTRA-LIGAND FREE ENERGY PREDICTED BY IDOCK:   -0.67 KCAL/MOL
REMARK 927      BINDING AFFINITY PREDICTED BY RF-SCORE:    0.00 PKD
ROOT
HETATM    1  C   UNL     1     -11.073   6.624  67.023  1.00  0.00    -0.395 C  
HETATM    2  C   UNL     1     -10.195   7.803  67.473  1.00  0.00    -0.301 C  
HETATM    3  C   UNL     1     -10.406   8.966  66.465  1.00  0.00    -0.197 C  
HETATM    4  C   UNL     1     -10.532   8.219  68.926  1.00  0.00    -0.209 C  
ENDROOT
BRANCH   4   5
HETATM    5  C   UNL     1     -10.385   7.108  69.946  1.00  0.00    -0.224 A  
HETATM    6  C   UNL     1      -9.226   6.326  70.003  1.00  0.00    -0.157 A  
HETATM    7  C   UNL     1      -9.077   5.324  70.974  1.00  0.00    -0.171 A  
HETATM    8  C   UNL     1     -11.401   6.841  70.870  1.00  0.00    -0.363 A  
HETATM    9  C   UNL     1     -10.079   5.069  71.930  1.00  0.00    -0.257 A  
HETATM   10  C   UNL     1     -11.248   5.842  71.842  1.00  0.00    -0.323 A  
BRANCH   9  11
HETATM   11  C   UNL     1      -9.870   4.002  73.021  1.00  0.00    -0.183 C  
HETATM   12  C   UNL     1      -9.099   2.757  72.523  1.00  0.00    -0.120 C  
HETATM   13  C   UNL     1      -9.072   4.594  74.202  1.00  0.00    -0.111 C  
HETATM   14  C   UNL     1     -11.236   3.503  73.546  1.00  0.00    -0.279 C  
ENDBRANCH   9  11
ENDBRANCH   4   5
BRANCH   3  15
HETATM   15  N   UNL     1      -9.589  10.180  66.646  1.00  0.00    -0.176 NA 
HETATM   16  C   UNL     1     -10.550  12.219  64.701  1.00  0.00    -0.338 C  
HETATM   17  C   UNL     1     -11.335  11.884  65.965  1.00  0.00    -0.375 C  
HETATM   18  C   UNL     1     -10.429  11.322  67.069  1.00  0.00    -0.234 C  
HETATM   19  C   UNL     1      -8.801  10.569  65.466  1.00  0.00    -0.184 C  
HETATM   20  C   UNL     1      -9.643  11.063  64.288  1.00  0.00    -0.303 C  
ENDBRANCH   3  15
TORSDOF 3
ENDMDL
MODEL       58
REMARK 921   NORMALIZED FREE ENERGY PREDICTED BY IDOCK:   -4.23 KCAL/MOL
REMARK 922        TOTAL FREE ENERGY PREDICTED BY IDOCK:   -5.50 KCAL/MOL
REMARK 923 INTER-LIGAND FREE ENERGY PREDICTED BY IDOCK:   -4.81 KCAL/MOL
REMARK 924 INTRA-LIGAND FREE ENERGY PREDICTED BY IDOCK:   -0.69 KCAL/MOL
REMARK 927      BINDING AFFINITY PREDICTED BY RF-SCORE:    0.00 PKD
ROOT
HETATM    1  C   UNL     1     -11.202   6.546  67.148  1.00  0.00    -0.313 C  
HETATM    2  C   UNL     1     -10.058   7.017  68.063  1.00  0.00    -0.199 C  
HETATM    3  C   UNL     1      -9.300   5.757  68.564  1.00  0.00    -0.121 C  
HETATM    4  C   UNL     1      -9.126   8.003  67.318  1.00  0.00    -0.153 C  
ENDROOT
BRANCH   4   5
HETATM    5  C   UNL     1      -9.824   9.232  66.769  1.00  0.00    -0.289 A  
HETATM    6  C   UNL     1     -10.682   9.994  67.568  1.00  0.00    -0.339 A  
HETATM    7  C   UNL     1     -11.295  11.153  67.068  1.00  0.00    -0.216 A  
HETATM    8  C   UNL     1      -9.618   9.645  65.448  1.00  0.00    -0.361 A  
HETATM    9  C   UNL     1     -11.070  11.598  65.751  1.00  0.00    -0.313 A  
HETATM   10  C   UNL     1     -10.229  10.806  64.952  1.00  0.00    -0.388 A  
BRANCH   9  11
HETATM   11  C   UNL     1     -11.710  12.903  65.242  1.00  0.00    -0.399 C  
HETATM   12  C   UNL     1     -12.394  13.727  66.358  1.00  0.00    -0.460 C  
HETATM   13  C   UNL     1     -10.640  13.806  64.594  1.00  0.00    -0.443 C  
HETATM   14  C   UNL     1     -12.796  12.586  64.188  1.00  0.00    -0.333 C  
ENDBRANCH   9  11
ENDBRANCH   4   5
BRANCH   3  15
HETATM   15  N   UNL     1      -8.209   5.960  69.536  1.00  0.00    -0.112 NA 
HETATM   16  C   UNL     1      -7.379   3.284  70.541  1.00  0.00    -0.040 C  
HETATM   17  C   UNL     1      -6.984   3.777  69.153  1.00  0.00    -0.046 C  
HETATM   18  C   UNL     1      -6.964   5.310  69.074  1.00  0.00    -0.056 C  
HETATM   19  C   UNL     1      -8.516   5.509  70.902  1.00  0.00    -0.123 C  
HETATM   20  C   UNL     1      -8.636   3.989  71.045  1.00  0.00    -0.108 C  
ENDBRANCH   3  15
TORSDOF 3
ENDMDL
MODEL       59
REMARK 921   NORMALIZED FREE ENERGY PREDICTED BY IDOCK:   -4.20 KCAL/MOL
REMARK 922        TOTAL FREE ENERGY PREDICTED BY IDOCK:   -5.47 KCAL/MOL
REMARK 923 INTER-LIGAND FREE ENERGY PREDICTED BY IDOCK:   -5.13 KCAL/MOL
REMARK 924 INTRA-LIGAND FREE ENERGY PREDICTED BY IDOCK:   -0.34 KCAL/MOL
REMARK 927      BINDING AFFINITY PREDICTED BY RF-SCORE:    0.00 PKD
ROOT
HETATM    1  C   UNL     1     -12.309  10.983  70.868  1.00  0.00    -0.503 C  
HETATM    2  C   UNL     1     -11.678  11.207  69.483  1.00  0.00    -0.405 C  
HETATM    3  C   UNL     1     -11.848  12.707  69.119  1.00  0.00    -0.297 C  
HETATM    4  C   UNL     1     -10.192  10.768  69.477  1.00  0.00    -0.146 C  
ENDROOT
BRANCH   4   5
HETATM    5  C   UNL     1      -9.964   9.322  69.869  1.00  0.00    -0.226 A  
HETATM    6  C   UNL     1      -9.262   8.988  71.031  1.00  0.00    -0.331 A  
HETATM    7  C   UNL     1      -9.086   7.649  71.411  1.00  0.00    -0.146 A  
HETATM    8  C   UNL     1     -10.462   8.277  69.082  1.00  0.00    -0.217 A  
HETATM    9  C   UNL     1      -9.612   6.591  70.645  1.00  0.00    -0.183 A  
HETATM   10  C   UNL     1     -10.289   6.940  69.466  1.00  0.00    -0.224 A  
BRANCH   9  11
HETATM   11  C   UNL     1      -9.454   5.131  71.111  1.00  0.00    -0.205 C  
HETATM   12  C   UNL     1      -9.604   4.102  69.966  1.00  0.00    -0.274 C  
HETATM   13  C   UNL     1      -8.062   4.919  71.740  1.00  0.00    -0.113 C  
HETATM   14  C   UNL     1     -10.533   4.789  72.165  1.00  0.00    -0.243 C  
ENDBRANCH   9  11
ENDBRANCH   4   5
BRANCH   3  15
HETATM   15  N   UNL     1     -11.394  13.140  67.784  1.00  0.00    -0.273 NA 
HETATM   16  C   UNL     1      -9.960  15.728  68.108  1.00  0.00    -0.214 C  
HETATM   17  C   UNL     1      -9.321  14.403  68.509  1.00  0.00    -0.204 C  
HETATM   18  C   UNL     1      -9.918  13.221  67.731  1.00  0.00    -0.223 C  
HETATM   19  C   UNL     1     -11.968  14.415  67.326  1.00  0.00    -0.377 C  
HETATM   20  C   UNL     1     -11.483  15.635  68.113  1.00  0.00    -0.325 C  
ENDBRANCH   3  15
TORSDOF 3
ENDMDL
MODEL       60
REMARK 921   NORMALIZED FREE ENERGY PREDICTED BY IDOCK:   -4.19 KCAL/MOL
REMARK 922        TOTAL FREE ENERGY PREDICTED BY IDOCK:   -5.46 KCAL/MOL
REMARK 923 INTER-LIGAND FREE ENERGY PREDICTED BY IDOCK:   -4.83 KCAL/MOL
REMARK 924 INTRA-LIGAND FREE ENERGY PREDICTED BY IDOCK:   -0.63 KCAL/MOL
REMARK 927      BINDING AFFINITY PREDICTED BY RF-SCORE:    0.00 PKD
ROOT
HETATM    1  C   UNL     1      -7.015  16.154  69.468  1.00  0.00    -0.186 C  
HETATM    2  C   UNL     1      -7.641  16.635  68.148  1.00  0.00    -0.171 C  
HETATM    3  C   UNL     1      -6.845  17.879  67.668  1.00  0.00    -0.186 C  
HETATM    4  C   UNL     1      -7.644  15.500  67.094  1.00  0.00    -0.253 C  
ENDROOT
BRANCH   4   5
HETATM    5  C   UNL     1      -8.371  14.243  67.528  1.00  0.00    -0.198 A  
HETATM    6  C   UNL     1      -9.765  14.152  67.458  1.00  0.00    -0.234 A  
HETATM    7  C   UNL     1     -10.433  12.974  67.824  1.00  0.00    -0.232 A  
HETATM    8  C   UNL     1      -7.665  13.131  67.999  1.00  0.00    -0.146 A  
HETATM    9  C   UNL     1      -9.730  11.836  68.268  1.00  0.00    -0.199 A  
HETATM   10  C   UNL     1      -8.334  11.952  68.360  1.00  0.00    -0.157 A  
BRANCH   9  11
HETATM   11  C   UNL     1     -10.480  10.535  68.611  1.00  0.00    -0.211 C  
HETATM   12  C   UNL     1      -9.768   9.682  69.687  1.00  0.00    -0.230 C  
HETATM   13  C   UNL     1     -11.893  10.857  69.140  1.00  0.00    -0.389 C  
HETATM   14  C   UNL     1     -10.612   9.649  67.351  1.00  0.00    -0.333 C  
ENDBRANCH   9  11
ENDBRANCH   4   5
BRANCH   3  15
HETATM   15  N   UNL     1      -7.327  18.571  66.458  1.00  0.00    -0.221 NA 
HETATM   16  C   UNL     1      -5.946  21.204  66.307  1.00  0.00    -0.328 C  
HETATM   17  C   UNL     1      -5.232  19.903  65.956  1.00  0.00    -0.167 C  
HETATM   18  C   UNL     1      -6.216  18.812  65.512  1.00  0.00    -0.260 C  
HETATM   19  C   UNL     1      -8.029  19.838  66.716  1.00  0.00    -0.296 C  
HETATM   20  C   UNL     1      -7.125  20.955  67.244  1.00  0.00    -0.430 C  
ENDBRANCH   3  15
TORSDOF 3
ENDMDL
MODEL       61
REMARK 921   NORMALIZED FREE ENERGY PREDICTED BY IDOCK:   -4.16 KCAL/MOL
REMARK 922        TOTAL FREE ENERGY PREDICTED BY IDOCK:   -5.42 KCAL/MOL
REMARK 923 INTER-LIGAND FREE ENERGY PREDICTED BY IDOCK:   -4.69 KCAL/MOL
REMARK 924 INTRA-LIGAND FREE ENERGY PREDICTED BY IDOCK:   -0.73 KCAL/MOL
REMARK 927      BINDING AFFINITY PREDICTED BY RF-SCORE:    0.00 PKD
ROOT
HETATM    1  C   UNL     1      -9.617  10.336  64.932  1.00  0.00    -0.365 C  
HETATM    2  C   UNL     1      -9.959   9.807  66.335  1.00  0.00    -0.314 C  
HETATM    3  C   UNL     1      -9.718   8.272  66.337  1.00  0.00    -0.230 C  
HETATM    4  C   UNL     1      -9.122  10.532  67.417  1.00  0.00    -0.147 C  
ENDROOT
BRANCH   4   5
HETATM    5  C   UNL     1      -9.286  12.039  67.432  1.00  0.00    -0.180 A  
HETATM    6  C   UNL     1     -10.542  12.628  67.608  1.00  0.00    -0.232 A  
HETATM    7  C   UNL     1     -10.685  14.023  67.660  1.00  0.00    -0.261 A  
HETATM    8  C   UNL     1      -8.181  12.884  67.282  1.00  0.00    -0.176 A  
HETATM    9  C   UNL     1      -9.576  14.883  67.543  1.00  0.00    -0.204 A  
HETATM   10  C   UNL     1      -8.325  14.277  67.338  1.00  0.00    -0.212 A  
BRANCH   9  11
HETATM   11  C   UNL     1      -9.750  16.409  67.659  1.00  0.00    -0.238 C  
HETATM   12  C   UNL     1     -10.857  16.827  68.653  1.00  0.00    -0.336 C  
HETATM   13  C   UNL     1      -8.434  17.062  68.134  1.00  0.00    -0.227 C  
HETATM   14  C   UNL     1     -10.131  17.006  66.285  1.00  0.00    -0.330 C  
ENDBRANCH   9  11
ENDBRANCH   4   5
BRANCH   3  15
HETATM   15  N   UNL     1     -10.068   7.529  67.562  1.00  0.00    -0.182 NA 
HETATM   16  C   UNL     1      -9.394   4.665  67.110  1.00  0.00    -0.156 C  
HETATM   17  C   UNL     1      -8.317   5.709  67.383  1.00  0.00    -0.100 C  
HETATM   18  C   UNL     1      -8.868   6.910  68.164  1.00  0.00    -0.125 C  
HETATM   19  C   UNL     1     -11.105   6.501  67.378  1.00  0.00    -0.327 C  
HETATM   20  C   UNL     1     -10.655   5.305  66.535  1.00  0.00    -0.348 C  
ENDBRANCH   3  15
TORSDOF 3
ENDMDL
MODEL       62
REMARK 921   NORMALIZED FREE ENERGY PREDICTED BY IDOCK:   -4.16 KCAL/MOL
REMARK 922        TOTAL FREE ENERGY PREDICTED BY IDOCK:   -5.42 KCAL/MOL
REMARK 923 INTER-LIGAND FREE ENERGY PREDICTED BY IDOCK:   -4.69 KCAL/MOL
REMARK 924 INTRA-LIGAND FREE ENERGY PREDICTED BY IDOCK:   -0.73 KCAL/MOL
REMARK 927      BINDING AFFINITY PREDICTED BY RF-SCORE:    0.00 PKD
ROOT
HETATM    1  C   UNL     1     -11.917  12.391  68.635  1.00  0.00    -0.272 C  
HETATM    2  C   UNL     1     -10.840  12.605  67.558  1.00  0.00    -0.267 C  
HETATM    3  C   UNL     1     -10.658  14.136  67.364  1.00  0.00    -0.279 C  
HETATM    4  C   UNL     1      -9.517  11.905  67.954  1.00  0.00    -0.194 C  
ENDROOT
BRANCH   4   5
HETATM    5  C   UNL     1      -9.646  10.414  68.199  1.00  0.00    -0.155 A  
HETATM    6  C   UNL     1     -10.188   9.566  67.228  1.00  0.00    -0.295 A  
HETATM    7  C   UNL     1     -10.270   8.182  67.442  1.00  0.00    -0.327 A  
HETATM    8  C   UNL     1      -9.214   9.843  69.401  1.00  0.00    -0.225 A  
HETATM    9  C   UNL     1      -9.808   7.591  68.634  1.00  0.00    -0.169 A  
HETATM   10  C   UNL     1      -9.293   8.459  69.611  1.00  0.00    -0.161 A  
BRANCH   9  11
HETATM   11  C   UNL     1      -9.857   6.063  68.824  1.00  0.00    -0.170 C  
HETATM   12  C   UNL     1     -10.448   5.633  70.187  1.00  0.00    -0.366 C  
HETATM   13  C   UNL     1     -10.722   5.416  67.723  1.00  0.00    -0.109 C  
HETATM   14  C   UNL     1      -8.431   5.471  68.747  1.00  0.00    -0.101 C  
ENDBRANCH   9  11
ENDBRANCH   4   5
BRANCH   3  15
HETATM   15  N   UNL     1      -9.732  14.583  66.307  1.00  0.00    -0.295 NA 
HETATM   16  C   UNL     1      -9.815  17.558  66.226  1.00  0.00    -0.295 C  
HETATM   17  C   UNL     1      -9.078  16.806  67.329  1.00  0.00    -0.228 C  
HETATM   18  C   UNL     1      -8.643  15.406  66.875  1.00  0.00    -0.259 C  
HETATM   19  C   UNL     1     -10.372  15.318  65.205  1.00  0.00    -0.381 C  
HETATM   20  C   UNL     1     -10.909  16.695  65.602  1.00  0.00    -0.142 C  
ENDBRANCH   3  15
TORSDOF 3
ENDMDL
MODEL       63
REMARK 921   NORMALIZED FREE ENERGY PREDICTED BY IDOCK:   -4.15 KCAL/MOL
REMARK 922        TOTAL FREE ENERGY PREDICTED BY IDOCK:   -5.41 KCAL/MOL
REMARK 923 INTER-LIGAND FREE ENERGY PREDICTED BY IDOCK:   -4.57 KCAL/MOL
REMARK 924 INTRA-LIGAND FREE ENERGY PREDICTED BY IDOCK:   -0.83 KCAL/MOL
REMARK 927      BINDING AFFINITY PREDICTED BY RF-SCORE:    0.00 PKD
ROOT
HETATM    1  C   UNL     1      -8.403   8.897  64.430  1.00  0.00    -0.176 C  
HETATM    2  C   UNL     1      -8.782   8.221  65.759  1.00  0.00    -0.196 C  
HETATM    3  C   UNL     1      -7.992   6.888  65.858  1.00  0.00    -0.112 C  
HETATM    4  C   UNL     1      -8.497   9.161  66.956  1.00  0.00    -0.123 C  
ENDROOT
BRANCH   4   5
HETATM    5  C   UNL     1      -9.210  10.497  66.889  1.00  0.00    -0.173 A  
HETATM    6  C   UNL     1      -8.497  11.692  66.748  1.00  0.00    -0.177 A  
HETATM    7  C   UNL     1      -9.162  12.923  66.646  1.00  0.00    -0.222 A  
HETATM    8  C   UNL     1     -10.606  10.571  66.953  1.00  0.00    -0.303 A  
HETATM    9  C   UNL     1     -10.567  13.007  66.676  1.00  0.00    -0.275 A  
HETATM   10  C   UNL     1     -11.268  11.802  66.847  1.00  0.00    -0.387 A  
BRANCH   9  11
HETATM   11  C   UNL     1     -11.277  14.363  66.507  1.00  0.00    -0.340 C  
HETATM   12  C   UNL     1     -11.575  15.072  67.849  1.00  0.00    -0.350 C  
HETATM   13  C   UNL     1     -10.407  15.320  65.665  1.00  0.00    -0.389 C  
HETATM   14  C   UNL     1     -12.634  14.168  65.792  1.00  0.00    -0.475 C  
ENDBRANCH   9  11
ENDBRANCH   4   5
BRANCH   3  15
HETATM   15  N   UNL     1      -8.266   6.018  67.017  1.00  0.00    -0.106 NA 
HETATM   16  C   UNL     1      -9.313   3.430  65.983  1.00  0.00    -0.148 C  
HETATM   17  C   UNL     1      -7.833   3.789  65.895  1.00  0.00    -0.090 C  
HETATM   18  C   UNL     1      -7.426   4.803  66.974  1.00  0.00    -0.086 C  
HETATM   19  C   UNL     1      -9.677   5.629  67.168  1.00  0.00    -0.139 C  
HETATM   20  C   UNL     1     -10.183   4.681  66.078  1.00  0.00    -0.306 C  
ENDBRANCH   3  15
TORSDOF 3
ENDMDL
MODEL       64
REMARK 921   NORMALIZED FREE ENERGY PREDICTED BY IDOCK:   -4.13 KCAL/MOL
REMARK 922        TOTAL FREE ENERGY PREDICTED BY IDOCK:   -5.39 KCAL/MOL
REMARK 923 INTER-LIGAND FREE ENERGY PREDICTED BY IDOCK:   -4.67 KCAL/MOL
REMARK 924 INTRA-LIGAND FREE ENERGY PREDICTED BY IDOCK:   -0.72 KCAL/MOL
REMARK 927      BINDING AFFINITY PREDICTED BY RF-SCORE:    0.00 PKD
ROOT
HETATM    1  C   UNL     1     -10.784   6.025  68.836  1.00  0.00    -0.384 C  
HETATM    2  C   UNL     1     -10.631   6.539  70.277  1.00  0.00    -0.278 C  
HETATM    3  C   UNL     1     -10.317   5.320  71.187  1.00  0.00    -0.221 C  
HETATM    4  C   UNL     1      -9.533   7.629  70.360  1.00  0.00    -0.164 C  
ENDROOT
BRANCH   4   5
HETATM    5  C   UNL     1      -9.768   8.824  69.457  1.00  0.00    -0.172 A  
HETATM    6  C   UNL     1      -8.978   9.042  68.324  1.00  0.00    -0.133 A  
HETATM    7  C   UNL     1      -9.222  10.127  67.470  1.00  0.00    -0.150 A  
HETATM    8  C   UNL     1     -10.792   9.739  69.728  1.00  0.00    -0.285 A  
HETATM    9  C   UNL     1     -10.271  11.035  67.713  1.00  0.00    -0.210 A  
HETATM   10  C   UNL     1     -11.037  10.820  68.870  1.00  0.00    -0.307 A  
BRANCH   9  11
HETATM   11  C   UNL     1     -10.555  12.187  66.731  1.00  0.00    -0.256 C  
HETATM   12  C   UNL     1     -10.515  11.754  65.247  1.00  0.00    -0.320 C  
HETATM   13  C   UNL     1     -11.953  12.784  66.998  1.00  0.00    -0.364 C  
HETATM   14  C   UNL     1      -9.499  13.304  66.901  1.00  0.00    -0.249 C  
ENDBRANCH   9  11
ENDBRANCH   4   5
BRANCH   3  15
HETATM   15  N   UNL     1     -10.217   5.562  72.638  1.00  0.00    -0.181 NA 
HETATM   16  C   UNL     1      -9.761   2.936  73.966  1.00  0.00    -0.133 C  
HETATM   17  C   UNL     1      -8.650   3.654  73.206  1.00  0.00    -0.087 C  
HETATM   18  C   UNL     1      -8.885   5.170  73.147  1.00  0.00    -0.115 C  
HETATM   19  C   UNL     1     -11.258   4.900  73.441  1.00  0.00    -0.338 C  
HETATM   20  C   UNL     1     -11.140   3.374  73.479  1.00  0.00    -0.317 C  
ENDBRANCH   3  15
TORSDOF 3
ENDMDL
MODEL       65
REMARK 921   NORMALIZED FREE ENERGY PREDICTED BY IDOCK:   -4.12 KCAL/MOL
REMARK 922        TOTAL FREE ENERGY PREDICTED BY IDOCK:   -5.38 KCAL/MOL
REMARK 923 INTER-LIGAND FREE ENERGY PREDICTED BY IDOCK:   -4.55 KCAL/MOL
REMARK 924 INTRA-LIGAND FREE ENERGY PREDICTED BY IDOCK:   -0.82 KCAL/MOL
REMARK 927      BINDING AFFINITY PREDICTED BY RF-SCORE:    0.00 PKD
ROOT
HETATM    1  C   UNL     1     -10.812  11.088  69.190  1.00  0.00    -0.283 C  
HETATM    2  C   UNL     1     -10.363  11.053  67.719  1.00  0.00    -0.218 C  
HETATM    3  C   UNL     1     -10.310  12.517  67.202  1.00  0.00    -0.220 C  
HETATM    4  C   UNL     1      -8.999  10.333  67.577  1.00  0.00    -0.138 C  
ENDROOT
BRANCH   4   5
HETATM    5  C   UNL     1      -8.982   8.912  68.106  1.00  0.00    -0.137 A  
HETATM    6  C   UNL     1      -9.875   7.950  67.626  1.00  0.00    -0.212 A  
HETATM    7  C   UNL     1      -9.831   6.626  68.090  1.00  0.00    -0.135 A  
HETATM    8  C   UNL     1      -8.060   8.522  69.084  1.00  0.00    -0.117 A  
HETATM    9  C   UNL     1      -8.886   6.213  69.049  1.00  0.00    -0.123 A  
HETATM   10  C   UNL     1      -8.015   7.198  69.543  1.00  0.00    -0.128 A  
BRANCH   9  11
HETATM   11  C   UNL     1      -8.819   4.743  69.503  1.00  0.00    -0.120 C  
HETATM   12  C   UNL     1      -9.946   4.353  70.489  1.00  0.00    -0.256 C  
HETATM   13  C   UNL     1      -8.929   3.802  68.285  1.00  0.00    -0.168 C  
HETATM   14  C   UNL     1      -7.479   4.468  70.223  1.00  0.00    -0.050 C  
ENDBRANCH   9  11
ENDBRANCH   4   5
BRANCH   3  15
HETATM   15  N   UNL     1      -9.988  12.725  65.778  1.00  0.00    -0.266 NA 
HETATM   16  C   UNL     1     -12.272  14.172  64.533  1.00  0.00    -0.468 C  
HETATM   17  C   UNL     1     -11.271  14.882  65.438  1.00  0.00    -0.359 C  
HETATM   18  C   UNL     1      -9.913  14.167  65.461  1.00  0.00    -0.295 C  
HETATM   19  C   UNL     1     -10.912  12.068  64.840  1.00  0.00    -0.306 C  
HETATM   20  C   UNL     1     -12.318  12.674  64.822  1.00  0.00    -0.556 C  
ENDBRANCH   3  15
TORSDOF 3
ENDMDL
MODEL       66
REMARK 921   NORMALIZED FREE ENERGY PREDICTED BY IDOCK:   -4.12 KCAL/MOL
REMARK 922        TOTAL FREE ENERGY PREDICTED BY IDOCK:   -5.37 KCAL/MOL
REMARK 923 INTER-LIGAND FREE ENERGY PREDICTED BY IDOCK:   -4.55 KCAL/MOL
REMARK 924 INTRA-LIGAND FREE ENERGY PREDICTED BY IDOCK:   -0.81 KCAL/MOL
REMARK 927      BINDING AFFINITY PREDICTED BY RF-SCORE:    0.00 PKD
ROOT
HETATM    1  C   UNL     1      -8.472  10.906  67.159  1.00  0.00    -0.128 C  
HETATM    2  C   UNL     1      -9.915  11.226  67.585  1.00  0.00    -0.197 C  
HETATM    3  C   UNL     1     -10.408  12.427  66.732  1.00  0.00    -0.221 C  
HETATM    4  C   UNL     1     -10.825   9.983  67.426  1.00  0.00    -0.313 C  
ENDROOT
BRANCH   4   5
HETATM    5  C   UNL     1     -10.365   8.765  68.204  1.00  0.00    -0.266 A  
HETATM    6  C   UNL     1     -10.043   7.570  67.554  1.00  0.00    -0.261 A  
HETATM    7  C   UNL     1      -9.580   6.458  68.273  1.00  0.00    -0.123 A  
HETATM    8  C   UNL     1     -10.237   8.809  69.597  1.00  0.00    -0.210 A  
HETATM    9  C   UNL     1      -9.415   6.500  69.671  1.00  0.00    -0.149 A  
HETATM   10  C   UNL     1      -9.770   7.698  70.313  1.00  0.00    -0.179 A  
BRANCH   9  11
HETATM   11  C   UNL     1      -8.853   5.285  70.433  1.00  0.00    -0.146 C  
HETATM   12  C   UNL     1      -9.951   4.346  70.986  1.00  0.00    -0.242 C  
HETATM   13  C   UNL     1      -7.952   4.443  69.505  1.00  0.00    -0.060 C  
HETATM   14  C   UNL     1      -8.016   5.757  71.644  1.00  0.00    -0.117 C  
ENDBRANCH   9  11
ENDBRANCH   4   5
BRANCH   3  15
HETATM   15  N   UNL     1     -11.745  12.971  67.032  1.00  0.00    -0.366 NA 
HETATM   16  C   UNL     1     -11.378  15.662  68.251  1.00  0.00    -0.357 C  
HETATM   17  C   UNL     1     -11.196  15.428  66.755  1.00  0.00    -0.197 C  
HETATM   18  C   UNL     1     -11.993  14.211  66.265  1.00  0.00    -0.429 C  
HETATM   19  C   UNL     1     -11.997  13.223  68.459  1.00  0.00    -0.304 C  
HETATM   20  C   UNL     1     -11.172  14.373  69.044  1.00  0.00    -0.288 C  
ENDBRANCH   3  15
TORSDOF 3
ENDMDL
MODEL       67
REMARK 921   NORMALIZED FREE ENERGY PREDICTED BY IDOCK:   -4.01 KCAL/MOL
REMARK 922        TOTAL FREE ENERGY PREDICTED BY IDOCK:   -5.24 KCAL/MOL
REMARK 923 INTER-LIGAND FREE ENERGY PREDICTED BY IDOCK:   -4.52 KCAL/MOL
REMARK 924 INTRA-LIGAND FREE ENERGY PREDICTED BY IDOCK:   -0.72 KCAL/MOL
REMARK 927      BINDING AFFINITY PREDICTED BY RF-SCORE:    0.00 PKD
ROOT
HETATM    1  C   UNL     1     -11.496  10.149  70.204  1.00  0.00    -0.368 C  
HETATM    2  C   UNL     1     -10.290  10.041  69.254  1.00  0.00    -0.237 C  
HETATM    3  C   UNL     1     -10.117  11.414  68.548  1.00  0.00    -0.206 C  
HETATM    4  C   UNL     1      -9.017   9.615  70.026  1.00  0.00    -0.266 C  
ENDROOT
BRANCH   4   5
HETATM    5  C   UNL     1      -9.146   8.301  70.770  1.00  0.00    -0.168 A  
HETATM    6  C   UNL     1      -9.202   8.263  72.167  1.00  0.00    -0.289 A  
HETATM    7  C   UNL     1      -9.360   7.049  72.852  1.00  0.00    -0.165 A  
HETATM    8  C   UNL     1      -9.225   7.088  70.078  1.00  0.00    -0.148 A  
HETATM    9  C   UNL     1      -9.475   5.825  72.165  1.00  0.00    -0.164 A  
HETATM   10  C   UNL     1      -9.388   5.876  70.764  1.00  0.00    -0.180 A  
BRANCH   9  11
HETATM   11  C   UNL     1      -9.704   4.510  72.935  1.00  0.00    -0.172 C  
HETATM   12  C   UNL     1      -9.833   3.274  72.015  1.00  0.00    -0.240 C  
HETATM   13  C   UNL     1      -8.528   4.245  73.899  1.00  0.00    -0.095 C  
HETATM   14  C   UNL     1     -11.010   4.596  73.757  1.00  0.00    -0.368 C  
ENDBRANCH   9  11
ENDBRANCH   4   5
BRANCH   3  15
HETATM   15  N   UNL     1      -9.069  11.521  67.516  1.00  0.00    -0.163 NA 
HETATM   16  C   UNL     1     -10.406  11.468  64.857  1.00  0.00    -0.340 C  
HETATM   17  C   UNL     1     -10.439  12.707  65.746  1.00  0.00    -0.299 C  
HETATM   18  C   UNL     1      -9.246  12.749  66.712  1.00  0.00    -0.225 C  
HETATM   19  C   UNL     1      -8.975  10.361  66.617  1.00  0.00    -0.141 C  
HETATM   20  C   UNL     1     -10.173  10.201  65.677  1.00  0.00    -0.288 C  
ENDBRANCH   3  15
TORSDOF 3
ENDMDL
MODEL       68
REMARK 921   NORMALIZED FREE ENERGY PREDICTED BY IDOCK:   -4.01 KCAL/MOL
REMARK 922        TOTAL FREE ENERGY PREDICTED BY IDOCK:   -5.24 KCAL/MOL
REMARK 923 INTER-LIGAND FREE ENERGY PREDICTED BY IDOCK:   -4.60 KCAL/MOL
REMARK 924 INTRA-LIGAND FREE ENERGY PREDICTED BY IDOCK:   -0.64 KCAL/MOL
REMARK 927      BINDING AFFINITY PREDICTED BY RF-SCORE:    0.00 PKD
ROOT
HETATM    1  C   UNL     1     -10.986   6.834  67.105  1.00  0.00    -0.458 C  
HETATM    2  C   UNL     1      -9.471   7.037  67.280  1.00  0.00    -0.165 C  
HETATM    3  C   UNL     1      -8.785   5.651  67.132  1.00  0.00    -0.108 C  
HETATM    4  C   UNL     1      -8.932   8.069  66.259  1.00  0.00    -0.208 C  
ENDROOT
BRANCH   4   5
HETATM    5  C   UNL     1      -9.599   9.429  66.331  1.00  0.00    -0.285 A  
HETATM    6  C   UNL     1      -9.832  10.057  67.559  1.00  0.00    -0.211 A  
HETATM    7  C   UNL     1     -10.414  11.332  67.619  1.00  0.00    -0.225 A  
HETATM    8  C   UNL     1      -9.989  10.100  65.167  1.00  0.00    -0.379 A  
HETATM    9  C   UNL     1     -10.780  12.032  66.453  1.00  0.00    -0.294 A  
HETATM   10  C   UNL     1     -10.566  11.376  65.230  1.00  0.00    -0.336 A  
BRANCH   9  11
HETATM   11  C   UNL     1     -11.366  13.453  66.542  1.00  0.00    -0.346 C  
HETATM   12  C   UNL     1     -11.896  13.813  67.950  1.00  0.00    -0.413 C  
HETATM   13  C   UNL     1     -10.291  14.498  66.175  1.00  0.00    -0.305 C  
HETATM   14  C   UNL     1     -12.555  13.601  65.564  1.00  0.00    -0.541 C  
ENDBRANCH   9  11
ENDBRANCH   4   5
BRANCH   3  15
HETATM   15  N   UNL     1      -7.328   5.586  67.352  1.00  0.00    -0.075 NA 
HETATM   16  C   UNL     1      -6.442   2.810  66.745  1.00  0.00    -0.036 C  
HETATM   17  C   UNL     1      -6.792   3.800  65.639  1.00  0.00    -0.057 C  
HETATM   18  C   UNL     1      -6.620   5.255  66.097  1.00  0.00    -0.048 C  
HETATM   19  C   UNL     1      -6.911   4.650  68.408  1.00  0.00    -0.056 C  
HETATM   20  C   UNL     1      -7.131   3.176  68.057  1.00  0.00    -0.050 C  
ENDBRANCH   3  15
TORSDOF 3
ENDMDL
MODEL       69
REMARK 921   NORMALIZED FREE ENERGY PREDICTED BY IDOCK:   -4.00 KCAL/MOL
REMARK 922        TOTAL FREE ENERGY PREDICTED BY IDOCK:   -5.23 KCAL/MOL
REMARK 923 INTER-LIGAND FREE ENERGY PREDICTED BY IDOCK:   -4.47 KCAL/MOL
REMARK 924 INTRA-LIGAND FREE ENERGY PREDICTED BY IDOCK:   -0.76 KCAL/MOL
REMARK 927      BINDING AFFINITY PREDICTED BY RF-SCORE:    0.00 PKD
ROOT
HETATM    1  C   UNL     1     -12.251  11.471  67.677  1.00  0.00     0.526 C  
HETATM    2  C   UNL     1     -11.397  12.324  68.630  1.00  0.00    -0.339 C  
HETATM    3  C   UNL     1     -11.723  13.818  68.353  1.00  0.00    -0.358 C  
HETATM    4  C   UNL     1     -11.658  11.932  70.105  1.00  0.00    -0.252 C  
ENDROOT
BRANCH   4   5
HETATM    5  C   UNL     1     -11.397  10.473  70.421  1.00  0.00    -0.411 A  
HETATM    6  C   UNL     1     -10.199   9.854  70.048  1.00  0.00    -0.319 A  
HETATM    7  C   UNL     1      -9.945   8.514  70.377  1.00  0.00    -0.203 A  
HETATM    8  C   UNL     1     -12.345   9.706  71.108  1.00  0.00    -0.427 A  
HETATM    9  C   UNL     1     -10.877   7.742  71.097  1.00  0.00    -0.254 A  
HETATM   10  C   UNL     1     -12.086   8.369  71.439  1.00  0.00    -0.337 A  
BRANCH   9  11
HETATM   11  C   UNL     1     -10.552   6.290  71.495  1.00  0.00    -0.282 C  
HETATM   12  C   UNL     1      -9.044   6.039  71.726  1.00  0.00    -0.148 C  
HETATM   13  C   UNL     1     -11.287   5.917  72.800  1.00  0.00    -0.305 C  
HETATM   14  C   UNL     1     -11.002   5.320  70.378  1.00  0.00     0.043 C  
ENDBRANCH   9  11
ENDBRANCH   4   5
BRANCH   3  15
HETATM   15  N   UNL     1     -10.950  14.832  69.093  1.00  0.00    -0.257 NA 
HETATM   16  C   UNL     1      -9.178  16.222  67.146  1.00  0.00    -0.226 C  
HETATM   17  C   UNL     1     -10.675  16.507  67.213  1.00  0.00    -0.243 C  
HETATM   18  C   UNL     1     -11.256  16.192  68.599  1.00  0.00    -0.369 C  
HETATM   19  C   UNL     1      -9.493  14.624  69.074  1.00  0.00    -0.127 C  
HETATM   20  C   UNL     1      -8.850  14.839  67.701  1.00  0.00    -0.182 C  
ENDBRANCH   3  15
TORSDOF 3
ENDMDL
MODEL       70
REMARK 921   NORMALIZED FREE ENERGY PREDICTED BY IDOCK:   -3.99 KCAL/MOL
REMARK 922        TOTAL FREE ENERGY PREDICTED BY IDOCK:   -5.22 KCAL/MOL
REMARK 923 INTER-LIGAND FREE ENERGY PREDICTED BY IDOCK:   -4.69 KCAL/MOL
REMARK 924 INTRA-LIGAND FREE ENERGY PREDICTED BY IDOCK:   -0.53 KCAL/MOL
REMARK 927      BINDING AFFINITY PREDICTED BY RF-SCORE:    0.00 PKD
ROOT
HETATM    1  C   UNL     1      -9.549   7.214  74.166  1.00  0.00    -0.272 C  
HETATM    2  C   UNL     1     -10.038   6.048  73.289  1.00  0.00    -0.202 C  
HETATM    3  C   UNL     1     -10.295   4.830  74.218  1.00  0.00    -0.271 C  
HETATM    4  C   UNL     1     -11.301   6.452  72.490  1.00  0.00    -0.299 C  
ENDROOT
BRANCH   4   5
HETATM    5  C   UNL     1     -11.119   7.665  71.599  1.00  0.00    -0.274 A  
HETATM    6  C   UNL     1     -10.447   7.569  70.375  1.00  0.00    -0.227 A  
HETATM    7  C   UNL     1     -10.314   8.684  69.535  1.00  0.00    -0.214 A  
HETATM    8  C   UNL     1     -11.629   8.913  71.971  1.00  0.00    -0.435 A  
HETATM    9  C   UNL     1     -10.853   9.939  69.883  1.00  0.00    -0.316 A  
HETATM   10  C   UNL     1     -11.498  10.025  71.127  1.00  0.00    -0.432 A  
BRANCH   9  11
HETATM   11  C   UNL     1     -10.742  11.135  68.920  1.00  0.00    -0.246 C  
HETATM   12  C   UNL     1     -11.571  12.362  69.367  1.00  0.00    -0.371 C  
HETATM   13  C   UNL     1      -9.273  11.592  68.801  1.00  0.00    -0.076 C  
HETATM   14  C   UNL     1     -11.253  10.737  67.516  1.00  0.00    -0.346 C  
ENDBRANCH   9  11
ENDBRANCH   4   5
BRANCH   3  15
HETATM   15  N   UNL     1     -10.687   3.559  73.580  1.00  0.00    -0.199 NA 
HETATM   16  C   UNL     1      -8.218   1.946  73.175  1.00  0.00    -0.057 C  
HETATM   17  C   UNL     1      -8.859   2.099  74.551  1.00  0.00    -0.076 C  
HETATM   18  C   UNL     1     -10.359   2.410  74.451  1.00  0.00    -0.143 C  
HETATM   19  C   UNL     1     -10.106   3.339  72.246  1.00  0.00    -0.145 C  
HETATM   20  C   UNL     1      -8.593   3.105  72.255  1.00  0.00    -0.093 C  
ENDBRANCH   3  15
TORSDOF 3
ENDMDL
MODEL       71
REMARK 921   NORMALIZED FREE ENERGY PREDICTED BY IDOCK:   -3.99 KCAL/MOL
REMARK 922        TOTAL FREE ENERGY PREDICTED BY IDOCK:   -5.22 KCAL/MOL
REMARK 923 INTER-LIGAND FREE ENERGY PREDICTED BY IDOCK:   -4.44 KCAL/MOL
REMARK 924 INTRA-LIGAND FREE ENERGY PREDICTED BY IDOCK:   -0.78 KCAL/MOL
REMARK 927      BINDING AFFINITY PREDICTED BY RF-SCORE:    0.00 PKD
ROOT
HETATM    1  C   UNL     1     -10.533   8.889  68.042  1.00  0.00    -0.263 C  
HETATM    2  C   UNL     1      -9.506   8.639  66.925  1.00  0.00    -0.235 C  
HETATM    3  C   UNL     1      -9.471   7.112  66.643  1.00  0.00    -0.170 C  
HETATM    4  C   UNL     1      -9.856   9.460  65.660  1.00  0.00    -0.294 C  
ENDROOT
BRANCH   4   5
HETATM    5  C   UNL     1      -9.946  10.956  65.888  1.00  0.00    -0.294 A  
HETATM    6  C   UNL     1      -8.902  11.659  66.497  1.00  0.00    -0.188 A  
HETATM    7  C   UNL     1      -8.972  13.050  66.671  1.00  0.00    -0.132 A  
HETATM    8  C   UNL     1     -11.074  11.678  65.483  1.00  0.00    -0.297 A  
HETATM    9  C   UNL     1     -10.088  13.792  66.237  1.00  0.00    -0.304 A  
HETATM   10  C   UNL     1     -11.140  13.068  65.654  1.00  0.00    -0.301 A  
BRANCH   9  11
HETATM   11  C   UNL     1     -10.118  15.324  66.389  1.00  0.00    -0.287 C  
HETATM   12  C   UNL     1     -10.959  15.805  67.595  1.00  0.00    -0.302 C  
HETATM   13  C   UNL     1      -8.688  15.871  66.578  1.00  0.00    -0.350 C  
HETATM   14  C   UNL     1     -10.734  15.972  65.127  1.00  0.00    -0.429 C  
ENDBRANCH   9  11
ENDBRANCH   4   5
BRANCH   3  15
HETATM   15  N   UNL     1      -8.484   6.623  65.663  1.00  0.00    -0.150 NA 
HETATM   16  C   UNL     1      -7.087   4.287  66.871  1.00  0.00    -0.067 C  
HETATM   17  C   UNL     1      -8.508   4.179  66.328  1.00  0.00    -0.109 C  
HETATM   18  C   UNL     1      -8.793   5.236  65.252  1.00  0.00    -0.143 C  
HETATM   19  C   UNL     1      -7.086   6.696  66.115  1.00  0.00    -0.063 C  
HETATM   20  C   UNL     1      -6.746   5.726  67.250  1.00  0.00    -0.062 C  
ENDBRANCH   3  15
TORSDOF 3
ENDMDL
MODEL       72
REMARK 921   NORMALIZED FREE ENERGY PREDICTED BY IDOCK:   -3.99 KCAL/MOL
REMARK 922        TOTAL FREE ENERGY PREDICTED BY IDOCK:   -5.22 KCAL/MOL
REMARK 923 INTER-LIGAND FREE ENERGY PREDICTED BY IDOCK:   -5.24 KCAL/MOL
REMARK 924 INTRA-LIGAND FREE ENERGY PREDICTED BY IDOCK:    0.03 KCAL/MOL
REMARK 927      BINDING AFFINITY PREDICTED BY RF-SCORE:    0.00 PKD
ROOT
HETATM    1  C   UNL     1     -10.464  15.959  66.809  1.00  0.00    -0.309 C  
HETATM    2  C   UNL     1     -10.688  14.442  66.695  1.00  0.00    -0.292 C  
HETATM    3  C   UNL     1      -9.991  13.954  65.395  1.00  0.00    -0.247 C  
HETATM    4  C   UNL     1     -10.157  13.710  67.953  1.00  0.00    -0.244 C  
ENDROOT
BRANCH   4   5
HETATM    5  C   UNL     1     -10.773  14.179  69.257  1.00  0.00    -0.170 A  
HETATM    6  C   UNL     1     -10.342  15.355  69.879  1.00  0.00    -0.298 A  
HETATM    7  C   UNL     1     -10.941  15.806  71.065  1.00  0.00    -0.235 A  
HETATM    8  C   UNL     1     -11.801  13.452  69.868  1.00  0.00    -0.385 A  
HETATM    9  C   UNL     1     -11.999  15.101  71.672  1.00  0.00    -0.432 A  
HETATM   10  C   UNL     1     -12.401  13.908  71.050  1.00  0.00    -0.453 A  
BRANCH   9  11
HETATM   11  C   UNL     1     -12.678  15.645  72.943  1.00  0.00    -0.559 C  
HETATM   12  C   UNL     1     -12.498  14.728  74.175  1.00  0.00    -0.197 C  
HETATM   13  C   UNL     1     -12.096  17.027  73.310  1.00  0.00     0.159 C  
HETATM   14  C   UNL     1     -14.199  15.793  72.712  1.00  0.00    -0.259 C  
ENDBRANCH   9  11
ENDBRANCH   4   5
BRANCH   3  15
HETATM   15  N   UNL     1     -10.151  12.534  65.029  1.00  0.00    -0.265 NA 
HETATM   16  C   UNL     1     -12.787  12.236  63.680  1.00  0.00    -0.426 C  
HETATM   17  C   UNL     1     -11.591  12.861  62.971  1.00  0.00     0.175 C  
HETATM   18  C   UNL     1     -10.259  12.378  63.563  1.00  0.00    -0.305 C  
HETATM   19  C   UNL     1     -11.288  11.860  65.675  1.00  0.00    -0.284 C  
HETATM   20  C   UNL     1     -12.657  12.350  65.196  1.00  0.00    -0.215 C  
ENDBRANCH   3  15
TORSDOF 3
ENDMDL
MODEL       73
REMARK 921   NORMALIZED FREE ENERGY PREDICTED BY IDOCK:   -3.98 KCAL/MOL
REMARK 922        TOTAL FREE ENERGY PREDICTED BY IDOCK:   -5.21 KCAL/MOL
REMARK 923 INTER-LIGAND FREE ENERGY PREDICTED BY IDOCK:   -4.59 KCAL/MOL
REMARK 924 INTRA-LIGAND FREE ENERGY PREDICTED BY IDOCK:   -0.62 KCAL/MOL
REMARK 927      BINDING AFFINITY PREDICTED BY RF-SCORE:    0.00 PKD
ROOT
HETATM    1  C   UNL     1     -10.642  14.435  65.743  1.00  0.00    -0.326 C  
HETATM    2  C   UNL     1     -10.075  13.762  67.005  1.00  0.00    -0.256 C  
HETATM    3  C   UNL     1     -10.279  12.229  66.859  1.00  0.00    -0.213 C  
HETATM    4  C   UNL     1      -8.586  14.137  67.208  1.00  0.00    -0.231 C  
ENDROOT
BRANCH   4   5
HETATM    5  C   UNL     1      -8.323  15.626  67.313  1.00  0.00    -0.209 A  
HETATM    6  C   UNL     1      -7.543  16.292  66.362  1.00  0.00    -0.131 A  
HETATM    7  C   UNL     1      -7.334  17.677  66.440  1.00  0.00    -0.323 A  
HETATM    8  C   UNL     1      -8.867  16.379  68.359  1.00  0.00    -0.214 A  
HETATM    9  C   UNL     1      -7.903  18.452  67.470  1.00  0.00    -0.236 A  
HETATM   10  C   UNL     1      -8.660  17.764  68.433  1.00  0.00    -0.292 A  
BRANCH   9  11
HETATM   11  C   UNL     1      -7.706  19.979  67.504  1.00  0.00    -0.333 C  
HETATM   12  C   UNL     1      -6.837  20.512  66.342  1.00  0.00    -0.301 C  
HETATM   13  C   UNL     1      -9.071  20.695  67.424  1.00  0.00    -0.392 C  
HETATM   14  C   UNL     1      -7.003  20.395  68.817  1.00  0.00    -0.113 C  
ENDBRANCH   9  11
ENDBRANCH   4   5
BRANCH   3  15
HETATM   15  N   UNL     1      -9.890  11.379  68.000  1.00  0.00    -0.179 NA 
HETATM   16  C   UNL     1      -9.455   8.620  66.969  1.00  0.00    -0.221 C  
HETATM   17  C   UNL     1      -8.439   9.733  66.733  1.00  0.00    -0.125 C  
HETATM   18  C   UNL     1      -8.531  10.828  67.806  1.00  0.00    -0.120 C  
HETATM   19  C   UNL     1     -10.824  10.279  68.289  1.00  0.00    -0.255 C  
HETATM   20  C   UNL     1     -10.851   9.185  67.219  1.00  0.00    -0.121 C  
ENDBRANCH   3  15
TORSDOF 3
ENDMDL
MODEL       74
REMARK 921   NORMALIZED FREE ENERGY PREDICTED BY IDOCK:   -3.98 KCAL/MOL
REMARK 922        TOTAL FREE ENERGY PREDICTED BY IDOCK:   -5.20 KCAL/MOL
REMARK 923 INTER-LIGAND FREE ENERGY PREDICTED BY IDOCK:   -4.38 KCAL/MOL
REMARK 924 INTRA-LIGAND FREE ENERGY PREDICTED BY IDOCK:   -0.82 KCAL/MOL
REMARK 927      BINDING AFFINITY PREDICTED BY RF-SCORE:    0.00 PKD
ROOT
HETATM    1  C   UNL     1      -7.149   6.565  67.385  1.00  0.00    -0.080 C  
HETATM    2  C   UNL     1      -7.977   7.305  66.321  1.00  0.00    -0.110 C  
HETATM    3  C   UNL     1      -7.377   6.963  64.929  1.00  0.00    -0.087 C  
HETATM    4  C   UNL     1      -9.474   6.922  66.423  1.00  0.00    -0.170 C  
ENDROOT
BRANCH   4   5
HETATM    5  C   UNL     1     -10.099   7.195  67.777  1.00  0.00    -0.215 A  
HETATM    6  C   UNL     1     -10.103   8.480  68.327  1.00  0.00    -0.225 A  
HETATM    7  C   UNL     1     -10.717   8.737  69.562  1.00  0.00    -0.196 A  
HETATM    8  C   UNL     1     -10.703   6.167  68.509  1.00  0.00    -0.365 A  
HETATM    9  C   UNL     1     -11.357   7.717  70.293  1.00  0.00    -0.197 A  
HETATM   10  C   UNL     1     -11.320   6.426  69.741  1.00  0.00    -0.494 A  
BRANCH   9  11
HETATM   11  C   UNL     1     -12.073   8.032  71.620  1.00  0.00    -0.339 C  
HETATM   12  C   UNL     1     -12.491   9.514  71.755  1.00  0.00    -0.484 C  
HETATM   13  C   UNL     1     -13.352   7.179  71.753  1.00  0.00    -0.347 C  
HETATM   14  C   UNL     1     -11.142   7.719  72.814  1.00  0.00    -0.457 C  
ENDBRANCH   9  11
ENDBRANCH   4   5
BRANCH   3  15
HETATM   15  N   UNL     1      -7.959   7.637  63.753  1.00  0.00    -0.121 NA 
HETATM   16  C   UNL     1      -5.850   9.373  62.568  1.00  0.00    -0.089 C  
HETATM   17  C   UNL     1      -5.836   7.859  62.389  1.00  0.00    -0.069 C  
HETATM   18  C   UNL     1      -7.241   7.254  62.518  1.00  0.00    -0.079 C  
HETATM   19  C   UNL     1      -8.007   9.105  63.852  1.00  0.00    -0.142 C  
HETATM   20  C   UNL     1      -6.632   9.778  63.815  1.00  0.00    -0.119 C  
ENDBRANCH   3  15
TORSDOF 3
ENDMDL
MODEL       75
REMARK 921   NORMALIZED FREE ENERGY PREDICTED BY IDOCK:   -3.91 KCAL/MOL
REMARK 922        TOTAL FREE ENERGY PREDICTED BY IDOCK:   -5.12 KCAL/MOL
REMARK 923 INTER-LIGAND FREE ENERGY PREDICTED BY IDOCK:   -4.38 KCAL/MOL
REMARK 924 INTRA-LIGAND FREE ENERGY PREDICTED BY IDOCK:   -0.74 KCAL/MOL
REMARK 927      BINDING AFFINITY PREDICTED BY RF-SCORE:    0.00 PKD
ROOT
HETATM    1  C   UNL     1      -7.767   7.162  68.256  1.00  0.00    -0.120 C  
HETATM    2  C   UNL     1      -9.144   7.845  68.192  1.00  0.00    -0.133 C  
HETATM    3  C   UNL     1      -9.198   8.686  66.887  1.00  0.00    -0.159 C  
HETATM    4  C   UNL     1     -10.282   6.797  68.260  1.00  0.00    -0.194 C  
ENDROOT
BRANCH   4   5
HETATM    5  C   UNL     1     -10.252   5.918  69.495  1.00  0.00    -0.288 A  
HETATM    6  C   UNL     1      -9.829   4.587  69.425  1.00  0.00    -0.260 A  
HETATM    7  C   UNL     1      -9.765   3.787  70.576  1.00  0.00    -0.230 A  
HETATM    8  C   UNL     1     -10.634   6.420  70.744  1.00  0.00    -0.288 A  
HETATM    9  C   UNL     1     -10.116   4.290  71.844  1.00  0.00    -0.237 A  
HETATM   10  C   UNL     1     -10.565   5.620  71.894  1.00  0.00    -0.287 A  
BRANCH   9  11
HETATM   11  C   UNL     1      -9.984   3.411  73.102  1.00  0.00    -0.202 C  
HETATM   12  C   UNL     1     -10.973   2.222  73.126  1.00  0.00    -0.243 C  
HETATM   13  C   UNL     1      -8.559   2.826  73.198  1.00  0.00    -0.079 C  
HETATM   14  C   UNL     1     -10.263   4.251  74.370  1.00  0.00    -0.273 C  
ENDBRANCH   9  11
ENDBRANCH   4   5
BRANCH   3  15
HETATM   15  N   UNL     1     -10.401   9.508  66.656  1.00  0.00    -0.233 NA 
HETATM   16  C   UNL     1      -9.623  12.364  66.974  1.00  0.00    -0.211 C  
HETATM   17  C   UNL     1      -9.250  11.565  65.730  1.00  0.00    -0.210 C  
HETATM   18  C   UNL     1     -10.215  10.396  65.489  1.00  0.00    -0.246 C  
HETATM   19  C   UNL     1     -10.825  10.310  67.815  1.00  0.00    -0.292 C  
HETATM   20  C   UNL     1      -9.865  11.448  68.171  1.00  0.00    -0.195 C  
ENDBRANCH   3  15
TORSDOF 3
ENDMDL
MODEL       76
REMARK 921   NORMALIZED FREE ENERGY PREDICTED BY IDOCK:   -3.89 KCAL/MOL
REMARK 922        TOTAL FREE ENERGY PREDICTED BY IDOCK:   -5.10 KCAL/MOL
REMARK 923 INTER-LIGAND FREE ENERGY PREDICTED BY IDOCK:   -5.11 KCAL/MOL
REMARK 924 INTRA-LIGAND FREE ENERGY PREDICTED BY IDOCK:    0.01 KCAL/MOL
REMARK 927      BINDING AFFINITY PREDICTED BY RF-SCORE:    0.00 PKD
ROOT
HETATM    1  C   UNL     1     -12.340  10.297  71.396  1.00  0.00    -0.502 C  
HETATM    2  C   UNL     1     -11.721  10.111  70.000  1.00  0.00    -0.294 C  
HETATM    3  C   UNL     1     -11.756  11.485  69.277  1.00  0.00    -0.330 C  
HETATM    4  C   UNL     1     -10.285   9.541  70.105  1.00  0.00    -0.291 C  
ENDROOT
BRANCH   4   5
HETATM    5  C   UNL     1     -10.187   8.220  70.842  1.00  0.00    -0.224 A  
HETATM    6  C   UNL     1     -10.824   7.073  70.358  1.00  0.00    -0.283 A  
HETATM    7  C   UNL     1     -10.700   5.842  71.021  1.00  0.00    -0.331 A  
HETATM    8  C   UNL     1      -9.444   8.108  72.022  1.00  0.00    -0.279 A  
HETATM    9  C   UNL     1      -9.927   5.710  72.191  1.00  0.00    -0.214 A  
HETATM   10  C   UNL     1      -9.317   6.877  72.680  1.00  0.00    -0.155 A  
BRANCH   9  11
HETATM   11  C   UNL     1      -9.759   4.338  72.871  1.00  0.00    -0.172 C  
HETATM   12  C   UNL     1      -8.739   4.349  74.033  1.00  0.00    -0.104 C  
HETATM   13  C   UNL     1     -11.108   3.860  73.447  1.00  0.00    -0.329 C  
HETATM   14  C   UNL     1      -9.260   3.294  71.846  1.00  0.00    -0.180 C  
ENDBRANCH   9  11
ENDBRANCH   4   5
BRANCH   3  15
HETATM   15  N   UNL     1     -11.292  11.530  67.878  1.00  0.00    -0.283 NA 
HETATM   16  C   UNL     1      -9.054  13.487  67.725  1.00  0.00    -0.207 C  
HETATM   17  C   UNL     1      -8.865  12.099  68.328  1.00  0.00    -0.182 C  
HETATM   18  C   UNL     1      -9.884  11.092  67.775  1.00  0.00    -0.173 C  
HETATM   19  C   UNL     1     -11.442  12.840  67.225  1.00  0.00    -0.337 C  
HETATM   20  C   UNL     1     -10.515  13.924  67.783  1.00  0.00    -0.243 C  
ENDBRANCH   3  15
TORSDOF 3
ENDMDL
MODEL       77
REMARK 921   NORMALIZED FREE ENERGY PREDICTED BY IDOCK:   -3.84 KCAL/MOL
REMARK 922        TOTAL FREE ENERGY PREDICTED BY IDOCK:   -5.04 KCAL/MOL
REMARK 923 INTER-LIGAND FREE ENERGY PREDICTED BY IDOCK:   -4.30 KCAL/MOL
REMARK 924 INTRA-LIGAND FREE ENERGY PREDICTED BY IDOCK:   -0.74 KCAL/MOL
REMARK 927      BINDING AFFINITY PREDICTED BY RF-SCORE:    0.00 PKD
ROOT
HETATM    1  C   UNL     1     -10.294   8.665  68.667  1.00  0.00    -0.219 C  
HETATM    2  C   UNL     1      -9.478   8.599  67.364  1.00  0.00    -0.187 C  
HETATM    3  C   UNL     1      -9.439   7.116  66.902  1.00  0.00    -0.159 C  
HETATM    4  C   UNL     1     -10.083   9.532  66.287  1.00  0.00    -0.327 C  
ENDROOT
BRANCH   4   5
HETATM    5  C   UNL     1     -10.185  10.987  66.703  1.00  0.00    -0.280 A  
HETATM    6  C   UNL     1     -11.409  11.546  67.084  1.00  0.00    -0.354 A  
HETATM    7  C   UNL     1     -11.493  12.881  67.506  1.00  0.00    -0.386 A  
HETATM    8  C   UNL     1      -9.052  11.807  66.731  1.00  0.00    -0.194 A  
HETATM    9  C   UNL     1     -10.354  13.708  67.569  1.00  0.00    -0.241 A  
HETATM   10  C   UNL     1      -9.138  13.140  67.157  1.00  0.00    -0.230 A  
BRANCH   9  11
HETATM   11  C   UNL     1     -10.462  15.154  68.088  1.00  0.00    -0.245 C  
HETATM   12  C   UNL     1     -10.447  16.214  66.962  1.00  0.00    -0.306 C  
HETATM   13  C   UNL     1     -11.774  15.342  68.879  1.00  0.00    -0.362 C  
HETATM   14  C   UNL     1      -9.271  15.474  69.021  1.00  0.00    -0.238 C  
ENDBRANCH   9  11
ENDBRANCH   4   5
BRANCH   3  15
HETATM   15  N   UNL     1      -8.629   6.796  65.712  1.00  0.00    -0.150 NA 
HETATM   16  C   UNL     1      -6.814   4.547  66.429  1.00  0.00    -0.058 C  
HETATM   17  C   UNL     1      -8.300   4.325  66.165  1.00  0.00    -0.109 C  
HETATM   18  C   UNL     1      -8.888   5.413  65.255  1.00  0.00    -0.130 C  
HETATM   19  C   UNL     1      -7.180   6.985  65.889  1.00  0.00    -0.074 C  
HETATM   20  C   UNL     1      -6.534   5.986  66.852  1.00  0.00    -0.050 C  
ENDBRANCH   3  15
TORSDOF 3
ENDMDL
MODEL       78
REMARK 921   NORMALIZED FREE ENERGY PREDICTED BY IDOCK:   -3.81 KCAL/MOL
REMARK 922        TOTAL FREE ENERGY PREDICTED BY IDOCK:   -5.01 KCAL/MOL
REMARK 923 INTER-LIGAND FREE ENERGY PREDICTED BY IDOCK:   -4.27 KCAL/MOL
REMARK 924 INTRA-LIGAND FREE ENERGY PREDICTED BY IDOCK:   -0.74 KCAL/MOL
REMARK 927      BINDING AFFINITY PREDICTED BY RF-SCORE:    0.00 PKD
ROOT
HETATM    1  C   UNL     1      -7.154   4.939  67.674  1.00  0.00    -0.062 C  
HETATM    2  C   UNL     1      -8.328   4.226  66.981  1.00  0.00    -0.101 C  
HETATM    3  C   UNL     1      -7.740   3.098  66.089  1.00  0.00    -0.078 C  
HETATM    4  C   UNL     1      -9.336   3.683  68.023  1.00  0.00    -0.237 C  
ENDROOT
BRANCH   4   5
HETATM    5  C   UNL     1      -9.909   4.737  68.950  1.00  0.00    -0.230 A  
HETATM    6  C   UNL     1      -9.894   4.565  70.338  1.00  0.00    -0.302 A  
HETATM    7  C   UNL     1     -10.389   5.560  71.194  1.00  0.00    -0.300 A  
HETATM    8  C   UNL     1     -10.457   5.919  68.441  1.00  0.00    -0.294 A  
HETATM    9  C   UNL     1     -10.914   6.768  70.696  1.00  0.00    -0.313 A  
HETATM   10  C   UNL     1     -10.948   6.913  69.299  1.00  0.00    -0.260 A  
BRANCH   9  11
HETATM   11  C   UNL     1     -11.401   7.869  71.657  1.00  0.00    -0.299 C  
HETATM   12  C   UNL     1     -10.967   9.291  71.232  1.00  0.00    -0.421 C  
HETATM   13  C   UNL     1     -12.942   7.863  71.737  1.00  0.00    -0.351 C  
HETATM   14  C   UNL     1     -10.830   7.629  73.073  1.00  0.00    -0.457 C  
ENDBRANCH   9  11
ENDBRANCH   4   5
BRANCH   3  15
HETATM   15  N   UNL     1      -8.681   2.332  65.252  1.00  0.00    -0.113 NA 
HETATM   16  C   UNL     1      -8.259   3.157  62.423  1.00  0.00    -0.073 C  
HETATM   17  C   UNL     1      -7.280   2.236  63.144  1.00  0.00    -0.041 C  
HETATM   18  C   UNL     1      -7.954   1.473  64.293  1.00  0.00    -0.065 C  
HETATM   19  C   UNL     1      -9.660   3.154  64.522  1.00  0.00    -0.151 C  
HETATM   20  C   UNL     1      -9.048   4.012  63.411  1.00  0.00    -0.124 C  
ENDBRANCH   3  15
TORSDOF 3
ENDMDL
MODEL       79
REMARK 921   NORMALIZED FREE ENERGY PREDICTED BY IDOCK:   -3.81 KCAL/MOL
REMARK 922        TOTAL FREE ENERGY PREDICTED BY IDOCK:   -5.01 KCAL/MOL
REMARK 923 INTER-LIGAND FREE ENERGY PREDICTED BY IDOCK:   -4.26 KCAL/MOL
REMARK 924 INTRA-LIGAND FREE ENERGY PREDICTED BY IDOCK:   -0.75 KCAL/MOL
REMARK 927      BINDING AFFINITY PREDICTED BY RF-SCORE:    0.00 PKD
ROOT
HETATM    1  C   UNL     1      -8.831   9.578  70.075  1.00  0.00    -0.246 C  
HETATM    2  C   UNL     1      -8.571   8.680  68.854  1.00  0.00    -0.130 C  
HETATM    3  C   UNL     1      -8.261   7.249  69.373  1.00  0.00    -0.131 C  
HETATM    4  C   UNL     1      -9.779   8.702  67.885  1.00  0.00    -0.192 C  
ENDROOT
BRANCH   4   5
HETATM    5  C   UNL     1     -10.153  10.082  67.381  1.00  0.00    -0.256 A  
HETATM    6  C   UNL     1     -11.403  10.642  67.665  1.00  0.00    -0.284 A  
HETATM    7  C   UNL     1     -11.732  11.935  67.230  1.00  0.00    -0.319 A  
HETATM    8  C   UNL     1      -9.251  10.841  66.628  1.00  0.00    -0.184 A  
HETATM    9  C   UNL     1     -10.820  12.721  66.500  1.00  0.00    -0.280 A  
HETATM   10  C   UNL     1      -9.580  12.134  66.198  1.00  0.00    -0.250 A  
BRANCH   9  11
HETATM   11  C   UNL     1     -11.181  14.159  66.081  1.00  0.00    -0.326 C  
HETATM   12  C   UNL     1     -10.086  14.845  65.231  1.00  0.00    -0.380 C  
HETATM   13  C   UNL     1     -12.480  14.161  65.247  1.00  0.00    -0.474 C  
HETATM   14  C   UNL     1     -11.395  15.040  67.333  1.00  0.00    -0.338 C  
ENDBRANCH   9  11
ENDBRANCH   4   5
BRANCH   3  15
HETATM   15  N   UNL     1      -7.888   6.229  68.375  1.00  0.00    -0.103 NA 
HETATM   16  C   UNL     1      -7.419   3.671  69.824  1.00  0.00    -0.045 C  
HETATM   17  C   UNL     1      -8.826   4.204  69.573  1.00  0.00    -0.139 C  
HETATM   18  C   UNL     1      -8.877   5.130  68.350  1.00  0.00    -0.101 C  
HETATM   19  C   UNL     1      -6.540   5.666  68.551  1.00  0.00    -0.052 C  
HETATM   20  C   UNL     1      -6.386   4.795  69.801  1.00  0.00    -0.030 C  
ENDBRANCH   3  15
TORSDOF 3
ENDMDL
MODEL       80
REMARK 921   NORMALIZED FREE ENERGY PREDICTED BY IDOCK:   -3.80 KCAL/MOL
REMARK 922        TOTAL FREE ENERGY PREDICTED BY IDOCK:   -5.00 KCAL/MOL
REMARK 923 INTER-LIGAND FREE ENERGY PREDICTED BY IDOCK:   -4.47 KCAL/MOL
REMARK 924 INTRA-LIGAND FREE ENERGY PREDICTED BY IDOCK:   -0.53 KCAL/MOL
REMARK 927      BINDING AFFINITY PREDICTED BY RF-SCORE:    0.00 PKD
ROOT
HETATM    1  C   UNL     1      -7.915   9.746  70.086  1.00  0.00    -0.201 C  
HETATM    2  C   UNL     1      -8.558   8.754  69.101  1.00  0.00    -0.128 C  
HETATM    3  C   UNL     1      -8.369   7.323  69.676  1.00  0.00    -0.132 C  
HETATM    4  C   UNL     1     -10.050   9.098  68.868  1.00  0.00    -0.209 C  
ENDROOT
BRANCH   4   5
HETATM    5  C   UNL     1     -10.296  10.501  68.348  1.00  0.00    -0.199 A  
HETATM    6  C   UNL     1      -9.742  10.932  67.139  1.00  0.00    -0.199 A  
HETATM    7  C   UNL     1     -10.003  12.217  66.641  1.00  0.00    -0.229 A  
HETATM    8  C   UNL     1     -11.096  11.400  69.060  1.00  0.00    -0.300 A  
HETATM    9  C   UNL     1     -10.834  13.120  67.332  1.00  0.00    -0.269 A  
HETATM   10  C   UNL     1     -11.360  12.683  68.559  1.00  0.00    -0.333 A  
BRANCH   9  11
HETATM   11  C   UNL     1     -11.152  14.506  66.740  1.00  0.00    -0.325 C  
HETATM   12  C   UNL     1     -11.371  15.597  67.814  1.00  0.00    -0.261 C  
HETATM   13  C   UNL     1      -9.994  14.978  65.834  1.00  0.00    -0.353 C  
HETATM   14  C   UNL     1     -12.446  14.441  65.897  1.00  0.00    -0.319 C  
ENDBRANCH   9  11
ENDBRANCH   4   5
BRANCH   3  15
HETATM   15  N   UNL     1      -8.831   6.192  68.850  1.00  0.00    -0.122 NA 
HETATM   16  C   UNL     1      -9.601   3.981  70.689  1.00  0.00    -0.260 C  
HETATM   17  C   UNL     1     -10.486   5.207  70.495  1.00  0.00    -0.278 C  
HETATM   18  C   UNL     1     -10.247   5.876  69.134  1.00  0.00    -0.215 C  
HETATM   19  C   UNL     1      -8.024   4.968  68.983  1.00  0.00    -0.080 C  
HETATM   20  C   UNL     1      -8.145   4.287  70.349  1.00  0.00    -0.059 C  
ENDBRANCH   3  15
TORSDOF 3
ENDMDL
MODEL       81
REMARK 921   NORMALIZED FREE ENERGY PREDICTED BY IDOCK:   -3.73 KCAL/MOL
REMARK 922        TOTAL FREE ENERGY PREDICTED BY IDOCK:   -4.91 KCAL/MOL
REMARK 923 INTER-LIGAND FREE ENERGY PREDICTED BY IDOCK:   -4.12 KCAL/MOL
REMARK 924 INTRA-LIGAND FREE ENERGY PREDICTED BY IDOCK:   -0.79 KCAL/MOL
REMARK 927      BINDING AFFINITY PREDICTED BY RF-SCORE:    0.00 PKD
ROOT
HETATM    1  C   UNL     1     -10.812   6.993  67.139  1.00  0.00    -0.427 C  
HETATM    2  C   UNL     1      -9.823   6.886  68.312  1.00  0.00    -0.141 C  
HETATM    3  C   UNL     1      -9.173   5.476  68.260  1.00  0.00    -0.109 C  
HETATM    4  C   UNL     1      -8.769   8.018  68.250  1.00  0.00    -0.130 C  
ENDROOT
BRANCH   4   5
HETATM    5  C   UNL     1      -9.352   9.418  68.255  1.00  0.00    -0.140 A  
HETATM    6  C   UNL     1      -8.997  10.353  67.277  1.00  0.00    -0.142 A  
HETATM    7  C   UNL     1      -9.568  11.634  67.261  1.00  0.00    -0.182 A  
HETATM    8  C   UNL     1     -10.274   9.809  69.232  1.00  0.00    -0.216 A  
HETATM    9  C   UNL     1     -10.521  12.029  68.219  1.00  0.00    -0.218 A  
HETATM   10  C   UNL     1     -10.846  11.089  69.211  1.00  0.00    -0.285 A  
BRANCH   9  11
HETATM   11  C   UNL     1     -11.176  13.421  68.149  1.00  0.00    -0.304 C  
HETATM   12  C   UNL     1     -12.112  13.721  69.343  1.00  0.00    -0.377 C  
HETATM   13  C   UNL     1     -10.092  14.520  68.128  1.00  0.00    -0.227 C  
HETATM   14  C   UNL     1     -12.031  13.543  66.868  1.00  0.00    -0.447 C  
ENDBRANCH   9  11
ENDBRANCH   4   5
BRANCH   3  15
HETATM   15  N   UNL     1      -8.250   5.111  69.350  1.00  0.00    -0.086 NA 
HETATM   16  C   UNL     1      -9.213   2.557  70.539  1.00  0.00    -0.197 C  
HETATM   17  C   UNL     1      -8.496   2.595  69.194  1.00  0.00    -0.098 C  
HETATM   18  C   UNL     1      -7.583   3.822  69.066  1.00  0.00    -0.053 C  
HETATM   19  C   UNL     1      -8.870   5.054  70.683  1.00  0.00    -0.126 C  
HETATM   20  C   UNL     1      -9.862   3.901  70.861  1.00  0.00    -0.213 C  
ENDBRANCH   3  15
TORSDOF 3
ENDMDL
MODEL       82
REMARK 921   NORMALIZED FREE ENERGY PREDICTED BY IDOCK:   -3.68 KCAL/MOL
REMARK 922        TOTAL FREE ENERGY PREDICTED BY IDOCK:   -4.85 KCAL/MOL
REMARK 923 INTER-LIGAND FREE ENERGY PREDICTED BY IDOCK:   -5.74 KCAL/MOL
REMARK 924 INTRA-LIGAND FREE ENERGY PREDICTED BY IDOCK:    0.89 KCAL/MOL
REMARK 927      BINDING AFFINITY PREDICTED BY RF-SCORE:    0.00 PKD
ROOT
HETATM    1  C   UNL     1     -11.971  13.863  69.508  1.00  0.00    -0.396 C  
HETATM    2  C   UNL     1     -11.374  13.345  68.188  1.00  0.00    -0.321 C  
HETATM    3  C   UNL     1     -11.004  14.577  67.317  1.00  0.00    -0.305 C  
HETATM    4  C   UNL     1     -10.153  12.431  68.456  1.00  0.00    -0.190 C  
ENDROOT
BRANCH   4   5
HETATM    5  C   UNL     1     -10.448  11.234  69.339  1.00  0.00    -0.089 A  
HETATM    6  C   UNL     1      -9.442  10.331  69.695  1.00  0.00    -0.180 A  
HETATM    7  C   UNL     1      -9.710   9.246  70.543  1.00  0.00    -0.316 A  
HETATM    8  C   UNL     1     -11.737  11.007  69.834  1.00  0.00    -0.424 A  
HETATM    9  C   UNL     1     -10.995   9.027  71.075  1.00  0.00    -0.352 A  
HETATM   10  C   UNL     1     -12.002   9.926  70.686  1.00  0.00    -0.361 A  
BRANCH   9  11
HETATM   11  C   UNL     1     -11.254   7.862  72.049  1.00  0.00    -0.339 C  
HETATM   12  C   UNL     1     -10.381   7.922  73.324  1.00  0.00    -0.280 C  
HETATM   13  C   UNL     1     -12.729   7.861  72.501  1.00  0.00    -0.020 C  
HETATM   14  C   UNL     1     -10.946   6.513  71.359  1.00  0.00    -0.303 C  
ENDBRANCH   9  11
ENDBRANCH   4   5
BRANCH   3  15
HETATM   15  N   UNL     1     -10.493  14.321  65.958  1.00  0.00    -0.291 NA 
HETATM   16  C   UNL     1     -12.658  12.984  64.412  1.00  0.00    -0.356 C  
HETATM   17  C   UNL     1     -12.697  14.477  64.718  1.00  0.00    -0.099 C  
HETATM   18  C   UNL     1     -11.291  15.051  64.949  1.00  0.00    -0.417 C  
HETATM   19  C   UNL     1     -10.426  12.898  65.588  1.00  0.00    -0.277 C  
HETATM   20  C   UNL     1     -11.794  12.232  65.421  1.00  0.00    -0.418 C  
ENDBRANCH   3  15
TORSDOF 3
ENDMDL
MODEL       83
REMARK 921   NORMALIZED FREE ENERGY PREDICTED BY IDOCK:   -3.66 KCAL/MOL
REMARK 922        TOTAL FREE ENERGY PREDICTED BY IDOCK:   -4.83 KCAL/MOL
REMARK 923 INTER-LIGAND FREE ENERGY PREDICTED BY IDOCK:   -4.32 KCAL/MOL
REMARK 924 INTRA-LIGAND FREE ENERGY PREDICTED BY IDOCK:   -0.51 KCAL/MOL
REMARK 927      BINDING AFFINITY PREDICTED BY RF-SCORE:    0.00 PKD
ROOT
HETATM    1  C   UNL     1     -10.440   9.152  66.724  1.00  0.00    -0.266 C  
HETATM    2  C   UNL     1      -9.785   8.963  68.102  1.00  0.00    -0.180 C  
HETATM    3  C   UNL     1      -9.284   7.495  68.194  1.00  0.00    -0.137 C  
HETATM    4  C   UNL     1      -8.642   9.986  68.315  1.00  0.00    -0.115 C  
ENDROOT
BRANCH   4   5
HETATM    5  C   UNL     1      -9.068  11.436  68.193  1.00  0.00    -0.174 A  
HETATM    6  C   UNL     1     -10.215  11.909  68.837  1.00  0.00    -0.095 A  
HETATM    7  C   UNL     1     -10.585  13.260  68.754  1.00  0.00    -0.224 A  
HETATM    8  C   UNL     1      -8.315  12.345  67.441  1.00  0.00    -0.180 A  
HETATM    9  C   UNL     1      -9.817  14.192  68.028  1.00  0.00    -0.223 A  
HETATM   10  C   UNL     1      -8.684  13.695  67.364  1.00  0.00    -0.214 A  
BRANCH   9  11
HETATM   11  C   UNL     1     -10.212  15.680  67.997  1.00  0.00    -0.227 C  
HETATM   12  C   UNL     1      -9.229  16.592  68.767  1.00  0.00    -0.253 C  
HETATM   13  C   UNL     1     -10.265  16.188  66.540  1.00  0.00    -0.304 C  
HETATM   14  C   UNL     1     -11.604  15.875  68.641  1.00  0.00    -0.383 C  
ENDBRANCH   9  11
ENDBRANCH   4   5
BRANCH   3  15
HETATM   15  N   UNL     1      -8.696   7.055  69.473  1.00  0.00    -0.134 NA 
HETATM   16  C   UNL     1     -10.875   5.851  71.105  1.00  0.00    -0.334 C  
HETATM   17  C   UNL     1     -10.255   5.110  69.925  1.00  0.00    -0.361 C  
HETATM   18  C   UNL     1      -8.826   5.591  69.635  1.00  0.00    -0.111 C  
HETATM   19  C   UNL     1      -9.245   7.726  70.661  1.00  0.00    -0.161 C  
HETATM   20  C   UNL     1     -10.700   7.361  70.968  1.00  0.00    -0.244 C  
ENDBRANCH   3  15
TORSDOF 3
ENDMDL
MODEL       84
REMARK 921   NORMALIZED FREE ENERGY PREDICTED BY IDOCK:   -3.60 KCAL/MOL
REMARK 922        TOTAL FREE ENERGY PREDICTED BY IDOCK:   -4.76 KCAL/MOL
REMARK 923 INTER-LIGAND FREE ENERGY PREDICTED BY IDOCK:   -4.09 KCAL/MOL
REMARK 924 INTRA-LIGAND FREE ENERGY PREDICTED BY IDOCK:   -0.67 KCAL/MOL
REMARK 927      BINDING AFFINITY PREDICTED BY RF-SCORE:    0.00 PKD
ROOT
HETATM    1  C   UNL     1      -8.750   7.490  65.719  1.00  0.00    -0.142 C  
HETATM    2  C   UNL     1      -8.711   5.969  65.939  1.00  0.00    -0.157 C  
HETATM    3  C   UNL     1      -7.748   5.358  64.884  1.00  0.00    -0.088 C  
HETATM    4  C   UNL     1      -8.280   5.632  67.388  1.00  0.00    -0.101 C  
ENDROOT
BRANCH   4   5
HETATM    5  C   UNL     1      -9.162   6.240  68.462  1.00  0.00    -0.123 A  
HETATM    6  C   UNL     1      -8.772   7.392  69.152  1.00  0.00    -0.136 A  
HETATM    7  C   UNL     1      -9.607   7.974  70.117  1.00  0.00    -0.175 A  
HETATM    8  C   UNL     1     -10.399   5.671  68.782  1.00  0.00    -0.288 A  
HETATM    9  C   UNL     1     -10.869   7.429  70.425  1.00  0.00    -0.258 A  
HETATM   10  C   UNL     1     -11.234   6.257  69.744  1.00  0.00    -0.499 A  
BRANCH   9  11
HETATM   11  C   UNL     1     -11.793   8.117  71.448  1.00  0.00    -0.329 C  
HETATM   12  C   UNL     1     -13.237   7.563  71.441  1.00  0.00    -0.368 C  
HETATM   13  C   UNL     1     -11.237   7.935  72.876  1.00  0.00    -0.429 C  
HETATM   14  C   UNL     1     -11.892   9.629  71.143  1.00  0.00    -0.448 C  
ENDBRANCH   9  11
ENDBRANCH   4   5
BRANCH   3  15
HETATM   15  N   UNL     1      -7.622   3.890  64.846  1.00  0.00    -0.076 NA 
HETATM   16  C   UNL     1      -9.101   2.914  62.453  1.00  0.00    -0.080 C  
HETATM   17  C   UNL     1      -7.740   3.591  62.334  1.00  0.00    -0.058 C  
HETATM   18  C   UNL     1      -6.917   3.453  63.622  1.00  0.00    -0.048 C  
HETATM   19  C   UNL     1      -8.897   3.164  64.957  1.00  0.00    -0.126 C  
HETATM   20  C   UNL     1      -9.813   3.322  63.740  1.00  0.00    -0.154 C  
ENDBRANCH   3  15
TORSDOF 3
ENDMDL
MODEL       85
REMARK 921   NORMALIZED FREE ENERGY PREDICTED BY IDOCK:   -3.59 KCAL/MOL
REMARK 922        TOTAL FREE ENERGY PREDICTED BY IDOCK:   -4.75 KCAL/MOL
REMARK 923 INTER-LIGAND FREE ENERGY PREDICTED BY IDOCK:   -4.03 KCAL/MOL
REMARK 924 INTRA-LIGAND FREE ENERGY PREDICTED BY IDOCK:   -0.73 KCAL/MOL
REMARK 927      BINDING AFFINITY PREDICTED BY RF-SCORE:    0.00 PKD
ROOT
HETATM    1  C   UNL     1      -7.721  10.970  68.386  1.00  0.00    -0.119 C  
HETATM    2  C   UNL     1      -9.150  10.468  68.118  1.00  0.00    -0.141 C  
HETATM    3  C   UNL     1      -9.286   9.057  68.753  1.00  0.00    -0.133 C  
HETATM    4  C   UNL     1     -10.198  11.464  68.674  1.00  0.00    -0.217 C  
ENDROOT
BRANCH   4   5
HETATM    5  C   UNL     1     -10.083  12.870  68.119  1.00  0.00    -0.240 A  
HETATM    6  C   UNL     1     -10.088  13.984  68.963  1.00  0.00    -0.066 A  
HETATM    7  C   UNL     1      -9.942  15.282  68.450  1.00  0.00    -0.220 A  
HETATM    8  C   UNL     1      -9.954  13.091  66.743  1.00  0.00    -0.245 A  
HETATM    9  C   UNL     1      -9.779  15.515  67.070  1.00  0.00    -0.230 A  
HETATM   10  C   UNL     1      -9.804  14.388  66.232  1.00  0.00    -0.321 A  
BRANCH   9  11
HETATM   11  C   UNL     1      -9.565  16.943  66.535  1.00  0.00    -0.295 C  
HETATM   12  C   UNL     1      -9.797  18.039  67.600  1.00  0.00    -0.305 C  
HETATM   13  C   UNL     1      -8.122  17.107  66.013  1.00  0.00    -0.183 C  
HETATM   14  C   UNL     1     -10.547  17.229  65.376  1.00  0.00    -0.083 C  
ENDBRANCH   9  11
ENDBRANCH   4   5
BRANCH   3  15
HETATM   15  N   UNL     1     -10.554   8.335  68.543  1.00  0.00    -0.151 NA 
HETATM   16  C   UNL     1      -9.908   5.451  68.184  1.00  0.00    -0.188 C  
HETATM   17  C   UNL     1      -9.869   6.117  69.556  1.00  0.00    -0.193 C  
HETATM   18  C   UNL     1     -10.784   7.348  69.620  1.00  0.00    -0.235 C  
HETATM   19  C   UNL     1     -10.667   7.665  67.238  1.00  0.00    -0.274 C  
HETATM   20  C   UNL     1      -9.721   6.473  67.065  1.00  0.00    -0.188 C  
ENDBRANCH   3  15
TORSDOF 3
ENDMDL
MODEL       86
REMARK 921   NORMALIZED FREE ENERGY PREDICTED BY IDOCK:   -3.59 KCAL/MOL
REMARK 922        TOTAL FREE ENERGY PREDICTED BY IDOCK:   -4.74 KCAL/MOL
REMARK 923 INTER-LIGAND FREE ENERGY PREDICTED BY IDOCK:   -4.14 KCAL/MOL
REMARK 924 INTRA-LIGAND FREE ENERGY PREDICTED BY IDOCK:   -0.60 KCAL/MOL
REMARK 927      BINDING AFFINITY PREDICTED BY RF-SCORE:    0.00 PKD
ROOT
HETATM    1  C   UNL     1      -9.885  10.775  66.104  1.00  0.00    -0.269 C  
HETATM    2  C   UNL     1      -8.745   9.747  66.197  1.00  0.00    -0.150 C  
HETATM    3  C   UNL     1      -7.649  10.158  65.176  1.00  0.00    -0.141 C  
HETATM    4  C   UNL     1      -8.196   9.662  67.643  1.00  0.00    -0.114 C  
ENDROOT
BRANCH   4   5
HETATM    5  C   UNL     1      -9.235   9.306  68.688  1.00  0.00    -0.135 A  
HETATM    6  C   UNL     1      -9.752   8.010  68.783  1.00  0.00    -0.157 A  
HETATM    7  C   UNL     1     -10.684   7.674  69.776  1.00  0.00    -0.243 A  
HETATM    8  C   UNL     1      -9.697  10.264  69.597  1.00  0.00    -0.216 A  
HETATM    9  C   UNL     1     -11.132   8.621  70.717  1.00  0.00    -0.295 A  
HETATM   10  C   UNL     1     -10.625   9.925  70.591  1.00  0.00    -0.341 A  
BRANCH   9  11
HETATM   11  C   UNL     1     -12.113   8.216  71.833  1.00  0.00    -0.368 C  
HETATM   12  C   UNL     1     -13.089   7.092  71.414  1.00  0.00    -0.408 C  
HETATM   13  C   UNL     1     -11.339   7.715  73.070  1.00  0.00    -0.334 C  
HETATM   14  C   UNL     1     -12.978   9.429  72.247  1.00  0.00    -0.479 C  
ENDBRANCH   9  11
ENDBRANCH   4   5
BRANCH   3  15
HETATM   15  N   UNL     1      -6.489   9.260  65.024  1.00  0.00    -0.069 NA 
HETATM   16  C   UNL     1      -7.003   7.504  62.675  1.00  0.00    -0.072 C  
HETATM   17  C   UNL     1      -6.599   8.966  62.511  1.00  0.00    -0.094 C  
HETATM   18  C   UNL     1      -5.817   9.483  63.726  1.00  0.00    -0.092 C  
HETATM   19  C   UNL     1      -6.801   7.829  65.170  1.00  0.00    -0.051 C  
HETATM   20  C   UNL     1      -7.653   7.257  64.034  1.00  0.00    -0.110 C  
ENDBRANCH   3  15
TORSDOF 3
ENDMDL
MODEL       87
REMARK 921   NORMALIZED FREE ENERGY PREDICTED BY IDOCK:   -3.56 KCAL/MOL
REMARK 922        TOTAL FREE ENERGY PREDICTED BY IDOCK:   -4.71 KCAL/MOL
REMARK 923 INTER-LIGAND FREE ENERGY PREDICTED BY IDOCK:   -4.45 KCAL/MOL
REMARK 924 INTRA-LIGAND FREE ENERGY PREDICTED BY IDOCK:   -0.26 KCAL/MOL
REMARK 927      BINDING AFFINITY PREDICTED BY RF-SCORE:    0.00 PKD
ROOT
HETATM    1  C   UNL     1      -9.435   3.354  67.620  1.00  0.00    -0.231 C  
HETATM    2  C   UNL     1      -9.379   4.234  66.360  1.00  0.00    -0.170 C  
HETATM    3  C   UNL     1      -9.431   3.298  65.122  1.00  0.00    -0.139 C  
HETATM    4  C   UNL     1     -10.530   5.270  66.360  1.00  0.00    -0.347 C  
ENDROOT
BRANCH   4   5
HETATM    5  C   UNL     1     -10.553   6.183  67.570  1.00  0.00    -0.344 A  
HETATM    6  C   UNL     1     -10.287   7.550  67.450  1.00  0.00    -0.346 A  
HETATM    7  C   UNL     1     -10.347   8.399  68.565  1.00  0.00    -0.232 A  
HETATM    8  C   UNL     1     -10.853   5.683  68.842  1.00  0.00    -0.229 A  
HETATM    9  C   UNL     1     -10.681   7.914  69.844  1.00  0.00    -0.244 A  
HETATM   10  C   UNL     1     -10.917   6.534  69.954  1.00  0.00    -0.393 A  
BRANCH   9  11
HETATM   11  C   UNL     1     -10.795   8.873  71.043  1.00  0.00    -0.326 C  
HETATM   12  C   UNL     1      -9.696   8.657  72.109  1.00  0.00    -0.383 C  
HETATM   13  C   UNL     1     -10.693  10.338  70.567  1.00  0.00    -0.212 C  
HETATM   14  C   UNL     1     -12.154   8.677  71.755  1.00  0.00    -0.403 C  
ENDBRANCH   9  11
ENDBRANCH   4   5
BRANCH   3  15
HETATM   15  N   UNL     1      -9.299   3.921  63.792  1.00  0.00    -0.138 NA 
HETATM   16  C   UNL     1      -6.773   2.924  62.571  1.00  0.00    -0.023 C  
HETATM   17  C   UNL     1      -8.021   2.052  62.654  1.00  0.00    -0.059 C  
HETATM   18  C   UNL     1      -9.303   2.894  62.727  1.00  0.00    -0.093 C  
HETATM   19  C   UNL     1      -8.115   4.779  63.633  1.00  0.00    -0.101 C  
HETATM   20  C   UNL     1      -6.787   4.017  63.636  1.00  0.00    -0.044 C  
ENDBRANCH   3  15
TORSDOF 3
ENDMDL
MODEL       88
REMARK 921   NORMALIZED FREE ENERGY PREDICTED BY IDOCK:   -3.55 KCAL/MOL
REMARK 922        TOTAL FREE ENERGY PREDICTED BY IDOCK:   -4.70 KCAL/MOL
REMARK 923 INTER-LIGAND FREE ENERGY PREDICTED BY IDOCK:   -3.95 KCAL/MOL
REMARK 924 INTRA-LIGAND FREE ENERGY PREDICTED BY IDOCK:   -0.74 KCAL/MOL
REMARK 927      BINDING AFFINITY PREDICTED BY RF-SCORE:    0.00 PKD
ROOT
HETATM    1  C   UNL     1      -8.325   8.297  67.115  1.00  0.00    -0.123 C  
HETATM    2  C   UNL     1      -9.215   9.200  67.985  1.00  0.00    -0.142 C  
HETATM    3  C   UNL     1      -9.613  10.438  67.135  1.00  0.00    -0.164 C  
HETATM    4  C   UNL     1     -10.451   8.423  68.502  1.00  0.00    -0.201 C  
ENDROOT
BRANCH   4   5
HETATM    5  C   UNL     1     -10.120   7.179  69.302  1.00  0.00    -0.178 A  
HETATM    6  C   UNL     1     -10.595   5.922  68.915  1.00  0.00    -0.357 A  
HETATM    7  C   UNL     1     -10.255   4.767  69.636  1.00  0.00    -0.200 A  
HETATM    8  C   UNL     1      -9.318   7.253  70.446  1.00  0.00    -0.158 A  
HETATM    9  C   UNL     1      -9.421   4.825  70.769  1.00  0.00    -0.228 A  
HETATM   10  C   UNL     1      -8.976   6.098  71.162  1.00  0.00    -0.144 A  
BRANCH   9  11
HETATM   11  C   UNL     1      -9.016   3.538  71.512  1.00  0.00    -0.158 C  
HETATM   12  C   UNL     1      -8.651   2.371  70.565  1.00  0.00    -0.101 C  
HETATM   13  C   UNL     1      -7.788   3.803  72.409  1.00  0.00    -0.069 C  
HETATM   14  C   UNL     1     -10.182   3.047  72.401  1.00  0.00    -0.200 C  
ENDBRANCH   9  11
ENDBRANCH   4   5
BRANCH   3  15
HETATM   15  N   UNL     1     -10.399  11.495  67.799  1.00  0.00    -0.179 NA 
HETATM   16  C   UNL     1     -10.903  13.642  65.798  1.00  0.00    -0.274 C  
HETATM   17  C   UNL     1     -11.665  12.321  65.766  1.00  0.00    -0.445 C  
HETATM   18  C   UNL     1     -11.717  11.657  67.149  1.00  0.00    -0.133 C  
HETATM   19  C   UNL     1      -9.728  12.803  67.869  1.00  0.00    -0.217 C  
HETATM   20  C   UNL     1      -9.562  13.492  66.512  1.00  0.00    -0.284 C  
ENDBRANCH   3  15
TORSDOF 3
ENDMDL
MODEL       89
REMARK 921   NORMALIZED FREE ENERGY PREDICTED BY IDOCK:   -3.54 KCAL/MOL
REMARK 922        TOTAL FREE ENERGY PREDICTED BY IDOCK:   -4.69 KCAL/MOL
REMARK 923 INTER-LIGAND FREE ENERGY PREDICTED BY IDOCK:   -4.38 KCAL/MOL
REMARK 924 INTRA-LIGAND FREE ENERGY PREDICTED BY IDOCK:   -0.30 KCAL/MOL
REMARK 927      BINDING AFFINITY PREDICTED BY RF-SCORE:    0.00 PKD
ROOT
HETATM    1  C   UNL     1      -6.321  16.690  68.984  1.00  0.00    -0.183 C  
HETATM    2  C   UNL     1      -7.466  16.631  67.958  1.00  0.00    -0.170 C  
HETATM    3  C   UNL     1      -7.493  17.986  67.197  1.00  0.00    -0.204 C  
HETATM    4  C   UNL     1      -7.288  15.427  67.002  1.00  0.00    -0.127 C  
ENDROOT
BRANCH   4   5
HETATM    5  C   UNL     1      -7.211  14.081  67.697  1.00  0.00    -0.190 A  
HETATM    6  C   UNL     1      -8.338  13.261  67.812  1.00  0.00    -0.171 A  
HETATM    7  C   UNL     1      -8.255  11.999  68.420  1.00  0.00    -0.151 A  
HETATM    8  C   UNL     1      -6.005  13.617  68.232  1.00  0.00    -0.106 A  
HETATM    9  C   UNL     1      -7.039  11.507  68.933  1.00  0.00    -0.111 A  
HETATM   10  C   UNL     1      -5.923  12.354  68.836  1.00  0.00    -0.070 A  
BRANCH   9  11
HETATM   11  C   UNL     1      -6.960  10.097  69.547  1.00  0.00    -0.086 C  
HETATM   12  C   UNL     1      -6.432   9.027  68.563  1.00  0.00    -0.054 C  
HETATM   13  C   UNL     1      -6.019  10.099  70.771  1.00  0.00    -0.093 C  
HETATM   14  C   UNL     1      -8.363   9.634  70.002  1.00  0.00    -0.197 C  
ENDBRANCH   9  11
ENDBRANCH   4   5
BRANCH   3  15
HETATM   15  N   UNL     1      -8.575  18.194  66.218  1.00  0.00    -0.448 NA 
HETATM   16  C   UNL     1     -10.744  19.719  67.573  1.00  0.00    -0.494 C  
HETATM   17  C   UNL     1      -9.451  20.392  67.123  1.00  0.00    -0.567 C  
HETATM   18  C   UNL     1      -8.786  19.636  65.965  1.00  0.00    -0.240 C  
HETATM   19  C   UNL     1      -9.858  17.573  66.582  1.00  0.00    -0.306 C  
HETATM   20  C   UNL     1     -10.545  18.221  67.787  1.00  0.00    -0.415 C  
ENDBRANCH   3  15
TORSDOF 3
ENDMDL
MODEL       90
REMARK 921   NORMALIZED FREE ENERGY PREDICTED BY IDOCK:   -3.53 KCAL/MOL
REMARK 922        TOTAL FREE ENERGY PREDICTED BY IDOCK:   -4.68 KCAL/MOL
REMARK 923 INTER-LIGAND FREE ENERGY PREDICTED BY IDOCK:   -3.89 KCAL/MOL
REMARK 924 INTRA-LIGAND FREE ENERGY PREDICTED BY IDOCK:   -0.79 KCAL/MOL
REMARK 927      BINDING AFFINITY PREDICTED BY RF-SCORE:    0.00 PKD
ROOT
HETATM    1  C   UNL     1      -7.881  10.909  66.399  1.00  0.00    -0.154 C  
HETATM    2  C   UNL     1      -9.409  10.903  66.573  1.00  0.00    -0.195 C  
HETATM    3  C   UNL     1     -10.006  11.932  65.573  1.00  0.00    -0.238 C  
HETATM    4  C   UNL     1      -9.983   9.481  66.361  1.00  0.00    -0.339 C  
ENDROOT
BRANCH   4   5
HETATM    5  C   UNL     1      -9.402   8.427  67.283  1.00  0.00    -0.181 A  
HETATM    6  C   UNL     1      -9.367   8.617  68.668  1.00  0.00    -0.142 A  
HETATM    7  C   UNL     1      -8.864   7.623  69.522  1.00  0.00    -0.139 A  
HETATM    8  C   UNL     1      -8.896   7.226  66.773  1.00  0.00    -0.143 A  
HETATM    9  C   UNL     1      -8.383   6.397  69.023  1.00  0.00    -0.118 A  
HETATM   10  C   UNL     1      -8.399   6.233  67.628  1.00  0.00    -0.117 A  
BRANCH   9  11
HETATM   11  C   UNL     1      -7.888   5.299  69.983  1.00  0.00    -0.080 C  
HETATM   12  C   UNL     1      -6.581   4.618  69.515  1.00  0.00    -0.036 C  
HETATM   13  C   UNL     1      -7.621   5.894  71.382  1.00  0.00    -0.098 C  
HETATM   14  C   UNL     1      -8.952   4.186  70.112  1.00  0.00    -0.150 C  
ENDBRANCH   9  11
ENDBRANCH   4   5
BRANCH   3  15
HETATM   15  N   UNL     1     -11.461  12.165  65.623  1.00  0.00    -0.359 NA 
HETATM   16  C   UNL     1     -11.899  15.017  66.356  1.00  0.00    -0.039 C  
HETATM   17  C   UNL     1     -11.450  14.608  64.957  1.00  0.00    -0.386 C  
HETATM   18  C   UNL     1     -11.868  13.170  64.618  1.00  0.00    -0.370 C  
HETATM   19  C   UNL     1     -11.971  12.563  66.944  1.00  0.00    -0.236 C  
HETATM   20  C   UNL     1     -11.525  13.958  67.390  1.00  0.00    -0.374 C  
ENDBRANCH   3  15
TORSDOF 3
ENDMDL
MODEL       91
REMARK 921   NORMALIZED FREE ENERGY PREDICTED BY IDOCK:   -3.51 KCAL/MOL
REMARK 922        TOTAL FREE ENERGY PREDICTED BY IDOCK:   -4.65 KCAL/MOL
REMARK 923 INTER-LIGAND FREE ENERGY PREDICTED BY IDOCK:   -3.91 KCAL/MOL
REMARK 924 INTRA-LIGAND FREE ENERGY PREDICTED BY IDOCK:   -0.74 KCAL/MOL
REMARK 927      BINDING AFFINITY PREDICTED BY RF-SCORE:    0.00 PKD
ROOT
HETATM    1  C   UNL     1      -7.904   8.477  64.672  1.00  0.00    -0.131 C  
HETATM    2  C   UNL     1      -8.908   7.802  65.621  1.00  0.00    -0.102 C  
HETATM    3  C   UNL     1      -8.543   6.295  65.707  1.00  0.00    -0.150 C  
HETATM    4  C   UNL     1      -8.899   8.486  67.011  1.00  0.00    -0.144 C  
ENDROOT
BRANCH   4   5
HETATM    5  C   UNL     1      -9.207   9.971  66.981  1.00  0.00    -0.167 A  
HETATM    6  C   UNL     1     -10.468  10.441  66.603  1.00  0.00    -0.279 A  
HETATM    7  C   UNL     1     -10.761  11.813  66.614  1.00  0.00    -0.300 A  
HETATM    8  C   UNL     1      -8.237  10.912  67.343  1.00  0.00    -0.117 A  
HETATM    9  C   UNL     1      -9.805  12.768  67.009  1.00  0.00    -0.231 A  
HETATM   10  C   UNL     1      -8.534  12.283  67.358  1.00  0.00    -0.176 A  
BRANCH   9  11
HETATM   11  C   UNL     1     -10.166  14.264  67.066  1.00  0.00    -0.260 C  
HETATM   12  C   UNL     1     -11.669  14.524  67.326  1.00  0.00    -0.429 C  
HETATM   13  C   UNL     1      -9.377  14.961  68.194  1.00  0.00    -0.193 C  
HETATM   14  C   UNL     1      -9.819  14.947  65.723  1.00  0.00    -0.380 C  
ENDBRANCH   9  11
ENDBRANCH   4   5
BRANCH   3  15
HETATM   15  N   UNL     1      -9.433   5.423  66.497  1.00  0.00    -0.143 NA 
HETATM   16  C   UNL     1      -8.710   2.600  65.889  1.00  0.00    -0.127 C  
HETATM   17  C   UNL     1      -7.844   3.473  66.791  1.00  0.00    -0.080 C  
HETATM   18  C   UNL     1      -8.655   4.599  67.447  1.00  0.00    -0.104 C  
HETATM   19  C   UNL     1     -10.302   4.548  65.694  1.00  0.00    -0.247 C  
HETATM   20  C   UNL     1      -9.553   3.447  64.939  1.00  0.00    -0.152 C  
ENDBRANCH   3  15
TORSDOF 3
ENDMDL
MODEL       92
REMARK 921   NORMALIZED FREE ENERGY PREDICTED BY IDOCK:   -3.48 KCAL/MOL
REMARK 922        TOTAL FREE ENERGY PREDICTED BY IDOCK:   -4.62 KCAL/MOL
REMARK 923 INTER-LIGAND FREE ENERGY PREDICTED BY IDOCK:   -4.63 KCAL/MOL
REMARK 924 INTRA-LIGAND FREE ENERGY PREDICTED BY IDOCK:    0.00 KCAL/MOL
REMARK 927      BINDING AFFINITY PREDICTED BY RF-SCORE:    0.00 PKD
ROOT
HETATM    1  C   UNL     1     -11.848  13.656  66.539  1.00  0.00    -0.441 C  
HETATM    2  C   UNL     1     -10.831  14.219  67.545  1.00  0.00    -0.284 C  
HETATM    3  C   UNL     1     -11.360  15.593  68.040  1.00  0.00    -0.324 C  
HETATM    4  C   UNL     1     -10.602  13.226  68.711  1.00  0.00    -0.224 C  
ENDROOT
BRANCH   4   5
HETATM    5  C   UNL     1     -10.126  11.853  68.281  1.00  0.00    -0.203 A  
HETATM    6  C   UNL     1      -8.762  11.561  68.172  1.00  0.00    -0.157 A  
HETATM    7  C   UNL     1      -8.324  10.278  67.811  1.00  0.00    -0.110 A  
HETATM    8  C   UNL     1     -11.040  10.833  67.992  1.00  0.00    -0.359 A  
HETATM    9  C   UNL     1      -9.234   9.234  67.551  1.00  0.00    -0.140 A  
HETATM   10  C   UNL     1     -10.600   9.551  67.636  1.00  0.00    -0.329 A  
BRANCH   9  11
HETATM   11  C   UNL     1      -8.729   7.819  67.210  1.00  0.00    -0.128 C  
HETATM   12  C   UNL     1      -9.865   6.831  66.855  1.00  0.00    -0.229 C  
HETATM   13  C   UNL     1      -7.770   7.870  66.002  1.00  0.00    -0.092 C  
HETATM   14  C   UNL     1      -7.974   7.219  68.418  1.00  0.00    -0.124 C  
ENDBRANCH   9  11
ENDBRANCH   4   5
BRANCH   3  15
HETATM   15  N   UNL     1     -10.497  16.367  68.952  1.00  0.00    -0.264 NA 
HETATM   16  C   UNL     1      -8.309  17.569  67.329  1.00  0.00    -0.225 C  
HETATM   17  C   UNL     1      -9.728  18.127  67.301  1.00  0.00    -0.297 C  
HETATM   18  C   UNL     1     -10.498  17.800  68.588  1.00  0.00    -0.292 C  
HETATM   19  C   UNL     1      -9.108  15.887  69.033  1.00  0.00    -0.240 C  
HETATM   20  C   UNL     1      -8.298  16.102  67.753  1.00  0.00    -0.162 C  
ENDBRANCH   3  15
TORSDOF 3
ENDMDL
MODEL       93
REMARK 921   NORMALIZED FREE ENERGY PREDICTED BY IDOCK:   -3.34 KCAL/MOL
REMARK 922        TOTAL FREE ENERGY PREDICTED BY IDOCK:   -4.46 KCAL/MOL
REMARK 923 INTER-LIGAND FREE ENERGY PREDICTED BY IDOCK:   -3.94 KCAL/MOL
REMARK 924 INTRA-LIGAND FREE ENERGY PREDICTED BY IDOCK:   -0.52 KCAL/MOL
REMARK 927      BINDING AFFINITY PREDICTED BY RF-SCORE:    0.00 PKD
ROOT
HETATM    1  C   UNL     1      -9.646   6.332  66.836  1.00  0.00    -0.173 C  
HETATM    2  C   UNL     1      -9.399   7.821  67.129  1.00  0.00    -0.185 C  
HETATM    3  C   UNL     1      -9.514   8.596  65.788  1.00  0.00    -0.122 C  
HETATM    4  C   UNL     1     -10.394   8.346  68.194  1.00  0.00    -0.255 C  
ENDROOT
BRANCH   4   5
HETATM    5  C   UNL     1     -10.356   7.596  69.511  1.00  0.00    -0.217 A  
HETATM    6  C   UNL     1     -11.495   6.962  70.016  1.00  0.00    -0.328 A  
HETATM    7  C   UNL     1     -11.446   6.236  71.216  1.00  0.00    -0.352 A  
HETATM    8  C   UNL     1      -9.172   7.507  70.252  1.00  0.00    -0.157 A  
HETATM    9  C   UNL     1     -10.253   6.110  71.954  1.00  0.00    -0.231 A  
HETATM   10  C   UNL     1      -9.125   6.777  71.449  1.00  0.00    -0.142 A  
BRANCH   9  11
HETATM   11  C   UNL     1     -10.210   5.263  73.239  1.00  0.00    -0.216 C  
HETATM   12  C   UNL     1     -10.026   6.103  74.524  1.00  0.00    -0.343 C  
HETATM   13  C   UNL     1     -11.521   4.464  73.396  1.00  0.00    -0.297 C  
HETATM   14  C   UNL     1      -9.028   4.268  73.181  1.00  0.00    -0.116 C  
ENDBRANCH   9  11
ENDBRANCH   4   5
BRANCH   3  15
HETATM   15  N   UNL     1      -9.224  10.042  65.809  1.00  0.00    -0.164 NA 
HETATM   16  C   UNL     1      -6.303  10.389  65.347  1.00  0.00    -0.122 C  
HETATM   17  C   UNL     1      -7.257  10.031  64.213  1.00  0.00    -0.133 C  
HETATM   18  C   UNL     1      -8.692  10.492  64.505  1.00  0.00    -0.180 C  
HETATM   19  C   UNL     1      -8.308  10.465  66.880  1.00  0.00    -0.124 C  
HETATM   20  C   UNL     1      -6.869   9.971  66.702  1.00  0.00    -0.082 C  
ENDBRANCH   3  15
TORSDOF 3
ENDMDL
MODEL       94
REMARK 921   NORMALIZED FREE ENERGY PREDICTED BY IDOCK:   -3.27 KCAL/MOL
REMARK 922        TOTAL FREE ENERGY PREDICTED BY IDOCK:   -4.37 KCAL/MOL
REMARK 923 INTER-LIGAND FREE ENERGY PREDICTED BY IDOCK:   -4.07 KCAL/MOL
REMARK 924 INTRA-LIGAND FREE ENERGY PREDICTED BY IDOCK:   -0.31 KCAL/MOL
REMARK 927      BINDING AFFINITY PREDICTED BY RF-SCORE:    0.00 PKD
ROOT
HETATM    1  C   UNL     1     -10.240   5.760  68.799  1.00  0.00    -0.255 C  
HETATM    2  C   UNL     1      -9.949   7.131  69.431  1.00  0.00    -0.164 C  
HETATM    3  C   UNL     1     -10.065   6.980  70.973  1.00  0.00    -0.195 C  
HETATM    4  C   UNL     1      -8.557   7.653  68.998  1.00  0.00    -0.136 C  
ENDROOT
BRANCH   4   5
HETATM    5  C   UNL     1      -8.373   7.779  67.498  1.00  0.00    -0.120 A  
HETATM    6  C   UNL     1      -9.176   8.637  66.740  1.00  0.00    -0.211 A  
HETATM    7  C   UNL     1      -8.978   8.780  65.359  1.00  0.00    -0.211 A  
HETATM    8  C   UNL     1      -7.384   7.047  66.832  1.00  0.00    -0.078 A  
HETATM    9  C   UNL     1      -7.965   8.075  64.682  1.00  0.00    -0.151 A  
HETATM   10  C   UNL     1      -7.186   7.195  65.452  1.00  0.00    -0.070 A  
BRANCH   9  11
HETATM   11  C   UNL     1      -7.730   8.289  63.175  1.00  0.00    -0.138 C  
HETATM   12  C   UNL     1      -8.542   9.467  62.589  1.00  0.00    -0.212 C  
HETATM   13  C   UNL     1      -6.239   8.579  62.903  1.00  0.00    -0.087 C  
HETATM   14  C   UNL     1      -8.141   7.025  62.387  1.00  0.00    -0.108 C  
ENDBRANCH   9  11
ENDBRANCH   4   5
BRANCH   3  15
HETATM   15  N   UNL     1      -9.914   8.198  71.790  1.00  0.00    -0.186 NA 
HETATM   16  C   UNL     1     -12.484   9.697  71.670  1.00  0.00    -0.494 C  
HETATM   17  C   UNL     1     -12.328   8.438  72.516  1.00  0.00    -0.358 C  
HETATM   18  C   UNL     1     -10.867   8.196  72.920  1.00  0.00    -0.240 C  
HETATM   19  C   UNL     1     -10.051   9.457  71.041  1.00  0.00    -0.283 C  
HETATM   20  C   UNL     1     -11.468   9.728  70.530  1.00  0.00    -0.370 C  
ENDBRANCH   3  15
TORSDOF 3
ENDMDL
MODEL       95
REMARK 921   NORMALIZED FREE ENERGY PREDICTED BY IDOCK:   -3.22 KCAL/MOL
REMARK 922        TOTAL FREE ENERGY PREDICTED BY IDOCK:   -4.32 KCAL/MOL
REMARK 923 INTER-LIGAND FREE ENERGY PREDICTED BY IDOCK:   -3.49 KCAL/MOL
REMARK 924 INTRA-LIGAND FREE ENERGY PREDICTED BY IDOCK:   -0.82 KCAL/MOL
REMARK 927      BINDING AFFINITY PREDICTED BY RF-SCORE:    0.00 PKD
ROOT
HETATM    1  C   UNL     1      -7.435  11.126  67.981  1.00  0.00    -0.094 C  
HETATM    2  C   UNL     1      -7.527   9.940  67.006  1.00  0.00    -0.091 C  
HETATM    3  C   UNL     1      -6.364  10.072  65.984  1.00  0.00    -0.087 C  
HETATM    4  C   UNL     1      -7.485   8.594  67.770  1.00  0.00    -0.097 C  
ENDROOT
BRANCH   4   5
HETATM    5  C   UNL     1      -8.574   8.430  68.812  1.00  0.00    -0.135 A  
HETATM    6  C   UNL     1      -8.266   8.335  70.172  1.00  0.00    -0.118 A  
HETATM    7  C   UNL     1      -9.278   8.222  71.137  1.00  0.00    -0.200 A  
HETATM    8  C   UNL     1      -9.922   8.382  68.440  1.00  0.00    -0.208 A  
HETATM    9  C   UNL     1     -10.640   8.207  70.779  1.00  0.00    -0.234 A  
HETATM   10  C   UNL     1     -10.932   8.274  69.407  1.00  0.00    -0.013 A  
BRANCH   9  11
HETATM   11  C   UNL     1     -11.735   8.139  71.859  1.00  0.00    -0.362 C  
HETATM   12  C   UNL     1     -12.356   9.515  72.192  1.00  0.00    -0.332 C  
HETATM   13  C   UNL     1     -12.883   7.216  71.397  1.00  0.00    -0.431 C  
HETATM   14  C   UNL     1     -11.150   7.581  73.176  1.00  0.00    -0.378 C  
ENDBRANCH   9  11
ENDBRANCH   4   5
BRANCH   3  15
HETATM   15  N   UNL     1      -6.305   9.087  64.889  1.00  0.00    -0.065 NA 
HETATM   16  C   UNL     1      -6.834  10.531  62.340  1.00  0.00    -0.146 C  
HETATM   17  C   UNL     1      -5.494  10.641  63.060  1.00  0.00    -0.164 C  
HETATM   18  C   UNL     1      -5.217   9.416  63.943  1.00  0.00    -0.060 C  
HETATM   19  C   UNL     1      -7.564   8.924  64.145  1.00  0.00    -0.120 C  
HETATM   20  C   UNL     1      -7.953  10.142  63.303  1.00  0.00    -0.155 C  
ENDBRANCH   3  15
TORSDOF 3
ENDMDL
MODEL       96
REMARK 921   NORMALIZED FREE ENERGY PREDICTED BY IDOCK:   -3.21 KCAL/MOL
REMARK 922        TOTAL FREE ENERGY PREDICTED BY IDOCK:   -4.30 KCAL/MOL
REMARK 923 INTER-LIGAND FREE ENERGY PREDICTED BY IDOCK:   -3.61 KCAL/MOL
REMARK 924 INTRA-LIGAND FREE ENERGY PREDICTED BY IDOCK:   -0.69 KCAL/MOL
REMARK 927      BINDING AFFINITY PREDICTED BY RF-SCORE:    0.00 PKD
ROOT
HETATM    1  C   UNL     1     -11.280   6.220  68.996  1.00  0.00    -0.415 C  
HETATM    2  C   UNL     1     -10.127   5.681  69.860  1.00  0.00    -0.289 C  
HETATM    3  C   UNL     1     -10.628   5.601  71.328  1.00  0.00    -0.255 C  
HETATM    4  C   UNL     1      -9.637   4.310  69.333  1.00  0.00    -0.267 C  
ENDROOT
BRANCH   4   5
HETATM    5  C   UNL     1      -9.176   4.321  67.889  1.00  0.00    -0.179 A  
HETATM    6  C   UNL     1      -9.522   3.290  67.010  1.00  0.00    -0.161 A  
HETATM    7  C   UNL     1      -9.126   3.323  65.665  1.00  0.00    -0.152 A  
HETATM    8  C   UNL     1      -8.399   5.374  67.391  1.00  0.00    -0.103 A  
HETATM    9  C   UNL     1      -8.373   4.393  65.144  1.00  0.00    -0.116 A  
HETATM   10  C   UNL     1      -8.009   5.407  66.045  1.00  0.00    -0.105 A  
BRANCH   9  11
HETATM   11  C   UNL     1      -7.997   4.435  63.651  1.00  0.00    -0.090 C  
HETATM   12  C   UNL     1      -6.616   3.810  63.347  1.00  0.00    -0.034 C  
HETATM   13  C   UNL     1      -9.043   3.668  62.815  1.00  0.00    -0.098 C  
HETATM   14  C   UNL     1      -7.945   5.899  63.156  1.00  0.00    -0.108 C  
ENDBRANCH   9  11
ENDBRANCH   4   5
BRANCH   3  15
HETATM   15  N   UNL     1      -9.656   5.194  72.358  1.00  0.00    -0.147 NA 
HETATM   16  C   UNL     1      -9.058   7.579  74.036  1.00  0.00    -0.295 C  
HETATM   17  C   UNL     1     -10.368   6.810  74.174  1.00  0.00    -0.322 C  
HETATM   18  C   UNL     1     -10.226   5.352  73.713  1.00  0.00    -0.223 C  
HETATM   19  C   UNL     1      -8.363   5.894  72.290  1.00  0.00    -0.118 C  
HETATM   20  C   UNL     1      -8.438   7.379  72.655  1.00  0.00    -0.138 C  
ENDBRANCH   3  15
TORSDOF 3
ENDMDL
MODEL       97
REMARK 921   NORMALIZED FREE ENERGY PREDICTED BY IDOCK:   -3.15 KCAL/MOL
REMARK 922        TOTAL FREE ENERGY PREDICTED BY IDOCK:   -4.23 KCAL/MOL
REMARK 923 INTER-LIGAND FREE ENERGY PREDICTED BY IDOCK:   -5.07 KCAL/MOL
REMARK 924 INTRA-LIGAND FREE ENERGY PREDICTED BY IDOCK:    0.84 KCAL/MOL
REMARK 927      BINDING AFFINITY PREDICTED BY RF-SCORE:    0.00 PKD
ROOT
HETATM    1  C   UNL     1     -10.227  17.799  68.066  1.00  0.00    -0.377 C  
HETATM    2  C   UNL     1      -8.740  17.813  67.677  1.00  0.00    -0.244 C  
HETATM    3  C   UNL     1      -8.114  19.123  68.230  1.00  0.00    -0.332 C  
HETATM    4  C   UNL     1      -8.019  16.550  68.209  1.00  0.00    -0.177 C  
ENDROOT
BRANCH   4   5
HETATM    5  C   UNL     1      -8.616  15.240  67.734  1.00  0.00    -0.163 A  
HETATM    6  C   UNL     1      -9.613  15.213  66.754  1.00  0.00    -0.260 A  
HETATM    7  C   UNL     1     -10.136  13.997  66.288  1.00  0.00    -0.307 A  
HETATM    8  C   UNL     1      -8.176  14.019  68.256  1.00  0.00    -0.153 A  
HETATM    9  C   UNL     1      -9.678  12.760  66.782  1.00  0.00    -0.243 A  
HETATM   10  C   UNL     1      -8.697  12.805  67.787  1.00  0.00    -0.184 A  
BRANCH   9  11
HETATM   11  C   UNL     1     -10.227  11.437  66.217  1.00  0.00    -0.274 C  
HETATM   12  C   UNL     1     -11.086  11.622  64.944  1.00  0.00    -0.317 C  
HETATM   13  C   UNL     1      -9.065  10.488  65.853  1.00  0.00    -0.192 C  
HETATM   14  C   UNL     1     -11.124  10.742  67.266  1.00  0.00    -0.339 C  
ENDBRANCH   9  11
ENDBRANCH   4   5
BRANCH   3  15
HETATM   15  N   UNL     1      -6.704  19.397  67.898  1.00  0.00    -0.234 NA 
HETATM   16  C   UNL     1      -5.147  19.346  70.435  1.00  0.00    -0.218 C  
HETATM   17  C   UNL     1      -5.635  18.065  69.768  1.00  0.00    -0.230 C  
HETATM   18  C   UNL     1      -5.845  18.249  68.258  1.00  0.00    -0.177 C  
HETATM   19  C   UNL     1      -6.159  20.621  68.506  1.00  0.00    -0.337 C  
HETATM   20  C   UNL     1      -6.000  20.545  70.027  1.00  0.00    -0.311 C  
ENDBRANCH   3  15
TORSDOF 3
ENDMDL
MODEL       98
REMARK 921   NORMALIZED FREE ENERGY PREDICTED BY IDOCK:   -3.07 KCAL/MOL
REMARK 922        TOTAL FREE ENERGY PREDICTED BY IDOCK:   -4.14 KCAL/MOL
REMARK 923 INTER-LIGAND FREE ENERGY PREDICTED BY IDOCK:   -3.40 KCAL/MOL
REMARK 924 INTRA-LIGAND FREE ENERGY PREDICTED BY IDOCK:   -0.74 KCAL/MOL
REMARK 927      BINDING AFFINITY PREDICTED BY RF-SCORE:    0.00 PKD
ROOT
HETATM    1  C   UNL     1     -11.129   6.370  68.104  1.00  0.00    -0.358 C  
HETATM    2  C   UNL     1      -9.985   6.457  69.128  1.00  0.00    -0.173 C  
HETATM    3  C   UNL     1     -10.358   5.554  70.336  1.00  0.00    -0.276 C  
HETATM    4  C   UNL     1      -8.637   6.047  68.486  1.00  0.00    -0.111 C  
ENDROOT
BRANCH   4   5
HETATM    5  C   UNL     1      -8.245   6.869  67.274  1.00  0.00    -0.118 A  
HETATM    6  C   UNL     1      -8.222   6.305  65.994  1.00  0.00    -0.125 A  
HETATM    7  C   UNL     1      -7.896   7.078  64.870  1.00  0.00    -0.126 A  
HETATM    8  C   UNL     1      -7.906   8.220  67.401  1.00  0.00    -0.106 A  
HETATM    9  C   UNL     1      -7.586   8.448  64.981  1.00  0.00    -0.094 A  
HETATM   10  C   UNL     1      -7.585   8.992  66.275  1.00  0.00    -0.092 A  
BRANCH   9  11
HETATM   11  C   UNL     1      -7.286   9.289  63.726  1.00  0.00    -0.095 C  
HETATM   12  C   UNL     1      -6.977   8.436  62.474  1.00  0.00    -0.090 C  
HETATM   13  C   UNL     1      -8.493  10.188  63.384  1.00  0.00    -0.185 C  
HETATM   14  C   UNL     1      -6.052  10.188  63.972  1.00  0.00    -0.137 C  
ENDBRANCH   9  11
ENDBRANCH   4   5
BRANCH   3  15
HETATM   15  N   UNL     1      -9.443   5.552  71.492  1.00  0.00    -0.147 NA 
HETATM   16  C   UNL     1     -10.656   3.842  73.606  1.00  0.00    -0.285 C  
HETATM   17  C   UNL     1      -9.993   3.241  72.371  1.00  0.00    -0.233 C  
HETATM   18  C   UNL     1      -8.945   4.186  71.767  1.00  0.00    -0.119 C  
HETATM   19  C   UNL     1     -10.012   6.118  72.725  1.00  0.00    -0.172 C  
HETATM   20  C   UNL     1     -11.127   5.270  73.344  1.00  0.00    -0.362 C  
ENDBRANCH   3  15
TORSDOF 3
ENDMDL
MODEL       99
REMARK 921   NORMALIZED FREE ENERGY PREDICTED BY IDOCK:   -3.06 KCAL/MOL
REMARK 922        TOTAL FREE ENERGY PREDICTED BY IDOCK:   -4.13 KCAL/MOL
REMARK 923 INTER-LIGAND FREE ENERGY PREDICTED BY IDOCK:   -3.30 KCAL/MOL
REMARK 924 INTRA-LIGAND FREE ENERGY PREDICTED BY IDOCK:   -0.83 KCAL/MOL
REMARK 927      BINDING AFFINITY PREDICTED BY RF-SCORE:    0.00 PKD
ROOT
HETATM    1  C   UNL     1      -8.994   9.832  64.191  1.00  0.00    -0.276 C  
HETATM    2  C   UNL     1      -8.816   8.811  65.328  1.00  0.00    -0.205 C  
HETATM    3  C   UNL     1      -8.004   7.611  64.768  1.00  0.00    -0.137 C  
HETATM    4  C   UNL     1      -8.126   9.464  66.551  1.00  0.00    -0.111 C  
ENDROOT
BRANCH   4   5
HETATM    5  C   UNL     1      -8.855  10.669  67.113  1.00  0.00    -0.139 A  
HETATM    6  C   UNL     1     -10.117  10.543  67.702  1.00  0.00    -0.211 A  
HETATM    7  C   UNL     1     -10.771  11.653  68.255  1.00  0.00    -0.246 A  
HETATM    8  C   UNL     1      -8.277  11.943  67.068  1.00  0.00    -0.170 A  
HETATM    9  C   UNL     1     -10.185  12.934  68.246  1.00  0.00    -0.245 A  
HETATM   10  C   UNL     1      -8.931  13.051  67.626  1.00  0.00    -0.192 A  
BRANCH   9  11
HETATM   11  C   UNL     1     -10.898  14.128  68.909  1.00  0.00    -0.276 C  
HETATM   12  C   UNL     1     -11.868  14.869  67.959  1.00  0.00    -0.296 C  
HETATM   13  C   UNL     1     -11.720  13.651  70.125  1.00  0.00    -0.288 C  
HETATM   14  C   UNL     1      -9.859  15.168  69.389  1.00  0.00    -0.216 C  
ENDBRANCH   9  11
ENDBRANCH   4   5
BRANCH   3  15
HETATM   15  N   UNL     1      -7.787   6.459  65.663  1.00  0.00    -0.094 NA 
HETATM   16  C   UNL     1      -9.024   4.072  64.386  1.00  0.00    -0.137 C  
HETATM   17  C   UNL     1      -7.702   4.649  63.893  1.00  0.00    -0.073 C  
HETATM   18  C   UNL     1      -6.968   5.423  64.997  1.00  0.00    -0.053 C  
HETATM   19  C   UNL     1      -9.020   5.846  66.181  1.00  0.00    -0.151 C  
HETATM   20  C   UNL     1      -9.852   5.125  65.117  1.00  0.00     0.217 C  
ENDBRANCH   3  15
TORSDOF 3
ENDMDL
MODEL      100
REMARK 921   NORMALIZED FREE ENERGY PREDICTED BY IDOCK:   -3.05 KCAL/MOL
REMARK 922        TOTAL FREE ENERGY PREDICTED BY IDOCK:   -4.11 KCAL/MOL
REMARK 923 INTER-LIGAND FREE ENERGY PREDICTED BY IDOCK:   -3.41 KCAL/MOL
REMARK 924 INTRA-LIGAND FREE ENERGY PREDICTED BY IDOCK:   -0.70 KCAL/MOL
REMARK 927      BINDING AFFINITY PREDICTED BY RF-SCORE:    0.00 PKD
ROOT
HETATM    1  C   UNL     1      -7.010   5.715  66.747  1.00  0.00    -0.065 C  
HETATM    2  C   UNL     1      -7.870   6.925  66.340  1.00  0.00    -0.103 C  
HETATM    3  C   UNL     1      -7.730   7.114  64.805  1.00  0.00    -0.115 C  
HETATM    4  C   UNL     1      -9.343   6.724  66.773  1.00  0.00    -0.189 C  
ENDROOT
BRANCH   4   5
HETATM    5  C   UNL     1      -9.534   6.491  68.259  1.00  0.00    -0.118 A  
HETATM    6  C   UNL     1      -9.687   5.200  68.775  1.00  0.00    -0.215 A  
HETATM    7  C   UNL     1      -9.825   4.985  70.155  1.00  0.00    -0.303 A  
HETATM    8  C   UNL     1      -9.548   7.563  69.158  1.00  0.00    -0.157 A  
HETATM    9  C   UNL     1      -9.807   6.053  71.073  1.00  0.00    -0.220 A  
HETATM   10  C   UNL     1      -9.681   7.345  70.537  1.00  0.00    -0.175 A  
BRANCH   9  11
HETATM   11  C   UNL     1      -9.904   5.788  72.587  1.00  0.00    -0.183 C  
HETATM   12  C   UNL     1     -11.156   4.974  72.990  1.00  0.00    -0.378 C  
HETATM   13  C   UNL     1      -8.668   5.001  73.071  1.00  0.00    -0.113 C  
HETATM   14  C   UNL     1      -9.973   7.126  73.358  1.00  0.00    -0.320 C  
ENDBRANCH   9  11
ENDBRANCH   4   5
BRANCH   3  15
HETATM   15  N   UNL     1      -8.400   8.279  64.199  1.00  0.00    -0.099 NA 
HETATM   16  C   UNL     1      -6.292  10.068  63.096  1.00  0.00    -0.133 C  
HETATM   17  C   UNL     1      -6.690   8.772  62.397  1.00  0.00    -0.094 C  
HETATM   18  C   UNL     1      -8.124   8.350  62.748  1.00  0.00    -0.170 C  
HETATM   19  C   UNL     1      -8.065   9.570  64.821  1.00  0.00    -0.130 C  
HETATM   20  C   UNL     1      -6.621  10.019  64.585  1.00  0.00    -0.128 C  
ENDBRANCH   3  15
TORSDOF 3
ENDMDL
MODEL      101
REMARK 921   NORMALIZED FREE ENERGY PREDICTED BY IDOCK:   -3.01 KCAL/MOL
REMARK 922        TOTAL FREE ENERGY PREDICTED BY IDOCK:   -4.06 KCAL/MOL
REMARK 923 INTER-LIGAND FREE ENERGY PREDICTED BY IDOCK:   -3.92 KCAL/MOL
REMARK 924 INTRA-LIGAND FREE ENERGY PREDICTED BY IDOCK:   -0.14 KCAL/MOL
REMARK 927      BINDING AFFINITY PREDICTED BY RF-SCORE:    0.00 PKD
ROOT
HETATM    1  C   UNL     1     -10.460  15.611  68.575  1.00  0.00    -0.236 C  
HETATM    2  C   UNL     1      -9.536  16.112  67.451  1.00  0.00    -0.229 C  
HETATM    3  C   UNL     1      -9.672  17.658  67.379  1.00  0.00    -0.283 C  
HETATM    4  C   UNL     1      -8.075  15.664  67.697  1.00  0.00    -0.166 C  
ENDROOT
BRANCH   4   5
HETATM    5  C   UNL     1      -7.891  14.164  67.820  1.00  0.00    -0.177 A  
HETATM    6  C   UNL     1      -8.657  13.276  67.057  1.00  0.00    -0.169 A  
HETATM    7  C   UNL     1      -8.458  11.890  67.145  1.00  0.00    -0.173 A  
HETATM    8  C   UNL     1      -6.940  13.626  68.694  1.00  0.00    -0.103 A  
HETATM    9  C   UNL     1      -7.480  11.338  67.996  1.00  0.00    -0.095 A  
HETATM   10  C   UNL     1      -6.740  12.240  68.777  1.00  0.00    -0.089 A  
BRANCH   9  11
HETATM   11  C   UNL     1      -7.242   9.817  68.034  1.00  0.00    -0.080 C  
HETATM   12  C   UNL     1      -8.537   8.997  68.239  1.00  0.00    -0.130 C  
HETATM   13  C   UNL     1      -6.602   9.343  66.712  1.00  0.00    -0.068 C  
HETATM   14  C   UNL     1      -6.294   9.457  69.201  1.00  0.00    -0.042 C  
ENDBRANCH   9  11
ENDBRANCH   4   5
BRANCH   3  15
HETATM   15  N   UNL     1      -8.940  18.356  66.305  1.00  0.00    -0.454 NA 
HETATM   16  C   UNL     1      -7.700  20.791  67.486  1.00  0.00    -0.281 C  
HETATM   17  C   UNL     1      -7.128  19.399  67.734  1.00  0.00    -0.276 C  
HETATM   18  C   UNL     1      -7.494  18.421  66.610  1.00  0.00    -0.229 C  
HETATM   19  C   UNL     1      -9.435  19.709  66.007  1.00  0.00    -0.292 C  
HETATM   20  C   UNL     1      -9.181  20.726  67.122  1.00  0.00    -0.354 C  
ENDBRANCH   3  15
TORSDOF 3
ENDMDL
MODEL      102
REMARK 921   NORMALIZED FREE ENERGY PREDICTED BY IDOCK:   -2.93 KCAL/MOL
REMARK 922        TOTAL FREE ENERGY PREDICTED BY IDOCK:   -3.97 KCAL/MOL
REMARK 923 INTER-LIGAND FREE ENERGY PREDICTED BY IDOCK:   -4.45 KCAL/MOL
REMARK 924 INTRA-LIGAND FREE ENERGY PREDICTED BY IDOCK:    0.47 KCAL/MOL
REMARK 927      BINDING AFFINITY PREDICTED BY RF-SCORE:    0.00 PKD
ROOT
HETATM    1  C   UNL     1      -8.506  12.651  68.366  1.00  0.00    -0.121 C  
HETATM    2  C   UNL     1     -10.027  12.883  68.359  1.00  0.00    -0.211 C  
HETATM    3  C   UNL     1     -10.699  11.656  69.035  1.00  0.00    -0.179 C  
HETATM    4  C   UNL     1     -10.385  14.212  69.069  1.00  0.00    -0.159 C  
ENDROOT
BRANCH   4   5
HETATM    5  C   UNL     1      -9.720  15.438  68.476  1.00  0.00    -0.204 A  
HETATM    6  C   UNL     1     -10.231  16.056  67.331  1.00  0.00    -0.273 A  
HETATM    7  C   UNL     1      -9.637  17.214  66.807  1.00  0.00    -0.279 A  
HETATM    8  C   UNL     1      -8.581  15.995  69.068  1.00  0.00    -0.244 A  
HETATM    9  C   UNL     1      -8.510  17.803  67.413  1.00  0.00    -0.230 A  
HETATM   10  C   UNL     1      -7.991  17.155  68.546  1.00  0.00    -0.259 A  
BRANCH   9  11
HETATM   11  C   UNL     1      -7.908  19.105  66.853  1.00  0.00    -0.266 C  
HETATM   12  C   UNL     1      -7.205  19.968  67.927  1.00  0.00    -0.325 C  
HETATM   13  C   UNL     1      -6.862  18.785  65.764  1.00  0.00    -0.305 C  
HETATM   14  C   UNL     1      -9.019  19.981  66.231  1.00  0.00    -0.383 C  
ENDBRANCH   9  11
ENDBRANCH   4   5
BRANCH   3  15
HETATM   15  N   UNL     1     -12.173  11.616  69.061  1.00  0.00    -0.339 NA 
HETATM   16  C   UNL     1     -13.038  11.888  71.896  1.00  0.00    -0.474 C  
HETATM   17  C   UNL     1     -12.529  13.082  71.095  1.00  0.00    -0.364 C  
HETATM   18  C   UNL     1     -12.725  12.884  69.586  1.00  0.00     0.554 C  
HETATM   19  C   UNL     1     -12.740  10.489  69.817  1.00  0.00     0.136 C  
HETATM   20  C   UNL     1     -12.511  10.573  71.328  1.00  0.00    -0.524 C  
ENDBRANCH   3  15
TORSDOF 3
ENDMDL
MODEL      103
REMARK 921   NORMALIZED FREE ENERGY PREDICTED BY IDOCK:   -2.91 KCAL/MOL
REMARK 922        TOTAL FREE ENERGY PREDICTED BY IDOCK:   -3.95 KCAL/MOL
REMARK 923 INTER-LIGAND FREE ENERGY PREDICTED BY IDOCK:   -3.31 KCAL/MOL
REMARK 924 INTRA-LIGAND FREE ENERGY PREDICTED BY IDOCK:   -0.64 KCAL/MOL
REMARK 927      BINDING AFFINITY PREDICTED BY RF-SCORE:    0.00 PKD
ROOT
HETATM    1  C   UNL     1      -9.502   7.395  66.306  1.00  0.00    -0.144 C  
HETATM    2  C   UNL     1      -8.900   5.980  66.323  1.00  0.00    -0.144 C  
HETATM    3  C   UNL     1      -8.036   5.814  65.042  1.00  0.00    -0.131 C  
HETATM    4  C   UNL     1      -8.080   5.745  67.616  1.00  0.00    -0.102 C  
ENDROOT
BRANCH   4   5
HETATM    5  C   UNL     1      -8.864   5.937  68.899  1.00  0.00    -0.115 A  
HETATM    6  C   UNL     1     -10.122   5.352  69.073  1.00  0.00    -0.283 A  
HETATM    7  C   UNL     1     -10.828   5.499  70.276  1.00  0.00    -0.285 A  
HETATM    8  C   UNL     1      -8.343   6.697  69.952  1.00  0.00    -0.132 A  
HETATM    9  C   UNL     1     -10.300   6.234  71.356  1.00  0.00    -0.251 A  
HETATM   10  C   UNL     1      -9.049   6.839  71.156  1.00  0.00    -0.151 A  
BRANCH   9  11
HETATM   11  C   UNL     1     -11.068   6.336  72.687  1.00  0.00    -0.298 C  
HETATM   12  C   UNL     1     -10.348   7.202  73.747  1.00  0.00    -0.390 C  
HETATM   13  C   UNL     1     -12.461   6.958  72.453  1.00  0.00     0.042 C  
HETATM   14  C   UNL     1     -11.250   4.930  73.305  1.00  0.00    -0.423 C  
ENDBRANCH   9  11
ENDBRANCH   4   5
BRANCH   3  15
HETATM   15  N   UNL     1      -7.428   4.493  64.798  1.00  0.00    -0.071 NA 
HETATM   16  C   UNL     1      -9.100   3.082  62.779  1.00  0.00    -0.091 C  
HETATM   17  C   UNL     1      -8.152   4.211  62.387  1.00  0.00    -0.067 C  
HETATM   18  C   UNL     1      -6.999   4.363  63.389  1.00  0.00    -0.044 C  
HETATM   19  C   UNL     1      -8.284   3.350  65.152  1.00  0.00    -0.094 C  
HETATM   20  C   UNL     1      -9.507   3.182  64.246  1.00  0.00    -0.142 C  
ENDBRANCH   3  15
TORSDOF 3
ENDMDL
MODEL      104
REMARK 921   NORMALIZED FREE ENERGY PREDICTED BY IDOCK:   -2.88 KCAL/MOL
REMARK 922        TOTAL FREE ENERGY PREDICTED BY IDOCK:   -3.91 KCAL/MOL
REMARK 923 INTER-LIGAND FREE ENERGY PREDICTED BY IDOCK:   -4.23 KCAL/MOL
REMARK 924 INTRA-LIGAND FREE ENERGY PREDICTED BY IDOCK:    0.32 KCAL/MOL
REMARK 927      BINDING AFFINITY PREDICTED BY RF-SCORE:    0.00 PKD
ROOT
HETATM    1  C   UNL     1     -10.888   7.003  67.211  1.00  0.00    -0.403 C  
HETATM    2  C   UNL     1     -10.391   8.125  68.139  1.00  0.00    -0.251 C  
HETATM    3  C   UNL     1     -10.909   9.475  67.573  1.00  0.00    -0.170 C  
HETATM    4  C   UNL     1     -10.859   7.883  69.595  1.00  0.00    -0.177 C  
ENDROOT
BRANCH   4   5
HETATM    5  C   UNL     1     -10.417   6.558  70.184  1.00  0.00    -0.259 A  
HETATM    6  C   UNL     1     -10.303   6.382  71.567  1.00  0.00    -0.239 A  
HETATM    7  C   UNL     1      -9.932   5.143  72.110  1.00  0.00    -0.238 A  
HETATM    8  C   UNL     1     -10.124   5.467  69.358  1.00  0.00    -0.306 A  
HETATM    9  C   UNL     1      -9.666   4.029  71.291  1.00  0.00    -0.255 A  
HETATM   10  C   UNL     1      -9.757   4.229  69.903  1.00  0.00    -0.291 A  
BRANCH   9  11
HETATM   11  C   UNL     1      -9.314   2.664  71.911  1.00  0.00    -0.183 C  
HETATM   12  C   UNL     1     -10.510   1.984  72.618  1.00  0.00    -0.228 C  
HETATM   13  C   UNL     1      -8.814   1.694  70.820  1.00  0.00    -0.114 C  
HETATM   14  C   UNL     1      -8.203   2.832  72.972  1.00  0.00    -0.070 C  
ENDBRANCH   9  11
ENDBRANCH   4   5
BRANCH   3  15
HETATM   15  N   UNL     1     -10.478  10.710  68.254  1.00  0.00    -0.176 NA 
HETATM   16  C   UNL     1      -8.098  11.761  66.806  1.00  0.00    -0.133 C  
HETATM   17  C   UNL     1      -9.507  11.903  66.241  1.00  0.00    -0.238 C  
HETATM   18  C   UNL     1     -10.573  11.873  67.346  1.00  0.00    -0.225 C  
HETATM   19  C   UNL     1      -9.124  10.650  68.828  1.00  0.00    -0.169 C  
HETATM   20  C   UNL     1      -8.006  10.591  67.783  1.00  0.00    -0.106 C  
ENDBRANCH   3  15
TORSDOF 3
ENDMDL
MODEL      105
REMARK 921   NORMALIZED FREE ENERGY PREDICTED BY IDOCK:   -2.87 KCAL/MOL
REMARK 922        TOTAL FREE ENERGY PREDICTED BY IDOCK:   -3.91 KCAL/MOL
REMARK 923 INTER-LIGAND FREE ENERGY PREDICTED BY IDOCK:   -3.38 KCAL/MOL
REMARK 924 INTRA-LIGAND FREE ENERGY PREDICTED BY IDOCK:   -0.52 KCAL/MOL
REMARK 927      BINDING AFFINITY PREDICTED BY RF-SCORE:    0.00 PKD
ROOT
HETATM    1  C   UNL     1      -6.859   4.813  69.417  1.00  0.00    -0.049 C  
HETATM    2  C   UNL     1      -7.279   5.125  67.970  1.00  0.00    -0.067 C  
HETATM    3  C   UNL     1      -6.495   4.169  67.030  1.00  0.00    -0.041 C  
HETATM    4  C   UNL     1      -8.812   4.987  67.799  1.00  0.00    -0.106 C  
ENDROOT
BRANCH   4   5
HETATM    5  C   UNL     1      -9.628   5.868  68.725  1.00  0.00    -0.152 A  
HETATM    6  C   UNL     1     -10.498   5.314  69.670  1.00  0.00    -0.320 A  
HETATM    7  C   UNL     1     -11.222   6.130  70.552  1.00  0.00    -0.403 A  
HETATM    8  C   UNL     1      -9.523   7.262  68.668  1.00  0.00    -0.137 A  
HETATM    9  C   UNL     1     -11.100   7.533  70.526  1.00  0.00    -0.275 A  
HETATM   10  C   UNL     1     -10.245   8.075  69.553  1.00  0.00    -0.209 A  
BRANCH   9  11
HETATM   11  C   UNL     1     -11.862   8.407  71.540  1.00  0.00    -0.345 C  
HETATM   12  C   UNL     1     -11.804   9.917  71.216  1.00  0.00    -0.479 C  
HETATM   13  C   UNL     1     -13.351   8.002  71.580  1.00  0.00    -0.364 C  
HETATM   14  C   UNL     1     -11.262   8.228  72.954  1.00  0.00    -0.191 C  
ENDBRANCH   9  11
ENDBRANCH   4   5
BRANCH   3  15
HETATM   15  N   UNL     1      -6.670   4.349  65.577  1.00  0.00    -0.051 NA 
HETATM   16  C   UNL     1      -6.314   1.690  64.285  1.00  0.00    -0.018 C  
HETATM   17  C   UNL     1      -7.586   2.048  65.046  1.00  0.00    -0.067 C  
HETATM   18  C   UNL     1      -7.823   3.564  65.085  1.00  0.00    -0.086 C  
HETATM   19  C   UNL     1      -5.482   4.023  64.773  1.00  0.00    -0.013 C  
HETATM   20  C   UNL     1      -5.131   2.533  64.754  1.00  0.00    -0.008 C  
ENDBRANCH   3  15
TORSDOF 3
ENDMDL
MODEL      106
REMARK 921   NORMALIZED FREE ENERGY PREDICTED BY IDOCK:   -2.85 KCAL/MOL
REMARK 922        TOTAL FREE ENERGY PREDICTED BY IDOCK:   -3.88 KCAL/MOL
REMARK 923 INTER-LIGAND FREE ENERGY PREDICTED BY IDOCK:   -3.13 KCAL/MOL
REMARK 924 INTRA-LIGAND FREE ENERGY PREDICTED BY IDOCK:   -0.75 KCAL/MOL
REMARK 927      BINDING AFFINITY PREDICTED BY RF-SCORE:    0.00 PKD
ROOT
HETATM    1  C   UNL     1      -7.574   7.657  67.926  1.00  0.00    -0.117 C  
HETATM    2  C   UNL     1      -7.963   8.755  68.931  1.00  0.00    -0.105 C  
HETATM    3  C   UNL     1      -7.979  10.110  68.172  1.00  0.00    -0.104 C  
HETATM    4  C   UNL     1      -9.327   8.439  69.592  1.00  0.00    -0.161 C  
ENDROOT
BRANCH   4   5
HETATM    5  C   UNL     1      -9.382   7.105  70.311  1.00  0.00    -0.155 A  
HETATM    6  C   UNL     1     -10.291   6.113  69.928  1.00  0.00    -0.272 A  
HETATM    7  C   UNL     1     -10.312   4.866  70.570  1.00  0.00    -0.242 A  
HETATM    8  C   UNL     1      -8.513   6.825  71.371  1.00  0.00    -0.120 A  
HETATM    9  C   UNL     1      -9.420   4.560  71.616  1.00  0.00    -0.210 A  
HETATM   10  C   UNL     1      -8.534   5.576  72.008  1.00  0.00    -0.127 A  
BRANCH   9  11
HETATM   11  C   UNL     1      -9.425   3.164  72.268  1.00  0.00    -0.187 C  
HETATM   12  C   UNL     1     -10.658   2.910  73.167  1.00  0.00    -0.261 C  
HETATM   13  C   UNL     1      -9.413   2.067  71.183  1.00  0.00    -0.209 C  
HETATM   14  C   UNL     1      -8.176   2.991  73.163  1.00  0.00    -0.076 C  
ENDBRANCH   9  11
ENDBRANCH   4   5
BRANCH   3  15
HETATM   15  N   UNL     1      -8.240  11.329  68.961  1.00  0.00    -0.078 NA 
HETATM   16  C   UNL     1      -8.203  13.645  67.091  1.00  0.00    -0.123 C  
HETATM   17  C   UNL     1      -9.384  12.681  67.150  1.00  0.00    -0.210 C  
HETATM   18  C   UNL     1      -9.487  11.987  68.515  1.00  0.00    -0.133 C  
HETATM   19  C   UNL     1      -7.143  12.309  68.951  1.00  0.00    -0.088 C  
HETATM   20  C   UNL     1      -6.922  12.986  67.596  1.00  0.00    -0.154 C  
ENDBRANCH   3  15
TORSDOF 3
ENDMDL
MODEL      107
REMARK 921   NORMALIZED FREE ENERGY PREDICTED BY IDOCK:   -2.75 KCAL/MOL
REMARK 922        TOTAL FREE ENERGY PREDICTED BY IDOCK:   -3.76 KCAL/MOL
REMARK 923 INTER-LIGAND FREE ENERGY PREDICTED BY IDOCK:   -3.63 KCAL/MOL
REMARK 924 INTRA-LIGAND FREE ENERGY PREDICTED BY IDOCK:   -0.13 KCAL/MOL
REMARK 927      BINDING AFFINITY PREDICTED BY RF-SCORE:    0.00 PKD
ROOT
HETATM    1  C   UNL     1      -6.877  10.193  67.533  1.00  0.00    -0.077 C  
HETATM    2  C   UNL     1      -8.356   9.996  67.160  1.00  0.00    -0.121 C  
HETATM    3  C   UNL     1      -8.502  10.266  65.637  1.00  0.00    -0.160 C  
HETATM    4  C   UNL     1      -8.840   8.577  67.551  1.00  0.00    -0.139 C  
ENDROOT
BRANCH   4   5
HETATM    5  C   UNL     1      -8.679   8.244  69.022  1.00  0.00    -0.143 A  
HETATM    6  C   UNL     1      -8.170   9.182  69.925  1.00  0.00    -0.137 A  
HETATM    7  C   UNL     1      -8.059   8.884  71.291  1.00  0.00    -0.185 A  
HETATM    8  C   UNL     1      -9.048   6.989  69.518  1.00  0.00    -0.146 A  
HETATM    9  C   UNL     1      -8.459   7.637  71.809  1.00  0.00    -0.124 A  
HETATM   10  C   UNL     1      -8.941   6.695  70.885  1.00  0.00    -0.147 A  
BRANCH   9  11
HETATM   11  C   UNL     1      -8.379   7.352  73.320  1.00  0.00    -0.152 C  
HETATM   12  C   UNL     1      -7.711   5.998  73.655  1.00  0.00    -0.096 C  
HETATM   13  C   UNL     1      -7.566   8.454  74.030  1.00  0.00    -0.200 C  
HETATM   14  C   UNL     1      -9.800   7.313  73.930  1.00  0.00    -0.322 C  
ENDBRANCH   9  11
ENDBRANCH   4   5
BRANCH   3  15
HETATM   15  N   UNL     1      -9.861  10.224  65.066  1.00  0.00    -0.310 NA 
HETATM   16  C   UNL     1     -10.365  12.836  63.729  1.00  0.00    -0.269 C  
HETATM   17  C   UNL     1      -9.466  11.775  63.102  1.00  0.00    -0.185 C  
HETATM   18  C   UNL     1      -9.818  10.364  63.594  1.00  0.00    -0.223 C  
HETATM   19  C   UNL     1     -10.789  11.221  65.622  1.00  0.00    -0.177 C  
HETATM   20  C   UNL     1     -10.453  12.666  65.243  1.00  0.00    -0.312 C  
ENDBRANCH   3  15
TORSDOF 3
ENDMDL
MODEL      108
REMARK 921   NORMALIZED FREE ENERGY PREDICTED BY IDOCK:   -2.55 KCAL/MOL
REMARK 922        TOTAL FREE ENERGY PREDICTED BY IDOCK:   -3.53 KCAL/MOL
REMARK 923 INTER-LIGAND FREE ENERGY PREDICTED BY IDOCK:   -3.02 KCAL/MOL
REMARK 924 INTRA-LIGAND FREE ENERGY PREDICTED BY IDOCK:   -0.51 KCAL/MOL
REMARK 927      BINDING AFFINITY PREDICTED BY RF-SCORE:    0.00 PKD
ROOT
HETATM    1  C   UNL     1     -11.189   6.335  68.865  1.00  0.00    -0.387 C  
HETATM    2  C   UNL     1      -9.747   6.471  69.383  1.00  0.00    -0.155 C  
HETATM    3  C   UNL     1      -9.815   6.774  70.906  1.00  0.00    -0.186 C  
HETATM    4  C   UNL     1      -8.928   5.193  69.077  1.00  0.00    -0.123 C  
ENDROOT
BRANCH   4   5
HETATM    5  C   UNL     1      -8.866   4.825  67.608  1.00  0.00    -0.110 A  
HETATM    6  C   UNL     1      -8.329   5.706  66.664  1.00  0.00    -0.112 A  
HETATM    7  C   UNL     1      -8.237   5.348  65.310  1.00  0.00    -0.133 A  
HETATM    8  C   UNL     1      -9.334   3.586  67.156  1.00  0.00    -0.229 A  
HETATM    9  C   UNL     1      -8.673   4.091  64.849  1.00  0.00    -0.118 A  
HETATM   10  C   UNL     1      -9.237   3.229  65.804  1.00  0.00    -0.149 A  
BRANCH   9  11
HETATM   11  C   UNL     1      -8.512   3.697  63.369  1.00  0.00    -0.090 C  
HETATM   12  C   UNL     1      -9.498   4.428  62.428  1.00  0.00    -0.124 C  
HETATM   13  C   UNL     1      -7.084   4.025  62.882  1.00  0.00    -0.040 C  
HETATM   14  C   UNL     1      -8.761   2.182  63.191  1.00  0.00    -0.084 C  
ENDBRANCH   9  11
ENDBRANCH   4   5
BRANCH   3  15
HETATM   15  N   UNL     1      -8.543   7.036  71.605  1.00  0.00    -0.116 NA 
HETATM   16  C   UNL     1      -8.843   6.101  74.415  1.00  0.00    -0.139 C  
HETATM   17  C   UNL     1      -8.651   5.122  73.261  1.00  0.00    -0.113 C  
HETATM   18  C   UNL     1      -7.930   5.774  72.073  1.00  0.00    -0.107 C  
HETATM   19  C   UNL     1      -8.648   7.973  72.734  1.00  0.00    -0.192 C  
HETATM   20  C   UNL     1      -9.430   7.424  73.930  1.00  0.00    -0.312 C  
ENDBRANCH   3  15
TORSDOF 3
ENDMDL
MODEL      109
REMARK 921   NORMALIZED FREE ENERGY PREDICTED BY IDOCK:   -2.54 KCAL/MOL
REMARK 922        TOTAL FREE ENERGY PREDICTED BY IDOCK:   -3.52 KCAL/MOL
REMARK 923 INTER-LIGAND FREE ENERGY PREDICTED BY IDOCK:   -4.59 KCAL/MOL
REMARK 924 INTRA-LIGAND FREE ENERGY PREDICTED BY IDOCK:    1.07 KCAL/MOL
REMARK 927      BINDING AFFINITY PREDICTED BY RF-SCORE:    0.00 PKD
ROOT
HETATM    1  C   UNL     1      -7.632   8.257  72.668  1.00  0.00    -0.160 C  
HETATM    2  C   UNL     1      -8.597   7.150  72.211  1.00  0.00    -0.128 C  
HETATM    3  C   UNL     1      -8.441   5.949  73.185  1.00  0.00    -0.116 C  
HETATM    4  C   UNL     1     -10.053   7.675  72.157  1.00  0.00    -0.246 C  
ENDROOT
BRANCH   4   5
HETATM    5  C   UNL     1     -10.253   8.876  71.254  1.00  0.00    -0.361 A  
HETATM    6  C   UNL     1      -9.345   9.173  70.233  1.00  0.00    -0.253 A  
HETATM    7  C   UNL     1      -9.554  10.262  69.374  1.00  0.00    -0.237 A  
HETATM    8  C   UNL     1     -11.363   9.714  71.409  1.00  0.00    -0.444 A  
HETATM    9  C   UNL     1     -10.684  11.093  69.498  1.00  0.00    -0.193 A  
HETATM   10  C   UNL     1     -11.572  10.799  70.546  1.00  0.00    -0.425 A  
BRANCH   9  11
HETATM   11  C   UNL     1     -10.921  12.250  68.509  1.00  0.00    -0.275 C  
HETATM   12  C   UNL     1     -11.782  13.393  69.096  1.00  0.00    -0.375 C  
HETATM   13  C   UNL     1      -9.575  12.865  68.073  1.00  0.00    -0.221 C  
HETATM   14  C   UNL     1     -11.660  11.732  67.253  1.00  0.00    -0.344 C  
ENDBRANCH   9  11
ENDBRANCH   4   5
BRANCH   3  15
HETATM   15  N   UNL     1      -9.210   4.727  72.886  1.00  0.00    -0.124 NA 
HETATM   16  C   UNL     1      -8.651   3.970  70.062  1.00  0.00    -0.102 C  
HETATM   17  C   UNL     1      -7.634   3.729  71.172  1.00  0.00    -0.044 C  
HETATM   18  C   UNL     1      -8.306   3.607  72.547  1.00  0.00    -0.085 C  
HETATM   19  C   UNL     1     -10.214   4.880  71.822  1.00  0.00    -0.200 C  
HETATM   20  C   UNL     1      -9.618   5.093  70.428  1.00  0.00    -0.252 C  
ENDBRANCH   3  15
TORSDOF 3
ENDMDL
MODEL      110
REMARK 921   NORMALIZED FREE ENERGY PREDICTED BY IDOCK:   -2.41 KCAL/MOL
REMARK 922        TOTAL FREE ENERGY PREDICTED BY IDOCK:   -3.36 KCAL/MOL
REMARK 923 INTER-LIGAND FREE ENERGY PREDICTED BY IDOCK:   -4.38 KCAL/MOL
REMARK 924 INTRA-LIGAND FREE ENERGY PREDICTED BY IDOCK:    1.01 KCAL/MOL
REMARK 927      BINDING AFFINITY PREDICTED BY RF-SCORE:    0.00 PKD
ROOT
HETATM    1  C   UNL     1      -6.860  16.441  69.367  1.00  0.00    -0.217 C  
HETATM    2  C   UNL     1      -7.585  17.735  68.957  1.00  0.00    -0.153 C  
HETATM    3  C   UNL     1      -6.610  18.921  69.190  1.00  0.00    -0.291 C  
HETATM    4  C   UNL     1      -8.068  17.654  67.488  1.00  0.00    -0.217 C  
ENDROOT
BRANCH   4   5
HETATM    5  C   UNL     1      -8.990  16.487  67.194  1.00  0.00    -0.221 A  
HETATM    6  C   UNL     1     -10.364  16.571  67.436  1.00  0.00    -0.290 A  
HETATM    7  C   UNL     1     -11.220  15.503  67.127  1.00  0.00    -0.204 A  
HETATM    8  C   UNL     1      -8.490  15.294  66.660  1.00  0.00    -0.264 A  
HETATM    9  C   UNL     1     -10.734  14.310  66.558  1.00  0.00    -0.297 A  
HETATM   10  C   UNL     1      -9.348  14.230  66.348  1.00  0.00    -0.270 A  
BRANCH   9  11
HETATM   11  C   UNL     1     -11.699  13.172  66.175  1.00  0.00    -0.428 C  
HETATM   12  C   UNL     1     -12.810  13.613  65.194  1.00  0.00    -0.382 C  
HETATM   13  C   UNL     1     -10.925  12.018  65.505  1.00  0.00    -0.345 C  
HETATM   14  C   UNL     1     -12.406  12.627  67.438  1.00  0.00     0.344 C  
ENDBRANCH   9  11
ENDBRANCH   4   5
BRANCH   3  15
HETATM   15  N   UNL     1      -7.124  20.282  68.949  1.00  0.00    -0.142 NA 
HETATM   16  C   UNL     1      -6.123  21.173  66.290  1.00  0.00    -0.327 C  
HETATM   17  C   UNL     1      -7.260  20.165  66.422  1.00  0.00    -0.305 C  
HETATM   18  C   UNL     1      -8.001  20.310  67.759  1.00  0.00    -0.232 C  
HETATM   19  C   UNL     1      -6.083  21.313  68.810  1.00  0.00     0.177 C  
HETATM   20  C   UNL     1      -5.243  21.184  67.537  1.00  0.00    -0.312 C  
ENDBRANCH   3  15
TORSDOF 3
ENDMDL
MODEL      111
REMARK 921   NORMALIZED FREE ENERGY PREDICTED BY IDOCK:   -2.27 KCAL/MOL
REMARK 922        TOTAL FREE ENERGY PREDICTED BY IDOCK:   -3.19 KCAL/MOL
REMARK 923 INTER-LIGAND FREE ENERGY PREDICTED BY IDOCK:   -3.30 KCAL/MOL
REMARK 924 INTRA-LIGAND FREE ENERGY PREDICTED BY IDOCK:    0.11 KCAL/MOL
REMARK 927      BINDING AFFINITY PREDICTED BY RF-SCORE:    0.00 PKD
ROOT
HETATM    1  C   UNL     1      -9.016   9.049  70.739  1.00  0.00    -0.286 C  
HETATM    2  C   UNL     1      -9.550   7.676  70.297  1.00  0.00    -0.172 C  
HETATM    3  C   UNL     1     -10.536   7.175  71.387  1.00  0.00    -0.216 C  
HETATM    4  C   UNL     1     -10.217   7.768  68.902  1.00  0.00    -0.220 C  
ENDROOT
BRANCH   4   5
HETATM    5  C   UNL     1      -9.310   8.294  67.807  1.00  0.00    -0.153 A  
HETATM    6  C   UNL     1      -8.191   9.077  68.107  1.00  0.00    -0.113 A  
HETATM    7  C   UNL     1      -7.332   9.529  67.095  1.00  0.00    -0.088 A  
HETATM    8  C   UNL     1      -9.562   8.000  66.462  1.00  0.00    -0.295 A  
HETATM    9  C   UNL     1      -7.557   9.212  65.741  1.00  0.00    -0.091 A  
HETATM   10  C   UNL     1      -8.700   8.449  65.452  1.00  0.00    -0.175 A  
BRANCH   9  11
HETATM   11  C   UNL     1      -6.570   9.673  64.652  1.00  0.00    -0.100 C  
HETATM   12  C   UNL     1      -5.646  10.826  65.109  1.00  0.00    -0.087 C  
HETATM   13  C   UNL     1      -5.664   8.500  64.221  1.00  0.00    -0.064 C  
HETATM   14  C   UNL     1      -7.344  10.182  63.414  1.00  0.00    -0.132 C  
ENDBRANCH   9  11
ENDBRANCH   4   5
BRANCH   3  15
HETATM   15  N   UNL     1     -11.108   5.826  71.219  1.00  0.00    -0.238 NA 
HETATM   16  C   UNL     1      -9.952   4.079  73.334  1.00  0.00    -0.181 C  
HETATM   17  C   UNL     1     -11.034   5.107  73.646  1.00  0.00    -0.350 C  
HETATM   18  C   UNL     1     -11.888   5.432  72.412  1.00  0.00     0.029 C  
HETATM   19  C   UNL     1     -10.123   4.777  70.914  1.00  0.00    -0.205 C  
HETATM   20  C   UNL     1      -9.176   4.455  72.074  1.00  0.00    -0.169 C  
ENDBRANCH   3  15
TORSDOF 3
ENDMDL
MODEL      112
REMARK 921   NORMALIZED FREE ENERGY PREDICTED BY IDOCK:   -1.95 KCAL/MOL
REMARK 922        TOTAL FREE ENERGY PREDICTED BY IDOCK:   -2.82 KCAL/MOL
REMARK 923 INTER-LIGAND FREE ENERGY PREDICTED BY IDOCK:   -3.31 KCAL/MOL
REMARK 924 INTRA-LIGAND FREE ENERGY PREDICTED BY IDOCK:    0.49 KCAL/MOL
REMARK 927      BINDING AFFINITY PREDICTED BY RF-SCORE:    0.00 PKD
ROOT
HETATM    1  C   UNL     1      -6.777   4.236  68.335  1.00  0.00    -0.047 C  
HETATM    2  C   UNL     1      -7.406   4.989  67.150  1.00  0.00    -0.082 C  
HETATM    3  C   UNL     1      -6.761   4.446  65.845  1.00  0.00    -0.053 C  
HETATM    4  C   UNL     1      -8.946   4.831  67.151  1.00  0.00    -0.114 C  
ENDROOT
BRANCH   4   5
HETATM    5  C   UNL     1      -9.624   5.306  68.422  1.00  0.00    -0.176 A  
HETATM    6  C   UNL     1     -10.833   6.007  68.378  1.00  0.00    -0.361 A  
HETATM    7  C   UNL     1     -11.478   6.411  69.557  1.00  0.00    -0.412 A  
HETATM    8  C   UNL     1      -9.063   5.044  69.676  1.00  0.00    -0.151 A  
HETATM    9  C   UNL     1     -10.940   6.123  70.827  1.00  0.00    -0.365 A  
HETATM   10  C   UNL     1      -9.711   5.444  70.853  1.00  0.00    -0.237 A  
BRANCH   9  11
HETATM   11  C   UNL     1     -11.693   6.528  72.108  1.00  0.00    -0.353 C  
HETATM   12  C   UNL     1     -12.197   5.320  72.931  1.00  0.00     0.154 C  
HETATM   13  C   UNL     1     -10.773   7.359  73.028  1.00  0.00    -0.413 C  
HETATM   14  C   UNL     1     -12.935   7.377  71.750  1.00  0.00    -0.365 C  
ENDBRANCH   9  11
ENDBRANCH   4   5
BRANCH   3  15
HETATM   15  N   UNL     1      -7.148   5.090  64.576  1.00  0.00    -0.053 NA 
HETATM   16  C   UNL     1      -7.293   2.971  62.491  1.00  0.00    -0.044 C  
HETATM   17  C   UNL     1      -8.380   3.131  63.548  1.00  0.00    -0.086 C  
HETATM   18  C   UNL     1      -8.443   4.565  64.093  1.00  0.00    -0.121 C  
HETATM   19  C   UNL     1      -6.147   4.978  63.504  1.00  0.00    -0.022 C  
HETATM   20  C   UNL     1      -5.966   3.556  62.965  1.00  0.00    -0.014 C  
ENDBRANCH   3  15
TORSDOF 3
ENDMDL
MODEL      113
REMARK 921   NORMALIZED FREE ENERGY PREDICTED BY IDOCK:   -1.58 KCAL/MOL
REMARK 922        TOTAL FREE ENERGY PREDICTED BY IDOCK:   -2.39 KCAL/MOL
REMARK 923 INTER-LIGAND FREE ENERGY PREDICTED BY IDOCK:   -2.01 KCAL/MOL
REMARK 924 INTRA-LIGAND FREE ENERGY PREDICTED BY IDOCK:   -0.38 KCAL/MOL
REMARK 927      BINDING AFFINITY PREDICTED BY RF-SCORE:    0.00 PKD
ROOT
HETATM    1  C   UNL     1     -12.308  10.620  68.570  1.00  0.00     0.756 C  
HETATM    2  C   UNL     1     -11.603  11.815  69.233  1.00  0.00    -0.378 C  
HETATM    3  C   UNL     1     -12.399  12.187  70.514  1.00  0.00    -0.272 C  
HETATM    4  C   UNL     1     -10.122  11.480  69.540  1.00  0.00     0.387 C  
ENDROOT
BRANCH   4   5
HETATM    5  C   UNL     1      -9.308  11.068  68.330  1.00  0.00    -0.172 A  
HETATM    6  C   UNL     1      -8.396  11.947  67.737  1.00  0.00    -0.149 A  
HETATM    7  C   UNL     1      -7.616  11.549  66.641  1.00  0.00    -0.088 A  
HETATM    8  C   UNL     1      -9.438   9.788  67.779  1.00  0.00    -0.152 A  
HETATM    9  C   UNL     1      -7.714  10.253  66.098  1.00  0.00    -0.123 A  
HETATM   10  C   UNL     1      -8.654   9.392  66.686  1.00  0.00    -0.138 A  
BRANCH   9  11
HETATM   11  C   UNL     1      -6.808   9.821  64.930  1.00  0.00    -0.117 C  
HETATM   12  C   UNL     1      -6.504   8.305  64.918  1.00  0.00    -0.056 C  
HETATM   13  C   UNL     1      -7.474  10.167  63.582  1.00  0.00    -0.129 C  
HETATM   14  C   UNL     1      -5.447  10.550  65.014  1.00  0.00    -0.147 C  
ENDBRANCH   9  11
ENDBRANCH   4   5
BRANCH   3  15
HETATM   15  N   UNL     1     -11.955  13.372  71.271  1.00  0.00     0.103 NA 
HETATM   16  C   UNL     1     -14.284  15.209  71.527  1.00  0.00    -0.647 C  
HETATM   17  C   UNL     1     -14.168  13.940  72.364  1.00  0.00    -0.506 C  
HETATM   18  C   UNL     1     -12.708  13.500  72.537  1.00  0.00    -0.024 C  
HETATM   19  C   UNL     1     -12.037  14.639  70.527  1.00  0.00    -0.321 C  
HETATM   20  C   UNL     1     -13.468  15.102  70.241  1.00  0.00     0.166 C  
ENDBRANCH   3  15
TORSDOF 3
ENDMDL
MODEL      114
REMARK 921   NORMALIZED FREE ENERGY PREDICTED BY IDOCK:   -1.52 KCAL/MOL
REMARK 922        TOTAL FREE ENERGY PREDICTED BY IDOCK:   -2.31 KCAL/MOL
REMARK 923 INTER-LIGAND FREE ENERGY PREDICTED BY IDOCK:   -3.58 KCAL/MOL
REMARK 924 INTRA-LIGAND FREE ENERGY PREDICTED BY IDOCK:    1.27 KCAL/MOL
REMARK 927      BINDING AFFINITY PREDICTED BY RF-SCORE:    0.00 PKD
ROOT
HETATM    1  C   UNL     1      -9.812   6.949  66.689  1.00  0.00    -0.217 C  
HETATM    2  C   UNL     1      -9.007   8.244  66.485  1.00  0.00    -0.189 C  
HETATM    3  C   UNL     1      -8.307   8.158  65.101  1.00  0.00    -0.143 C  
HETATM    4  C   UNL     1      -9.924   9.487  66.600  1.00  0.00    -0.314 C  
ENDROOT
BRANCH   4   5
HETATM    5  C   UNL     1     -10.667   9.598  67.917  1.00  0.00    -0.302 A  
HETATM    6  C   UNL     1     -11.524  10.673  68.176  1.00  0.00    -0.303 A  
HETATM    7  C   UNL     1     -12.240  10.752  69.380  1.00  0.00    -0.242 A  
HETATM    8  C   UNL     1     -10.525   8.619  68.907  1.00  0.00    -0.211 A  
HETATM    9  C   UNL     1     -12.131   9.756  70.370  1.00  0.00    -0.176 A  
HETATM   10  C   UNL     1     -11.245   8.699  70.107  1.00  0.00    -0.152 A  
BRANCH   9  11
HETATM   11  C   UNL     1     -12.969   9.836  71.660  1.00  0.00    -0.517 C  
HETATM   12  C   UNL     1     -14.380   9.221  71.515  1.00  0.00    -0.039 C  
HETATM   13  C   UNL     1     -12.256   9.088  72.807  1.00  0.00     0.133 C  
HETATM   14  C   UNL     1     -13.163  11.312  72.077  1.00  0.00    -0.437 C  
ENDBRANCH   9  11
ENDBRANCH   4   5
BRANCH   3  15
HETATM   15  N   UNL     1      -7.400   9.258  64.727  1.00  0.00    -0.101 NA 
HETATM   16  C   UNL     1      -5.363   9.528  66.882  1.00  0.00    -0.045 C  
HETATM   17  C   UNL     1      -5.308   8.393  65.864  1.00  0.00    -0.031 C  
HETATM   18  C   UNL     1      -6.017   8.765  64.554  1.00  0.00    -0.065 C  
HETATM   19  C   UNL     1      -7.397  10.393  65.663  1.00  0.00    -0.148 C  
HETATM   20  C   UNL     1      -6.781  10.075  67.028  1.00  0.00    -0.078 C  
ENDBRANCH   3  15
TORSDOF 3
ENDMDL
MODEL      115
REMARK 921   NORMALIZED FREE ENERGY PREDICTED BY IDOCK:   -1.18 KCAL/MOL
REMARK 922        TOTAL FREE ENERGY PREDICTED BY IDOCK:   -1.91 KCAL/MOL
REMARK 923 INTER-LIGAND FREE ENERGY PREDICTED BY IDOCK:   -2.28 KCAL/MOL
REMARK 924 INTRA-LIGAND FREE ENERGY PREDICTED BY IDOCK:    0.36 KCAL/MOL
REMARK 927      BINDING AFFINITY PREDICTED BY RF-SCORE:    0.00 PKD
ROOT
HETATM    1  C   UNL     1      -8.564   8.481  69.928  1.00  0.00    -0.131 C  
HETATM    2  C   UNL     1      -7.974   7.064  70.031  1.00  0.00    -0.115 C  
HETATM    3  C   UNL     1      -8.420   6.460  71.392  1.00  0.00    -0.126 C  
HETATM    4  C   UNL     1      -8.419   6.193  68.831  1.00  0.00    -0.118 C  
ENDROOT
BRANCH   4   5
HETATM    5  C   UNL     1      -8.046   6.758  67.474  1.00  0.00    -0.115 A  
HETATM    6  C   UNL     1      -8.485   8.024  67.072  1.00  0.00    -0.120 A  
HETATM    7  C   UNL     1      -8.107   8.560  65.833  1.00  0.00    -0.116 A  
HETATM    8  C   UNL     1      -7.240   6.032  66.590  1.00  0.00    -0.074 A  
HETATM    9  C   UNL     1      -7.269   7.854  64.948  1.00  0.00    -0.066 A  
HETATM   10  C   UNL     1      -6.860   6.573  65.353  1.00  0.00    -0.048 A  
BRANCH   9  11
HETATM   11  C   UNL     1      -6.822   8.485  63.617  1.00  0.00    -0.087 C  
HETATM   12  C   UNL     1      -6.170   9.877  63.786  1.00  0.00    -0.125 C  
HETATM   13  C   UNL     1      -5.791   7.577  62.914  1.00  0.00    -0.051 C  
HETATM   14  C   UNL     1      -8.038   8.671  62.681  1.00  0.00    -0.177 C  
ENDBRANCH   9  11
ENDBRANCH   4   5
BRANCH   3  15
HETATM   15  N   UNL     1      -7.894   5.131  71.751  1.00  0.00    -0.107 NA 
HETATM   16  C   UNL     1     -10.131   3.558  72.929  1.00  0.00    -0.224 C  
HETATM   17  C   UNL     1     -10.030   3.807  71.428  1.00  0.00    -0.178 C  
HETATM   18  C   UNL     1      -8.582   4.068  70.987  1.00  0.00    -0.076 C  
HETATM   19  C   UNL     1      -7.958   4.816  73.187  1.00  0.00    -0.100 C  
HETATM   20  C   UNL     1      -9.380   4.625  73.721  1.00  0.00    -0.121 C  
ENDBRANCH   3  15
TORSDOF 3
ENDMDL
MODEL      116
REMARK 921   NORMALIZED FREE ENERGY PREDICTED BY IDOCK:   -0.59 KCAL/MOL
REMARK 922        TOTAL FREE ENERGY PREDICTED BY IDOCK:   -1.22 KCAL/MOL
REMARK 923 INTER-LIGAND FREE ENERGY PREDICTED BY IDOCK:   -2.64 KCAL/MOL
REMARK 924 INTRA-LIGAND FREE ENERGY PREDICTED BY IDOCK:    1.42 KCAL/MOL
REMARK 927      BINDING AFFINITY PREDICTED BY RF-SCORE:    0.00 PKD
ROOT
HETATM    1  C   UNL     1     -10.158   8.952  71.897  1.00  0.00    -0.393 C  
HETATM    2  C   UNL     1      -9.031   7.905  71.864  1.00  0.00    -0.180 C  
HETATM    3  C   UNL     1      -9.059   7.133  73.211  1.00  0.00    -0.148 C  
HETATM    4  C   UNL     1      -9.191   6.962  70.646  1.00  0.00    -0.158 C  
ENDROOT
BRANCH   4   5
HETATM    5  C   UNL     1      -9.215   7.669  69.305  1.00  0.00    -0.145 A  
HETATM    6  C   UNL     1      -8.273   8.653  68.989  1.00  0.00    -0.122 A  
HETATM    7  C   UNL     1      -8.273   9.278  67.732  1.00  0.00    -0.115 A  
HETATM    8  C   UNL     1     -10.174   7.346  68.339  1.00  0.00    -0.207 A  
HETATM    9  C   UNL     1      -9.213   8.937  66.740  1.00  0.00    -0.201 A  
HETATM   10  C   UNL     1     -10.170   7.968  67.083  1.00  0.00    -0.362 A  
BRANCH   9  11
HETATM   11  C   UNL     1      -9.160   9.596  65.349  1.00  0.00    -0.265 C  
HETATM   12  C   UNL     1      -7.942  10.529  65.157  1.00  0.00    -0.094 C  
HETATM   13  C   UNL     1      -9.090   8.516  64.249  1.00  0.00     0.582 C  
HETATM   14  C   UNL     1     -10.424  10.457  65.120  1.00  0.00    -0.158 C  
ENDBRANCH   9  11
ENDBRANCH   4   5
BRANCH   3  15
HETATM   15  N   UNL     1      -8.002   6.131  73.444  1.00  0.00    -0.106 NA 
HETATM   16  C   UNL     1      -8.997   3.512  72.438  1.00  0.00    -0.126 C  
HETATM   17  C   UNL     1      -8.525   4.607  71.489  1.00  0.00    -0.117 C  
HETATM   18  C   UNL     1      -7.528   5.559  72.165  1.00  0.00    -0.099 C  
HETATM   19  C   UNL     1      -8.384   5.038  74.352  1.00  0.00    -0.104 C  
HETATM   20  C   UNL     1      -9.441   4.091  73.779  1.00  0.00    -0.123 C  
ENDBRANCH   3  15
TORSDOF 3
ENDMDL
MODEL      117
REMARK 921   NORMALIZED FREE ENERGY PREDICTED BY IDOCK:   -0.12 KCAL/MOL
REMARK 922        TOTAL FREE ENERGY PREDICTED BY IDOCK:   -0.67 KCAL/MOL
REMARK 923 INTER-LIGAND FREE ENERGY PREDICTED BY IDOCK:   -1.28 KCAL/MOL
REMARK 924 INTRA-LIGAND FREE ENERGY PREDICTED BY IDOCK:    0.61 KCAL/MOL
REMARK 927      BINDING AFFINITY PREDICTED BY RF-SCORE:    0.00 PKD
ROOT
HETATM    1  C   UNL     1      -8.670  15.878  65.215  1.00  0.00     1.888 C  
HETATM    2  C   UNL     1      -9.476  15.048  66.228  1.00  0.00    -0.342 C  
HETATM    3  C   UNL     1     -10.004  13.784  65.496  1.00  0.00    -0.238 C  
HETATM    4  C   UNL     1      -8.611  14.692  67.461  1.00  0.00    -0.196 C  
ENDROOT
BRANCH   4   5
HETATM    5  C   UNL     1      -8.033  15.890  68.190  1.00  0.00    -0.137 A  
HETATM    6  C   UNL     1      -7.048  15.735  69.170  1.00  0.00    -0.176 A  
HETATM    7  C   UNL     1      -6.488  16.848  69.814  1.00  0.00    -0.101 A  
HETATM    8  C   UNL     1      -8.463  17.187  67.891  1.00  0.00    -0.212 A  
HETATM    9  C   UNL     1      -6.888  18.161  69.498  1.00  0.00    -0.048 A  
HETATM   10  C   UNL     1      -7.898  18.299  68.533  1.00  0.00    -0.313 A  
BRANCH   9  11
HETATM   11  C   UNL     1      -6.220  19.371  70.179  1.00  0.00    -0.230 C  
HETATM   12  C   UNL     1      -5.537  20.336  69.182  1.00  0.00    -0.311 C  
HETATM   13  C   UNL     1      -7.268  20.187  70.965  1.00  0.00     0.865 C  
HETATM   14  C   UNL     1      -5.126  18.892  71.161  1.00  0.00    -0.282 C  
ENDBRANCH   9  11
ENDBRANCH   4   5
BRANCH   3  15
HETATM   15  N   UNL     1     -10.886  12.877  66.253  1.00  0.00    -0.272 NA 
HETATM   16  C   UNL     1      -9.590  10.198  66.324  1.00  0.00    -0.245 C  
HETATM   17  C   UNL     1      -9.099  11.350  67.194  1.00  0.00    -0.164 C  
HETATM   18  C   UNL     1     -10.208  12.375  67.467  1.00  0.00    -0.209 C  
HETATM   19  C   UNL     1     -11.403  11.738  65.478  1.00  0.00    -0.223 C  
HETATM   20  C   UNL     1     -10.335  10.710  65.093  1.00  0.00    -0.331 C  
ENDBRANCH   3  15
TORSDOF 3
ENDMDL
MODEL      118
REMARK 921   NORMALIZED FREE ENERGY PREDICTED BY IDOCK:    0.05 KCAL/MOL
REMARK 922        TOTAL FREE ENERGY PREDICTED BY IDOCK:   -0.47 KCAL/MOL
REMARK 923 INTER-LIGAND FREE ENERGY PREDICTED BY IDOCK:   -1.89 KCAL/MOL
REMARK 924 INTRA-LIGAND FREE ENERGY PREDICTED BY IDOCK:    1.42 KCAL/MOL
REMARK 927      BINDING AFFINITY PREDICTED BY RF-SCORE:    0.00 PKD
ROOT
HETATM    1  C   UNL     1      -7.744   9.193  70.481  1.00  0.00    -0.142 C  
HETATM    2  C   UNL     1      -6.807   8.746  69.346  1.00  0.00    -0.049 C  
HETATM    3  C   UNL     1      -7.044   7.231  69.102  1.00  0.00    -0.080 C  
HETATM    4  C   UNL     1      -7.046   9.589  68.069  1.00  0.00    -0.080 C  
ENDROOT
BRANCH   4   5
HETATM    5  C   UNL     1      -6.870  11.083  68.262  1.00  0.00    -0.067 A  
HETATM    6  C   UNL     1      -7.134  11.983  67.224  1.00  0.00    -0.149 A  
HETATM    7  C   UNL     1      -7.008  13.366  67.418  1.00  0.00    -0.098 A  
HETATM    8  C   UNL     1      -6.449  11.604  69.490  1.00  0.00    -0.122 A  
HETATM    9  C   UNL     1      -6.617  13.905  68.659  1.00  0.00    -0.095 A  
HETATM   10  C   UNL     1      -6.328  12.987  69.683  1.00  0.00    -0.089 A  
BRANCH   9  11
HETATM   11  C   UNL     1      -6.539  15.429  68.865  1.00  0.00    -0.110 C  
HETATM   12  C   UNL     1      -6.368  16.218  67.546  1.00  0.00    -0.189 C  
HETATM   13  C   UNL     1      -7.826  15.943  69.544  1.00  0.00    -0.112 C  
HETATM   14  C   UNL     1      -5.330  15.784  69.760  1.00  0.00    -0.119 C  
ENDBRANCH   9  11
ENDBRANCH   4   5
BRANCH   3  15
HETATM   15  N   UNL     1      -6.184   6.558  68.111  1.00  0.00    -0.031 NA 
HETATM   16  C   UNL     1      -7.784   6.179  65.629  1.00  0.00    -0.092 C  
HETATM   17  C   UNL     1      -7.221   7.542  66.019  1.00  0.00    -0.070 C  
HETATM   18  C   UNL     1      -5.985   7.413  66.920  1.00  0.00    -0.038 C  
HETATM   19  C   UNL     1      -6.663   5.234  67.683  1.00  0.00    -0.055 C  
HETATM   20  C   UNL     1      -7.946   5.275  66.848  1.00  0.00    -0.101 C  
ENDBRANCH   3  15
TORSDOF 3
ENDMDL
MODEL      119
REMARK 921   NORMALIZED FREE ENERGY PREDICTED BY IDOCK:    0.07 KCAL/MOL
REMARK 922        TOTAL FREE ENERGY PREDICTED BY IDOCK:   -0.44 KCAL/MOL
REMARK 923 INTER-LIGAND FREE ENERGY PREDICTED BY IDOCK:   -2.73 KCAL/MOL
REMARK 924 INTRA-LIGAND FREE ENERGY PREDICTED BY IDOCK:    2.29 KCAL/MOL
REMARK 927      BINDING AFFINITY PREDICTED BY RF-SCORE:    0.00 PKD
ROOT
HETATM    1  C   UNL     1     -10.436   7.884  66.641  1.00  0.00    -0.193 C  
HETATM    2  C   UNL     1      -9.269   7.903  67.643  1.00  0.00    -0.147 C  
HETATM    3  C   UNL     1      -8.466   6.586  67.464  1.00  0.00    -0.120 C  
HETATM    4  C   UNL     1      -8.387   9.159  67.437  1.00  0.00    -0.115 C  
ENDROOT
BRANCH   4   5
HETATM    5  C   UNL     1      -9.131  10.475  67.558  1.00  0.00    -0.144 A  
HETATM    6  C   UNL     1      -9.713  10.869  68.767  1.00  0.00    -0.196 A  
HETATM    7  C   UNL     1     -10.367  12.104  68.886  1.00  0.00    -0.098 A  
HETATM    8  C   UNL     1      -9.245  11.339  66.463  1.00  0.00    -0.200 A  
HETATM    9  C   UNL     1     -10.459  12.997  67.801  1.00  0.00    -0.232 A  
HETATM   10  C   UNL     1      -9.895  12.575  66.586  1.00  0.00    -0.245 A  
BRANCH   9  11
HETATM   11  C   UNL     1     -11.133  14.372  67.970  1.00  0.00    -0.287 C  
HETATM   12  C   UNL     1     -10.304  15.539  67.385  1.00  0.00    -0.266 C  
HETATM   13  C   UNL     1     -12.505  14.384  67.263  1.00  0.00     0.119 C  
HETATM   14  C   UNL     1     -11.345  14.680  69.470  1.00  0.00    -0.314 C  
ENDBRANCH   9  11
ENDBRANCH   4   5
BRANCH   3  15
HETATM   15  N   UNL     1      -7.344   6.342  68.389  1.00  0.00    -0.084 NA 
HETATM   16  C   UNL     1      -5.125   8.175  67.630  1.00  0.00    -0.033 C  
HETATM   17  C   UNL     1      -6.359   8.675  68.373  1.00  0.00    -0.055 C  
HETATM   18  C   UNL     1      -7.037   7.556  69.176  1.00  0.00    -0.078 C  
HETATM   19  C   UNL     1      -6.114   5.856  67.744  1.00  0.00    -0.022 C  
HETATM   20  C   UNL     1      -5.424   6.894  66.855  1.00  0.00    -0.017 C  
ENDBRANCH   3  15
TORSDOF 3
ENDMDL
MODEL      120
REMARK 921   NORMALIZED FREE ENERGY PREDICTED BY IDOCK:    0.69 KCAL/MOL
REMARK 922        TOTAL FREE ENERGY PREDICTED BY IDOCK:    0.28 KCAL/MOL
REMARK 923 INTER-LIGAND FREE ENERGY PREDICTED BY IDOCK:   -2.78 KCAL/MOL
REMARK 924 INTRA-LIGAND FREE ENERGY PREDICTED BY IDOCK:    3.06 KCAL/MOL
REMARK 927      BINDING AFFINITY PREDICTED BY RF-SCORE:    0.00 PKD
ROOT
HETATM    1  C   UNL     1      -8.536   6.173  73.754  1.00  0.00    -0.123 C  
HETATM    2  C   UNL     1      -8.492   5.037  72.718  1.00  0.00    -0.116 C  
HETATM    3  C   UNL     1      -8.402   3.691  73.489  1.00  0.00    -0.083 C  
HETATM    4  C   UNL     1      -9.727   5.094  71.785  1.00  0.00    -0.212 C  
ENDROOT
BRANCH   4   5
HETATM    5  C   UNL     1      -9.888   6.404  71.038  1.00  0.00    -0.200 A  
HETATM    6  C   UNL     1     -10.861   7.336  71.414  1.00  0.00    -0.251 A  
HETATM    7  C   UNL     1     -10.982   8.564  70.746  1.00  0.00    -0.282 A  
HETATM    8  C   UNL     1      -9.058   6.722  69.958  1.00  0.00    -0.148 A  
HETATM    9  C   UNL     1     -10.130   8.910  69.679  1.00  0.00    -0.202 A  
HETATM   10  C   UNL     1      -9.178   7.951  69.295  1.00  0.00    -0.148 A  
BRANCH   9  11
HETATM   11  C   UNL     1     -10.245  10.286  68.997  1.00  0.00    -0.225 C  
HETATM   12  C   UNL     1     -11.539  11.047  69.364  1.00  0.00    -0.383 C  
HETATM   13  C   UNL     1      -9.054  11.182  69.399  1.00  0.00     0.298 C  
HETATM   14  C   UNL     1     -10.243  10.119  67.460  1.00  0.00    -0.257 C  
ENDBRANCH   9  11
ENDBRANCH   4   5
BRANCH   3  15
HETATM   15  N   UNL     1      -8.257   2.458  72.694  1.00  0.00    -0.058 NA 
HETATM   16  C   UNL     1      -7.720   3.255  69.876  1.00  0.00    -0.043 C  
HETATM   17  C   UNL     1      -6.646   3.350  70.954  1.00  0.00    -0.031 C  
HETATM   18  C   UNL     1      -6.903   2.368  72.106  1.00  0.00    -0.019 C  
HETATM   19  C   UNL     1      -9.261   2.296  71.630  1.00  0.00    -0.100 C  
HETATM   20  C   UNL     1      -9.121   3.298  70.481  1.00  0.00    -0.192 C  
ENDBRANCH   3  15
TORSDOF 3
ENDMDL
MODEL      121
REMARK 921   NORMALIZED FREE ENERGY PREDICTED BY IDOCK:    1.27 KCAL/MOL
REMARK 922        TOTAL FREE ENERGY PREDICTED BY IDOCK:    0.96 KCAL/MOL
REMARK 923 INTER-LIGAND FREE ENERGY PREDICTED BY IDOCK:    0.62 KCAL/MOL
REMARK 924 INTRA-LIGAND FREE ENERGY PREDICTED BY IDOCK:    0.34 KCAL/MOL
REMARK 927      BINDING AFFINITY PREDICTED BY RF-SCORE:    0.00 PKD
ROOT
HETATM    1  C   UNL     1      -7.904  15.846  69.519  1.00  0.00    -0.112 C  
HETATM    2  C   UNL     1      -7.779  15.984  67.992  1.00  0.00    -0.140 C  
HETATM    3  C   UNL     1      -7.299  17.429  67.683  1.00  0.00    -0.175 C  
HETATM    4  C   UNL     1      -6.818  14.914  67.419  1.00  0.00    -0.121 C  
ENDROOT
BRANCH   4   5
HETATM    5  C   UNL     1      -7.216  13.484  67.729  1.00  0.00    -0.157 A  
HETATM    6  C   UNL     1      -8.222  13.198  68.658  1.00  0.00    -0.000 A  
HETATM    7  C   UNL     1      -8.615  11.876  68.914  1.00  0.00     0.151 A  
HETATM    8  C   UNL     1      -6.596  12.409  67.083  1.00  0.00    -0.092 A  
HETATM    9  C   UNL     1      -8.021  10.787  68.245  1.00  0.00    -0.118 A  
HETATM   10  C   UNL     1      -6.993  11.089  67.337  1.00  0.00    -0.086 A  
BRANCH   9  11
HETATM   11  C   UNL     1      -8.506   9.348  68.502  1.00  0.00    -0.119 C  
HETATM   12  C   UNL     1      -8.406   8.921  69.985  1.00  0.00    -0.133 C  
HETATM   13  C   UNL     1      -9.983   9.200  68.080  1.00  0.00    -0.213 C  
HETATM   14  C   UNL     1      -7.655   8.347  67.688  1.00  0.00    -0.098 C  
ENDBRANCH   9  11
ENDBRANCH   4   5
BRANCH   3  15
HETATM   15  N   UNL     1      -7.193  17.823  66.266  1.00  0.00    -0.269 NA 
HETATM   16  C   UNL     1      -9.828  18.931  65.434  1.00  0.00     0.946 C  
HETATM   17  C   UNL     1      -8.863  19.728  66.304  1.00  0.00    -0.417 C  
HETATM   18  C   UNL     1      -7.408  19.277  66.106  1.00  0.00    -0.272 C  
HETATM   19  C   UNL     1      -8.097  17.096  65.361  1.00  0.00     1.569 C  
HETATM   20  C   UNL     1      -9.578  17.430  65.556  1.00  0.00     0.479 C  
ENDBRANCH   3  15
TORSDOF 3
ENDMDL
MODEL      122
REMARK 921   NORMALIZED FREE ENERGY PREDICTED BY IDOCK:    1.34 KCAL/MOL
REMARK 922        TOTAL FREE ENERGY PREDICTED BY IDOCK:    1.05 KCAL/MOL
REMARK 923 INTER-LIGAND FREE ENERGY PREDICTED BY IDOCK:    1.10 KCAL/MOL
REMARK 924 INTRA-LIGAND FREE ENERGY PREDICTED BY IDOCK:   -0.04 KCAL/MOL
REMARK 927      BINDING AFFINITY PREDICTED BY RF-SCORE:    0.00 PKD
ROOT
HETATM    1  C   UNL     1      -7.511  12.318  69.243  1.00  0.00     0.248 C  
HETATM    2  C   UNL     1      -9.006  12.117  69.543  1.00  0.00     1.439 C  
HETATM    3  C   UNL     1      -9.693  13.510  69.493  1.00  0.00     1.002 C  
HETATM    4  C   UNL     1      -9.639  11.117  68.544  1.00  0.00    -0.193 C  
ENDROOT
BRANCH   4   5
HETATM    5  C   UNL     1      -8.978   9.753  68.519  1.00  0.00    -0.124 A  
HETATM    6  C   UNL     1      -7.791   9.536  67.814  1.00  0.00    -0.095 A  
HETATM    7  C   UNL     1      -7.161   8.283  67.825  1.00  0.00    -0.083 A  
HETATM    8  C   UNL     1      -9.534   8.673  69.214  1.00  0.00    -0.158 A  
HETATM    9  C   UNL     1      -7.692   7.197  68.548  1.00  0.00    -0.120 A  
HETATM   10  C   UNL     1      -8.900   7.422  69.228  1.00  0.00    -0.136 A  
BRANCH   9  11
HETATM   11  C   UNL     1      -6.954   5.846  68.591  1.00  0.00    -0.072 C  
HETATM   12  C   UNL     1      -5.465   5.972  68.986  1.00  0.00    -0.004 C  
HETATM   13  C   UNL     1      -7.623   4.905  69.615  1.00  0.00    -0.056 C  
HETATM   14  C   UNL     1      -6.994   5.173  67.200  1.00  0.00    -0.064 C  
ENDBRANCH   9  11
ENDBRANCH   4   5
BRANCH   3  15
HETATM   15  N   UNL     1     -11.125  13.575  69.841  1.00  0.00     0.078 NA 
HETATM   16  C   UNL     1     -12.398  15.597  68.065  1.00  0.00     0.751 C  
HETATM   17  C   UNL     1     -12.014  14.211  67.556  1.00  0.00    -0.419 C  
HETATM   18  C   UNL     1     -11.965  13.178  68.691  1.00  0.00    -0.284 C  
HETATM   19  C   UNL     1     -11.573  14.884  70.341  1.00  0.00    -0.281 C  
HETATM   20  C   UNL     1     -11.568  15.991  69.284  1.00  0.00    -0.331 C  
ENDBRANCH   3  15
TORSDOF 3
ENDMDL
MODEL      123
REMARK 921   NORMALIZED FREE ENERGY PREDICTED BY IDOCK:    1.99 KCAL/MOL
REMARK 922        TOTAL FREE ENERGY PREDICTED BY IDOCK:    1.81 KCAL/MOL
REMARK 923 INTER-LIGAND FREE ENERGY PREDICTED BY IDOCK:    2.20 KCAL/MOL
REMARK 924 INTRA-LIGAND FREE ENERGY PREDICTED BY IDOCK:   -0.39 KCAL/MOL
REMARK 927      BINDING AFFINITY PREDICTED BY RF-SCORE:    0.00 PKD
ROOT
HETATM    1  C   UNL     1      -8.984   6.844  73.514  1.00  0.00    -0.166 C  
HETATM    2  C   UNL     1      -9.234   6.023  72.237  1.00  0.00    -0.146 C  
HETATM    3  C   UNL     1      -8.787   4.561  72.516  1.00  0.00    -0.117 C  
HETATM    4  C   UNL     1     -10.719   6.109  71.808  1.00  0.00    -0.289 C  
ENDROOT
BRANCH   4   5
HETATM    5  C   UNL     1     -11.221   7.518  71.565  1.00  0.00    -0.271 A  
HETATM    6  C   UNL     1     -11.543   8.366  72.629  1.00  0.00    -0.367 A  
HETATM    7  C   UNL     1     -11.970   9.683  72.401  1.00  0.00     0.381 A  
HETATM    8  C   UNL     1     -11.364   8.016  70.265  1.00  0.00    -0.145 A  
HETATM    9  C   UNL     1     -12.085  10.206  71.099  1.00  0.00    -0.485 A  
HETATM   10  C   UNL     1     -11.786   9.333  70.039  1.00  0.00     0.079 A  
BRANCH   9  11
HETATM   11  C   UNL     1     -12.502  11.671  70.874  1.00  0.00    -0.440 C  
HETATM   12  C   UNL     1     -14.022  11.850  70.652  1.00  0.00     3.144 C  
HETATM   13  C   UNL     1     -12.112  12.530  72.096  1.00  0.00     1.689 C  
HETATM   14  C   UNL     1     -11.796  12.240  69.622  1.00  0.00    -0.393 C  
ENDBRANCH   9  11
ENDBRANCH   4   5
BRANCH   3  15
HETATM   15  N   UNL     1      -8.851   3.604  71.396  1.00  0.00    -0.092 NA 
HETATM   16  C   UNL     1      -6.058   2.985  70.572  1.00  0.00    -0.019 C  
HETATM   17  C   UNL     1      -6.668   2.397  71.840  1.00  0.00    -0.018 C  
HETATM   18  C   UNL     1      -8.200   2.327  71.758  1.00  0.00    -0.056 C  
HETATM   19  C   UNL     1      -8.279   4.101  70.135  1.00  0.00    -0.057 C  
HETATM   20  C   UNL     1      -6.759   4.279  70.166  1.00  0.00    -0.033 C  
ENDBRANCH   3  15
TORSDOF 3
ENDMDL
MODEL      124
REMARK 921   NORMALIZED FREE ENERGY PREDICTED BY IDOCK:    2.77 KCAL/MOL
REMARK 922        TOTAL FREE ENERGY PREDICTED BY IDOCK:    2.73 KCAL/MOL
REMARK 923 INTER-LIGAND FREE ENERGY PREDICTED BY IDOCK:   -0.76 KCAL/MOL
REMARK 924 INTRA-LIGAND FREE ENERGY PREDICTED BY IDOCK:    3.49 KCAL/MOL
REMARK 927      BINDING AFFINITY PREDICTED BY RF-SCORE:    0.00 PKD
ROOT
HETATM    1  C   UNL     1     -11.198  11.257  67.053  1.00  0.00    -0.324 C  
HETATM    2  C   UNL     1      -9.702  11.605  66.988  1.00  0.00    -0.201 C  
HETATM    3  C   UNL     1      -9.565  13.147  67.128  1.00  0.00    -0.235 C  
HETATM    4  C   UNL     1      -8.910  10.847  68.081  1.00  0.00    -0.137 C  
ENDROOT
BRANCH   4   5
HETATM    5  C   UNL     1      -9.044   9.338  68.018  1.00  0.00    -0.132 A  
HETATM    6  C   UNL     1      -9.195   8.675  66.796  1.00  0.00    -0.211 A  
HETATM    7  C   UNL     1      -9.279   7.276  66.738  1.00  0.00    -0.187 A  
HETATM    8  C   UNL     1      -9.006   8.564  69.183  1.00  0.00    -0.146 A  
HETATM    9  C   UNL     1      -9.209   6.484  67.900  1.00  0.00    -0.110 A  
HETATM   10  C   UNL     1      -9.086   7.165  69.122  1.00  0.00    -0.137 A  
BRANCH   9  11
HETATM   11  C   UNL     1      -9.247   4.947  67.807  1.00  0.00    -0.138 C  
HETATM   12  C   UNL     1     -10.601   4.396  67.302  1.00  0.00     0.579 C  
HETATM   13  C   UNL     1      -8.155   4.443  66.840  1.00  0.00    -0.102 C  
HETATM   14  C   UNL     1      -9.001   4.323  69.201  1.00  0.00    -0.157 C  
ENDBRANCH   9  11
ENDBRANCH   4   5
BRANCH   3  15
HETATM   15  N   UNL     1      -8.215  13.725  67.002  1.00  0.00    -0.099 NA 
HETATM   16  C   UNL     1      -6.397  12.180  68.783  1.00  0.00    -0.076 C  
HETATM   17  C   UNL     1      -6.886  11.616  67.453  1.00  0.00    -0.114 C  
HETATM   18  C   UNL     1      -7.264  12.728  66.464  1.00  0.00     1.098 C  
HETATM   19  C   UNL     1      -7.673  14.290  68.247  1.00  0.00    -0.136 C  
HETATM   20  C   UNL     1      -7.350  13.245  69.318  1.00  0.00     0.211 C  
ENDBRANCH   3  15
TORSDOF 3
ENDMDL
MODEL      125
REMARK 921   NORMALIZED FREE ENERGY PREDICTED BY IDOCK:    4.04 KCAL/MOL
REMARK 922        TOTAL FREE ENERGY PREDICTED BY IDOCK:    4.21 KCAL/MOL
REMARK 923 INTER-LIGAND FREE ENERGY PREDICTED BY IDOCK:    4.07 KCAL/MOL
REMARK 924 INTRA-LIGAND FREE ENERGY PREDICTED BY IDOCK:    0.15 KCAL/MOL
REMARK 927      BINDING AFFINITY PREDICTED BY RF-SCORE:    0.00 PKD
ROOT
HETATM    1  C   UNL     1      -8.008  13.186  69.466  1.00  0.00     1.013 C  
HETATM    2  C   UNL     1      -7.924  11.656  69.331  1.00  0.00     0.415 C  
HETATM    3  C   UNL     1      -7.286  11.097  70.632  1.00  0.00     1.781 C  
HETATM    4  C   UNL     1      -9.322  11.049  69.057  1.00  0.00    -0.105 C  
ENDROOT
BRANCH   4   5
HETATM    5  C   UNL     1     -10.010  11.593  67.820  1.00  0.00    -0.191 A  
HETATM    6  C   UNL     1     -10.396  12.934  67.738  1.00  0.00    -0.223 A  
HETATM    7  C   UNL     1     -10.998  13.443  66.577  1.00  0.00    -0.299 A  
HETATM    8  C   UNL     1     -10.267  10.768  66.720  1.00  0.00    -0.279 A  
HETATM    9  C   UNL     1     -11.231  12.631  65.450  1.00  0.00    -0.334 A  
HETATM   10  C   UNL     1     -10.864  11.279  65.560  1.00  0.00    -0.244 A  
BRANCH   9  11
HETATM   11  C   UNL     1     -11.842  13.224  64.167  1.00  0.00    -0.497 C  
HETATM   12  C   UNL     1     -11.051  14.432  63.612  1.00  0.00     1.274 C  
HETATM   13  C   UNL     1     -11.889  12.155  63.055  1.00  0.00    -0.103 C  
HETATM   14  C   UNL     1     -13.281  13.718  64.442  1.00  0.00     0.940 C  
ENDBRANCH   9  11
ENDBRANCH   4   5
BRANCH   3  15
HETATM   15  N   UNL     1      -7.021   9.648  70.692  1.00  0.00    -0.174 NA 
HETATM   16  C   UNL     1      -7.436   8.765  73.505  1.00  0.00     0.167 C  
HETATM   17  C   UNL     1      -8.609   9.077  72.581  1.00  0.00     0.641 C  
HETATM   18  C   UNL     1      -8.233   8.907  71.102  1.00  0.00    -0.173 C  
HETATM   19  C   UNL     1      -5.900   9.267  71.566  1.00  0.00    -0.074 C  
HETATM   20  C   UNL     1      -6.168   9.488  73.057  1.00  0.00     0.533 C  
ENDBRANCH   3  15
TORSDOF 3
ENDMDL
