MODEL        1
REMARK 921   NORMALIZED FREE ENERGY PREDICTED BY IDOCK:   -6.38 KCAL/MOL
REMARK 922        TOTAL FREE ENERGY PREDICTED BY IDOCK:   -6.55 KCAL/MOL
REMARK 923 INTER-LIGAND FREE ENERGY PREDICTED BY IDOCK:   -7.12 KCAL/MOL
REMARK 924 INTRA-LIGAND FREE ENERGY PREDICTED BY IDOCK:    0.58 KCAL/MOL
REMARK 927      BINDING AFFINITY PREDICTED BY RF-SCORE:    0.00 PKD
ROOT
HETATM    1 FE   UNL     1     -13.202  14.268  70.655  1.00  0.00    -0.330 Fe 
ATOM      2  N   GLY A   1     -10.676  11.022  63.919  1.00  0.00    -0.510 NA 
ATOM      3  CA  CYS B   1      -9.733  11.088  68.805  1.00  0.00    -0.191 C  
ATOM      4  CA  GLY A   1     -10.922  12.418  63.520  1.00  0.00    -0.450 C  
ATOM      5  H2  GLY A   1     -11.285  10.373  63.421  1.00  0.00     0.000 HD 
ATOM      6  H1  GLY A   1      -9.692  10.784  63.801  1.00  0.00     0.000 HD 
ATOM      7  OXT CYS C   1      -9.412  14.856  65.828  1.00  0.00    -0.308 OA 
ATOM      8  C   GLY A   1     -12.406  12.777  63.698  1.00  0.00    -0.463 C  
ATOM      9  C   CYS B   1     -11.280  10.879  68.946  1.00  0.00    -0.267 C  
ATOM     10  CA  CYS C   1     -11.331  14.374  67.159  1.00  0.00    -0.343 C  
ATOM     11  N   CYS B   1      -9.162   9.856  69.421  1.00  0.00    -0.200 NA 
ATOM     12  H2  CYS C   1     -12.427  12.585  66.791  1.00  0.00     0.000 HD 
ATOM     13  N   CYS C   1     -11.483  12.963  66.716  1.00  0.00    -0.322 NA 
ATOM     14  C   CYS C   1      -9.789  14.714  67.030  1.00  0.00    -0.244 C  
ATOM     15  H2  CYS B   1      -8.144   9.877  69.481  1.00  0.00     0.000 HD 
ATOM     16  H1  CYS B   1      -9.611   9.730  70.329  1.00  0.00     0.000 HD 
ATOM     17  O   CYS B   1     -11.580  10.455  70.233  1.00  0.00    -0.278 OA 
ATOM     18  O   CYS C   1      -9.115  14.616  68.100  1.00  0.00    -0.176 OA 
ATOM     19  OXT GLY A   1     -13.304  11.972  63.899  1.00  0.00    -0.669 OA 
ATOM     20  O   GLY A   1     -12.645  14.112  63.665  1.00  0.00    -0.831 OA 
ATOM     21  OXT CYS B   1     -12.259  10.987  68.210  1.00  0.00    -0.582 OA 
ATOM     22  H1  CYS C   1     -11.103  13.001  65.770  1.00  0.00     0.000 HD 
ENDROOT
BRANCH   3  23
ATOM     23  CB  CYS B   1      -9.054  11.278  67.433  1.00  0.00    -0.151 C  
ATOM     24  SG  CYS B   1      -8.245   9.758  66.765  1.00  0.00    -0.120 SA 
ATOM     25  HG  CYS B   1      -7.635   9.929  65.528  1.00  0.00     0.000 H  
ENDBRANCH   3  23
BRANCH  10  26
ATOM     26  CB  CYS C   1     -11.894  14.318  68.564  1.00  0.00    -0.347 C  
ATOM     27  SG  CYS C   1     -11.776  15.831  69.607  1.00  0.00    -0.338 SA 
ATOM     28  HG  CYS C   1     -12.292  15.780  70.896  1.00  0.00     0.000 H  
ENDBRANCH  10  26
TORSDOF 2
ENDMDL
MODEL        2
REMARK 921   NORMALIZED FREE ENERGY PREDICTED BY IDOCK:   -6.02 KCAL/MOL
REMARK 922        TOTAL FREE ENERGY PREDICTED BY IDOCK:   -6.15 KCAL/MOL
REMARK 923 INTER-LIGAND FREE ENERGY PREDICTED BY IDOCK:   -6.69 KCAL/MOL
REMARK 924 INTRA-LIGAND FREE ENERGY PREDICTED BY IDOCK:    0.55 KCAL/MOL
REMARK 927      BINDING AFFINITY PREDICTED BY RF-SCORE:    0.00 PKD
ROOT
HETATM    1 FE   UNL     1     -10.709  17.910  68.656  1.00  0.00    -0.308 Fe 
ATOM      2  N   GLY A   1      -8.032  11.184  65.513  1.00  0.00    -0.367 NA 
ATOM      3  CA  CYS B   1     -11.753  14.464  65.106  1.00  0.00    -0.372 C  
ATOM      4  CA  GLY A   1      -7.827  10.958  66.954  1.00  0.00    -0.135 C  
ATOM      5  H2  GLY A   1      -7.151  11.191  65.001  1.00  0.00     0.000 HD 
ATOM      6  H1  GLY A   1      -8.685  10.498  65.133  1.00  0.00     0.000 HD 
ATOM      7  OXT CYS C   1     -10.803  11.754  68.969  1.00  0.00    -0.214 OA 
ATOM      8  C   GLY A   1      -6.842  11.991  67.527  1.00  0.00    -0.128 C  
ATOM      9  C   CYS B   1     -10.605  15.530  65.132  1.00  0.00    -0.431 C  
ATOM     10  CA  CYS C   1     -10.047  13.999  68.703  1.00  0.00    -0.217 C  
ATOM     11  N   CYS B   1     -12.370  14.654  63.763  1.00  0.00    -1.092 NA 
ATOM     12  H2  CYS C   1      -8.680  14.456  67.134  1.00  0.00     0.000 HD 
ATOM     13  N   CYS C   1      -9.429  13.803  67.366  1.00  0.00    -0.216 NA 
ATOM     14  C   CYS C   1     -11.220  12.940  68.807  1.00  0.00    -0.279 C  
ATOM     15  H2  CYS B   1     -13.200  14.078  63.621  1.00  0.00     0.000 HD 
ATOM     16  H1  CYS B   1     -12.555  15.651  63.648  1.00  0.00     0.000 HD 
ATOM     17  O   CYS B   1     -11.087  16.748  64.675  1.00  0.00    -0.844 OA 
ATOM     18  O   CYS C   1     -12.380  13.377  68.535  1.00  0.00    -0.194 OA 
ATOM     19  OXT GLY A   1      -6.137  12.734  66.859  1.00  0.00    -0.207 OA 
ATOM     20  O   GLY A   1      -6.856  12.055  68.882  1.00  0.00    -0.092 OA 
ATOM     21  OXT CYS B   1      -9.415  15.543  65.439  1.00  0.00    -0.225 OA 
ATOM     22  H1  CYS C   1      -9.153  12.822  67.407  1.00  0.00     0.000 HD 
ENDROOT
BRANCH   3  23
ATOM     23  CB  CYS B   1     -11.474  12.956  65.280  1.00  0.00    -0.313 C  
ATOM     24  SG  CYS B   1     -11.520  11.987  63.708  1.00  0.00    -0.485 SA 
ATOM     25  HG  CYS B   1     -11.268  10.629  63.865  1.00  0.00     0.000 H  
ENDBRANCH   3  23
BRANCH  10  26
ATOM     26  CB  CYS C   1     -10.458  15.456  68.642  1.00  0.00    -0.237 C  
ATOM     27  SG  CYS C   1     -11.249  16.198  70.130  1.00  0.00    -0.335 SA 
ATOM     28  HG  CYS C   1     -11.625  17.535  70.075  1.00  0.00     0.000 H  
ENDBRANCH  10  26
TORSDOF 2
ENDMDL
MODEL        3
REMARK 921   NORMALIZED FREE ENERGY PREDICTED BY IDOCK:   -5.71 KCAL/MOL
REMARK 922        TOTAL FREE ENERGY PREDICTED BY IDOCK:   -5.80 KCAL/MOL
REMARK 923 INTER-LIGAND FREE ENERGY PREDICTED BY IDOCK:   -6.39 KCAL/MOL
REMARK 924 INTRA-LIGAND FREE ENERGY PREDICTED BY IDOCK:    0.59 KCAL/MOL
REMARK 927      BINDING AFFINITY PREDICTED BY RF-SCORE:    0.00 PKD
ROOT
HETATM    1 FE   UNL     1     -12.336  15.899  68.457  1.00  0.00    -0.401 Fe 
ATOM      2  N   GLY A   1      -6.952  11.035  65.354  1.00  0.00    -0.357 NA 
ATOM      3  CA  CYS B   1     -11.551  12.765  64.568  1.00  0.00    -0.347 C  
ATOM      4  CA  GLY A   1      -6.859  10.727  66.792  1.00  0.00    -0.115 C  
ATOM      5  H2  GLY A   1      -6.081  11.423  64.993  1.00  0.00     0.000 HD 
ATOM      6  H1  GLY A   1      -7.245  10.210  64.830  1.00  0.00     0.000 HD 
ATOM      7  OXT CYS C   1     -10.143  10.139  68.348  1.00  0.00    -0.155 OA 
ATOM      8  C   GLY A   1      -6.416  11.969  67.582  1.00  0.00    -0.108 C  
ATOM      9  C   CYS B   1     -10.902  14.164  64.848  1.00  0.00    -0.411 C  
ATOM     10  CA  CYS C   1     -10.261  12.520  68.355  1.00  0.00    -0.228 C  
ATOM     11  N   CYS B   1     -12.021  12.879  63.158  1.00  0.00    -0.822 NA 
ATOM     12  H2  CYS C   1      -8.982  13.627  67.060  1.00  0.00     0.000 HD 
ATOM     13  N   CYS C   1      -9.452  12.724  67.125  1.00  0.00    -0.216 NA 
ATOM     14  C   CYS C   1     -10.951  11.103  68.199  1.00  0.00    -0.238 C  
ATOM     15  H2  CYS B   1     -12.548  12.063  62.847  1.00  0.00     0.000 HD 
ATOM     16  H1  CYS B   1     -12.552  13.747  63.081  1.00  0.00     0.000 HD 
ATOM     17  O   CYS B   1     -11.747  15.169  64.400  1.00  0.00    -0.382 OA 
ATOM     18  O   CYS C   1     -12.147  11.120  67.772  1.00  0.00    -0.606 OA 
ATOM     19  OXT GLY A   1      -5.965  12.992  67.087  1.00  0.00    -0.326 OA 
ATOM     20  O   GLY A   1      -6.622  11.859  68.919  1.00  0.00    -0.073 OA 
ATOM     21  OXT CYS B   1      -9.853  14.570  65.343  1.00  0.00    -0.334 OA 
ATOM     22  H1  CYS C   1      -8.834  11.913  67.146  1.00  0.00     0.000 HD 
ENDROOT
BRANCH   3  23
ATOM     23  CB  CYS B   1     -10.749  11.452  64.686  1.00  0.00    -0.314 C  
ATOM     24  SG  CYS B   1      -9.751  11.032  63.189  1.00  0.00    -0.380 SA 
ATOM     25  HG  CYS B   1      -9.028   9.850  63.295  1.00  0.00     0.000 H  
ENDBRANCH   3  23
BRANCH  10  26
ATOM     26  CB  CYS C   1     -11.179  13.725  68.324  1.00  0.00    -0.273 C  
ATOM     27  SG  CYS C   1     -12.241  14.045  69.794  1.00  0.00    -0.304 SA 
ATOM     28  HG  CYS C   1     -13.083  15.150  69.766  1.00  0.00     0.000 H  
ENDBRANCH  10  26
TORSDOF 2
ENDMDL
MODEL        4
REMARK 921   NORMALIZED FREE ENERGY PREDICTED BY IDOCK:   -5.68 KCAL/MOL
REMARK 922        TOTAL FREE ENERGY PREDICTED BY IDOCK:   -5.77 KCAL/MOL
REMARK 923 INTER-LIGAND FREE ENERGY PREDICTED BY IDOCK:   -6.72 KCAL/MOL
REMARK 924 INTRA-LIGAND FREE ENERGY PREDICTED BY IDOCK:    0.95 KCAL/MOL
REMARK 927      BINDING AFFINITY PREDICTED BY RF-SCORE:    0.00 PKD
ROOT
HETATM    1 FE   UNL     1     -11.506  19.809  66.359  1.00  0.00    -0.366 Fe 
ATOM      2  N   GLY A   1      -7.536  13.067  67.391  1.00  0.00    -0.256 NA 
ATOM      3  CA  CYS B   1     -11.888  14.808  65.719  1.00  0.00    -0.202 C  
ATOM      4  CA  GLY A   1      -7.243  13.796  68.637  1.00  0.00    -0.109 C  
ATOM      5  H2  GLY A   1      -6.692  12.899  66.844  1.00  0.00     0.000 HD 
ATOM      6  H1  GLY A   1      -8.036  12.202  67.592  1.00  0.00     0.000 HD 
ATOM      7  OXT CYS C   1     -10.259  15.179  70.233  1.00  0.00    -0.167 OA 
ATOM      8  C   GLY A   1      -6.488  15.101  68.335  1.00  0.00    -0.107 C  
ATOM      9  C   CYS B   1     -10.997  15.833  64.936  1.00  0.00    -0.427 C  
ATOM     10  CA  CYS C   1     -10.014  16.887  68.588  1.00  0.00    -0.279 C  
ATOM     11  N   CYS B   1     -12.572  14.048  64.635  1.00  0.00    -0.659 NA 
ATOM     12  H2  CYS C   1      -8.826  16.503  66.861  1.00  0.00     0.000 HD 
ATOM     13  N   CYS C   1      -9.409  16.019  67.544  1.00  0.00    -0.216 NA 
ATOM     14  C   CYS C   1     -10.926  15.943  69.473  1.00  0.00    -0.311 C  
ATOM     15  H2  CYS B   1     -13.261  13.384  64.989  1.00  0.00     0.000 HD 
ATOM     16  H1  CYS B   1     -12.971  14.728  63.987  1.00  0.00     0.000 HD 
ATOM     17  O   CYS B   1     -11.745  16.432  63.933  1.00  0.00    -1.085 OA 
ATOM     18  O   CYS C   1     -12.161  15.940  69.179  1.00  0.00    -0.339 OA 
ATOM     19  OXT GLY A   1      -5.980  15.385  67.259  1.00  0.00    -0.330 OA 
ATOM     20  O   GLY A   1      -6.474  15.969  69.377  1.00  0.00    -0.154 OA 
ATOM     21  OXT CYS B   1      -9.829  16.212  64.989  1.00  0.00    -0.325 OA 
ATOM     22  H1  CYS C   1      -8.926  15.320  68.109  1.00  0.00     0.000 HD 
ENDROOT
BRANCH   3  23
ATOM     23  CB  CYS B   1     -11.285  13.780  66.699  1.00  0.00    -0.318 C  
ATOM     24  SG  CYS B   1     -11.036  12.097  65.979  1.00  0.00    -0.326 SA 
ATOM     25  HG  CYS B   1     -10.492  11.171  66.861  1.00  0.00     0.000 H  
ENDBRANCH   3  23
BRANCH  10  26
ATOM     26  CB  CYS C   1     -10.731  17.924  67.748  1.00  0.00    -0.326 C  
ATOM     27  SG  CYS C   1     -10.380  19.702  68.078  1.00  0.00    -0.422 SA 
ATOM     28  HG  CYS C   1     -11.038  20.653  67.308  1.00  0.00     0.000 H  
ENDBRANCH  10  26
TORSDOF 2
ENDMDL
MODEL        5
REMARK 921   NORMALIZED FREE ENERGY PREDICTED BY IDOCK:   -5.53 KCAL/MOL
REMARK 922        TOTAL FREE ENERGY PREDICTED BY IDOCK:   -5.60 KCAL/MOL
REMARK 923 INTER-LIGAND FREE ENERGY PREDICTED BY IDOCK:   -6.43 KCAL/MOL
REMARK 924 INTRA-LIGAND FREE ENERGY PREDICTED BY IDOCK:    0.83 KCAL/MOL
REMARK 927      BINDING AFFINITY PREDICTED BY RF-SCORE:    0.00 PKD
ROOT
HETATM    1 FE   UNL     1     -10.680  12.074  62.572  1.00  0.00    -0.598 Fe 
ATOM      2  N   GLY A   1      -7.472  13.809  69.571  1.00  0.00    -0.319 NA 
ATOM      3  CA  CYS B   1     -10.823  10.794  67.462  1.00  0.00    -0.288 C  
ATOM      4  CA  GLY A   1      -7.679  15.144  68.984  1.00  0.00    -0.177 C  
ATOM      5  H2  GLY A   1      -6.484  13.613  69.727  1.00  0.00     0.000 HD 
ATOM      6  H1  GLY A   1      -8.018  13.707  70.426  1.00  0.00     0.000 HD 
ATOM      7  OXT CYS C   1     -11.067  15.599  67.615  1.00  0.00    -0.324 OA 
ATOM      8  C   GLY A   1      -6.856  15.299  67.694  1.00  0.00    -0.180 C  
ATOM      9  C   CYS B   1      -9.691  10.531  66.411  1.00  0.00    -0.198 C  
ATOM     10  CA  CYS C   1     -10.191  14.372  65.769  1.00  0.00    -0.337 C  
ATOM     11  N   CYS B   1     -11.040   9.454  68.078  1.00  0.00    -0.513 NA 
ATOM     12  H2  CYS C   1      -8.430  13.203  66.040  1.00  0.00     0.000 HD 
ATOM     13  N   CYS C   1      -9.235  13.552  66.560  1.00  0.00    -0.413 NA 
ATOM     14  C   CYS C   1     -11.382  14.730  66.749  1.00  0.00    -0.346 C  
ATOM     15  H2  CYS B   1     -11.818   9.441  68.738  1.00  0.00     0.000 HD 
ATOM     16  H1  CYS B   1     -11.152   8.782  67.319  1.00  0.00     0.000 HD 
ATOM     17  O   CYS B   1      -9.987   9.390  65.680  1.00  0.00    -0.304 OA 
ATOM     18  O   CYS C   1     -12.406  13.985  66.661  1.00  0.00    -0.451 OA 
ATOM     19  OXT GLY A   1      -5.969  14.539  67.332  1.00  0.00    -0.344 OA 
ATOM     20  O   GLY A   1      -7.240  16.355  66.934  1.00  0.00    -0.198 OA 
ATOM     21  OXT CYS B   1      -8.631  11.070  66.097  1.00  0.00    -0.169 OA 
ATOM     22  H1  CYS C   1      -9.014  14.180  67.333  1.00  0.00     0.000 HD 
ENDROOT
BRANCH   3  23
ATOM     23  CB  CYS B   1     -10.655  11.811  68.610  1.00  0.00    -0.223 C  
ATOM     24  SG  CYS B   1     -11.787  11.537  70.044  1.00  0.00    -0.351 SA 
ATOM     25  HG  CYS B   1     -11.634  12.453  71.078  1.00  0.00     0.000 H  
ENDBRANCH   3  23
BRANCH  10  26
ATOM     26  CB  CYS C   1     -10.518  13.439  64.620  1.00  0.00    -0.411 C  
ATOM     27  SG  CYS C   1     -12.122  13.672  63.745  1.00  0.00    -0.284 SA 
ATOM     28  HG  CYS C   1     -12.422  12.817  62.691  1.00  0.00     0.000 H  
ENDBRANCH  10  26
TORSDOF 2
ENDMDL
MODEL        6
REMARK 921   NORMALIZED FREE ENERGY PREDICTED BY IDOCK:   -5.42 KCAL/MOL
REMARK 922        TOTAL FREE ENERGY PREDICTED BY IDOCK:   -5.47 KCAL/MOL
REMARK 923 INTER-LIGAND FREE ENERGY PREDICTED BY IDOCK:   -6.05 KCAL/MOL
REMARK 924 INTRA-LIGAND FREE ENERGY PREDICTED BY IDOCK:    0.58 KCAL/MOL
REMARK 927      BINDING AFFINITY PREDICTED BY RF-SCORE:    0.00 PKD
ROOT
HETATM    1 FE   UNL     1     -10.891  10.412  64.572  1.00  0.00    -0.347 Fe 
ATOM      2  N   GLY A   1     -12.566  16.206  69.662  1.00  0.00    -0.461 NA 
ATOM      3  CA  CYS B   1     -11.027  15.449  64.990  1.00  0.00    -0.436 C  
ATOM      4  CA  GLY A   1     -11.828  15.252  70.507  1.00  0.00    -0.324 C  
ATOM      5  H2  GLY A   1     -13.528  16.327  69.978  1.00  0.00     0.000 HD 
ATOM      6  H1  GLY A   1     -12.070  17.095  69.609  1.00  0.00     0.000 HD 
ATOM      7  OXT CYS C   1      -8.679  14.116  68.975  1.00  0.00    -0.040 OA 
ATOM      8  C   GLY A   1     -12.576  13.911  70.587  1.00  0.00    -0.335 C  
ATOM      9  C   CYS B   1     -12.222  14.436  64.929  1.00  0.00    -0.433 C  
ATOM     10  CA  CYS C   1     -10.119  12.675  67.737  1.00  0.00    -0.220 C  
ATOM     11  N   CYS B   1     -11.386  16.468  63.964  1.00  0.00    -1.559 NA 
ATOM     12  H2  CYS C   1     -12.194  13.140  67.610  1.00  0.00     0.000 HD 
ATOM     13  N   CYS C   1     -11.287  13.594  67.717  1.00  0.00    -0.291 NA 
ATOM     14  C   CYS C   1      -8.834  13.596  67.830  1.00  0.00    -0.190 C  
ATOM     15  H2  CYS B   1     -10.655  17.166  63.824  1.00  0.00     0.000 HD 
ATOM     16  H1  CYS B   1     -11.630  15.970  63.108  1.00  0.00     0.000 HD 
ATOM     17  O   CYS B   1     -12.505  14.127  63.606  1.00  0.00    -0.819 OA 
ATOM     18  O   CYS C   1      -8.251  13.836  66.728  1.00  0.00    -0.023 OA 
ATOM     19  OXT GLY A   1     -13.727  13.726  70.219  1.00  0.00     0.737 OA 
ATOM     20  O   GLY A   1     -11.813  12.896  71.065  1.00  0.00     0.056 OA 
ATOM     21  OXT CYS B   1     -12.952  13.877  65.745  1.00  0.00    -0.506 OA 
ATOM     22  H1  CYS C   1     -11.160  14.110  68.588  1.00  0.00     0.000 HD 
ENDROOT
BRANCH   3  23
ATOM     23  CB  CYS B   1     -10.658  16.202  66.285  1.00  0.00    -0.274 C  
ATOM     24  SG  CYS B   1     -10.100  17.943  66.021  1.00  0.00    -0.191 SA 
ATOM     25  HG  CYS B   1      -9.769  18.622  67.188  1.00  0.00     0.000 H  
ENDBRANCH   3  23
BRANCH  10  26
ATOM     26  CB  CYS C   1     -10.307  11.908  66.443  1.00  0.00    -0.219 C  
ATOM     27  SG  CYS C   1      -9.104  10.573  66.043  1.00  0.00    -0.176 SA 
ATOM     28  HG  CYS C   1      -9.277   9.870  64.857  1.00  0.00     0.000 H  
ENDBRANCH  10  26
TORSDOF 2
ENDMDL
MODEL        7
REMARK 921   NORMALIZED FREE ENERGY PREDICTED BY IDOCK:   -5.33 KCAL/MOL
REMARK 922        TOTAL FREE ENERGY PREDICTED BY IDOCK:   -5.38 KCAL/MOL
REMARK 923 INTER-LIGAND FREE ENERGY PREDICTED BY IDOCK:   -5.90 KCAL/MOL
REMARK 924 INTRA-LIGAND FREE ENERGY PREDICTED BY IDOCK:    0.52 KCAL/MOL
REMARK 927      BINDING AFFINITY PREDICTED BY RF-SCORE:    0.00 PKD
ROOT
HETATM    1 FE   UNL     1     -12.728  11.675  71.668  1.00  0.00    -0.297 Fe 
ATOM      2  N   GLY A   1     -10.205  12.679  64.258  1.00  0.00    -0.509 NA 
ATOM      3  CA  CYS B   1      -8.581  11.407  68.787  1.00  0.00    -0.083 C  
ATOM      4  CA  GLY A   1     -11.100  13.834  64.441  1.00  0.00    -0.345 C  
ATOM      5  H2  GLY A   1     -10.541  12.051  63.529  1.00  0.00     0.000 HD 
ATOM      6  H1  GLY A   1      -9.251  12.992  64.078  1.00  0.00     0.000 HD 
ATOM      7  OXT CYS C   1     -10.449  15.672  67.564  1.00  0.00    -0.272 OA 
ATOM      8  C   GLY A   1     -12.539  13.364  64.713  1.00  0.00    -0.314 C  
ATOM      9  C   CYS B   1      -9.833  10.463  68.797  1.00  0.00    -0.185 C  
ATOM     10  CA  CYS C   1     -11.709  13.902  68.548  1.00  0.00    -0.355 C  
ATOM     11  N   CYS B   1      -7.434  10.460  68.875  1.00  0.00    -0.090 NA 
ATOM     12  H2  CYS C   1     -11.954  12.080  67.472  1.00  0.00     0.000 HD 
ATOM     13  N   CYS C   1     -11.299  12.854  67.576  1.00  0.00    -0.290 NA 
ATOM     14  C   CYS C   1     -10.519  14.945  68.601  1.00  0.00    -0.242 C  
ATOM     15  H2  CYS B   1      -6.534  10.933  68.962  1.00  0.00     0.000 HD 
ATOM     16  H1  CYS B   1      -7.623   9.820  69.647  1.00  0.00     0.000 HD 
ATOM     17  O   CYS B   1      -9.695   9.516  69.801  1.00  0.00    -0.186 OA 
ATOM     18  O   CYS C   1      -9.701  14.795  69.559  1.00  0.00    -0.097 OA 
ATOM     19  OXT GLY A   1     -12.945  12.221  64.556  1.00  0.00    -0.738 OA 
ATOM     20  O   GLY A   1     -13.340  14.339  65.209  1.00  0.00    -0.660 OA 
ATOM     21  OXT CYS B   1     -10.867  10.358  68.142  1.00  0.00    -0.224 OA 
ATOM     22  H1  CYS C   1     -11.139  13.405  66.732  1.00  0.00     0.000 HD 
ENDROOT
BRANCH   3  23
ATOM     23  CB  CYS B   1      -8.296  12.376  67.620  1.00  0.00    -0.169 C  
ATOM     24  SG  CYS B   1      -6.841  13.482  67.887  1.00  0.00    -0.167 SA 
ATOM     25  HG  CYS B   1      -6.583  14.354  66.835  1.00  0.00     0.000 H  
ENDBRANCH   3  23
BRANCH  10  26
ATOM     26  CB  CYS C   1     -11.946  13.085  69.801  1.00  0.00    -0.308 C  
ATOM     27  SG  CYS C   1     -12.622  13.945  71.282  1.00  0.00    -0.366 SA 
ATOM     28  HG  CYS C   1     -12.840  13.195  72.432  1.00  0.00     0.000 H  
ENDBRANCH  10  26
TORSDOF 2
ENDMDL
MODEL        8
REMARK 921   NORMALIZED FREE ENERGY PREDICTED BY IDOCK:   -5.23 KCAL/MOL
REMARK 922        TOTAL FREE ENERGY PREDICTED BY IDOCK:   -5.26 KCAL/MOL
REMARK 923 INTER-LIGAND FREE ENERGY PREDICTED BY IDOCK:   -5.81 KCAL/MOL
REMARK 924 INTRA-LIGAND FREE ENERGY PREDICTED BY IDOCK:    0.55 KCAL/MOL
REMARK 927      BINDING AFFINITY PREDICTED BY RF-SCORE:    0.00 PKD
ROOT
HETATM    1 FE   UNL     1      -8.353  10.358  64.686  1.00  0.00    -0.139 Fe 
ATOM      2  N   GLY A   1     -10.704  16.582  68.932  1.00  0.00    -0.316 NA 
ATOM      3  CA  CYS B   1     -11.032  11.618  68.785  1.00  0.00    -0.226 C  
ATOM      4  CA  GLY A   1     -10.894  17.057  67.551  1.00  0.00    -0.203 C  
ATOM      5  H2  GLY A   1     -10.007  17.135  69.430  1.00  0.00     0.000 HD 
ATOM      6  H1  GLY A   1     -11.594  16.558  69.429  1.00  0.00     0.000 HD 
ATOM      7  OXT CYS C   1     -12.715  14.647  65.445  1.00  0.00    -0.250 OA 
ATOM      8  C   GLY A   1      -9.552  17.092  66.802  1.00  0.00    -0.270 C  
ATOM      9  C   CYS B   1      -9.481  11.680  68.569  1.00  0.00    -0.173 C  
ATOM     10  CA  CYS C   1     -10.592  13.572  65.314  1.00  0.00    -0.328 C  
ATOM     11  N   CYS B   1     -11.170  10.890  70.079  1.00  0.00    -0.390 NA 
ATOM     12  H2  CYS C   1      -9.106  14.025  66.772  1.00  0.00     0.000 HD 
ATOM     13  N   CYS C   1     -10.119  13.984  66.662  1.00  0.00    -0.270 NA 
ATOM     14  C   CYS C   1     -12.171  13.504  65.401  1.00  0.00    -0.447 C  
ATOM     15  H2  CYS B   1     -12.141  10.695  70.323  1.00  0.00     0.000 HD 
ATOM     16  H1  CYS B   1     -10.598  10.048  70.020  1.00  0.00     0.000 HD 
ATOM     17  O   CYS B   1      -8.925  10.432  68.811  1.00  0.00    -0.141 OA 
ATOM     18  O   CYS C   1     -12.660  12.349  65.601  1.00  0.00    -0.575 OA 
ATOM     19  OXT GLY A   1      -8.452  16.987  67.327  1.00  0.00    -0.188 OA 
ATOM     20  O   GLY A   1      -9.688  17.200  65.457  1.00  0.00    -0.532 OA 
ATOM     21  OXT CYS B   1      -8.664  12.544  68.258  1.00  0.00    -0.183 OA 
ATOM     22  H1  CYS C   1     -10.606  14.872  66.790  1.00  0.00     0.000 HD 
ENDROOT
BRANCH   3  23
ATOM     23  CB  CYS B   1     -11.898  12.892  68.874  1.00  0.00    -0.309 C  
ATOM     24  SG  CYS B   1     -12.239  13.463  70.597  1.00  0.00    -0.287 SA 
ATOM     25  HG  CYS B   1     -13.019  14.611  70.677  1.00  0.00     0.000 H  
ENDBRANCH   3  23
BRANCH  10  26
ATOM     26  CB  CYS C   1      -9.869  12.254  65.124  1.00  0.00    -0.158 C  
ATOM     27  SG  CYS C   1     -10.163  11.320  63.565  1.00  0.00    -0.424 SA 
ATOM     28  HG  CYS C   1      -9.500  10.111  63.390  1.00  0.00     0.000 H  
ENDBRANCH  10  26
TORSDOF 2
ENDMDL
MODEL        9
REMARK 921   NORMALIZED FREE ENERGY PREDICTED BY IDOCK:   -5.18 KCAL/MOL
REMARK 922        TOTAL FREE ENERGY PREDICTED BY IDOCK:   -5.21 KCAL/MOL
REMARK 923 INTER-LIGAND FREE ENERGY PREDICTED BY IDOCK:   -5.90 KCAL/MOL
REMARK 924 INTRA-LIGAND FREE ENERGY PREDICTED BY IDOCK:    0.69 KCAL/MOL
REMARK 927      BINDING AFFINITY PREDICTED BY RF-SCORE:    0.00 PKD
ROOT
HETATM    1 FE   UNL     1      -7.990  11.016  64.212  1.00  0.00    -0.285 Fe 
ATOM      2  N   GLY A   1     -10.970  14.654  70.550  1.00  0.00    -0.492 NA 
ATOM      3  CA  CYS B   1     -10.903  10.230  68.269  1.00  0.00    -0.255 C  
ATOM      4  CA  GLY A   1     -11.149  15.667  69.496  1.00  0.00    -0.298 C  
ATOM      5  H2  GLY A   1     -10.337  14.976  71.281  1.00  0.00     0.000 HD 
ATOM      6  H1  GLY A   1     -11.873  14.369  70.929  1.00  0.00     0.000 HD 
ATOM      7  OXT CYS C   1     -12.700  14.307  66.447  1.00  0.00    -0.314 OA 
ATOM      8  C   GLY A   1      -9.788  16.097  68.925  1.00  0.00    -0.239 C  
ATOM      9  C   CYS B   1      -9.354  10.466  68.203  1.00  0.00    -0.145 C  
ATOM     10  CA  CYS C   1     -10.495  13.514  66.007  1.00  0.00    -0.299 C  
ATOM     11  N   CYS B   1     -11.029   9.009  69.114  1.00  0.00    -0.426 NA 
ATOM     12  H2  CYS C   1      -9.102  13.374  67.613  1.00  0.00     0.000 HD 
ATOM     13  N   CYS C   1     -10.104  13.329  67.429  1.00  0.00    -0.231 NA 
ATOM     14  C   CYS C   1     -12.067  13.327  65.953  1.00  0.00    -0.441 C  
ATOM     15  H2  CYS B   1     -11.990   8.674  69.187  1.00  0.00     0.000 HD 
ATOM     16  H1  CYS B   1     -10.391   8.308  68.738  1.00  0.00     0.000 HD 
ATOM     17  O   CYS B   1      -8.711   9.269  67.923  1.00  0.00    -0.124 OA 
ATOM     18  O   CYS C   1     -12.470  12.174  65.606  1.00  0.00    -0.501 OA 
ATOM     19  OXT GLY A   1      -8.702  15.837  69.425  1.00  0.00    -0.252 OA 
ATOM     20  O   GLY A   1      -9.884  16.768  67.749  1.00  0.00    -0.248 OA 
ATOM     21  OXT CYS B   1      -8.598  11.424  68.346  1.00  0.00    -0.146 OA 
ATOM     22  H1  CYS C   1     -10.664  14.045  67.893  1.00  0.00     0.000 HD 
ENDROOT
BRANCH   3  23
ATOM     23  CB  CYS B   1     -11.868  11.291  68.838  1.00  0.00    -0.345 C  
ATOM     24  SG  CYS B   1     -12.437  10.957  70.564  1.00  0.00    -0.345 SA 
ATOM     25  HG  CYS B   1     -13.306  11.912  71.076  1.00  0.00     0.000 H  
ENDBRANCH   3  23
BRANCH  10  26
ATOM     26  CB  CYS C   1      -9.664  12.450  65.319  1.00  0.00    -0.086 C  
ATOM     27  SG  CYS C   1     -10.126  11.963  63.604  1.00  0.00    -0.424 SA 
ATOM     28  HG  CYS C   1      -9.365  10.988  62.972  1.00  0.00     0.000 H  
ENDBRANCH  10  26
TORSDOF 2
ENDMDL
MODEL       10
REMARK 921   NORMALIZED FREE ENERGY PREDICTED BY IDOCK:   -4.93 KCAL/MOL
REMARK 922        TOTAL FREE ENERGY PREDICTED BY IDOCK:   -4.93 KCAL/MOL
REMARK 923 INTER-LIGAND FREE ENERGY PREDICTED BY IDOCK:   -5.45 KCAL/MOL
REMARK 924 INTRA-LIGAND FREE ENERGY PREDICTED BY IDOCK:    0.52 KCAL/MOL
REMARK 927      BINDING AFFINITY PREDICTED BY RF-SCORE:    0.00 PKD
ROOT
HETATM    1 FE   UNL     1     -10.449   9.001  70.178  1.00  0.00    -0.178 Fe 
ATOM      2  N   GLY A   1     -10.110  14.338  64.373  1.00  0.00    -0.610 NA 
ATOM      3  CA  CYS B   1      -7.926  13.118  68.676  1.00  0.00    -0.033 C  
ATOM      4  CA  GLY A   1     -11.561  14.198  64.584  1.00  0.00    -0.406 C  
ATOM      5  H2  GLY A   1      -9.832  14.038  63.439  1.00  0.00     0.000 HD 
ATOM      6  H1  GLY A   1      -9.810  15.292  64.570  1.00  0.00     0.000 HD 
ATOM      7  OXT CYS C   1     -12.524  14.433  68.130  1.00  0.00    -0.075 OA 
ATOM      8  C   GLY A   1     -12.013  12.758  64.287  1.00  0.00    -0.405 C  
ATOM      9  C   CYS B   1      -7.898  11.673  68.069  1.00  0.00    -0.128 C  
ATOM     10  CA  CYS C   1     -11.790  12.165  68.197  1.00  0.00    -0.299 C  
ATOM     11  N   CYS B   1      -6.483  13.450  68.844  1.00  0.00    -0.097 NA 
ATOM     12  H2  CYS C   1     -10.509  11.442  66.656  1.00  0.00     0.000 HD 
ATOM     13  N   CYS C   1     -10.745  12.304  67.148  1.00  0.00    -0.228 NA 
ATOM     14  C   CYS C   1     -11.932  13.592  68.870  1.00  0.00    -0.341 C  
ATOM     15  H2  CYS B   1      -6.333  14.344  69.312  1.00  0.00     0.000 HD 
ATOM     16  H1  CYS B   1      -6.042  12.668  69.329  1.00  0.00     0.000 HD 
ATOM     17  O   CYS B   1      -7.007  10.884  68.782  1.00  0.00    -0.067 OA 
ATOM     18  O   CYS C   1     -11.287  13.754  69.951  1.00  0.00    -0.196 OA 
ATOM     19  OXT GLY A   1     -11.335  11.912  63.723  1.00  0.00    -0.387 OA 
ATOM     20  O   GLY A   1     -13.250  12.473  64.766  1.00  0.00    -0.839 OA 
ATOM     21  OXT CYS B   1      -8.449  11.094  67.136  1.00  0.00    -0.131 OA 
ATOM     22  H1  CYS C   1     -11.134  13.045  66.565  1.00  0.00     0.000 HD 
ENDROOT
BRANCH   3  23
ATOM     23  CB  CYS B   1      -8.594  14.300  67.943  1.00  0.00    -0.171 C  
ATOM     24  SG  CYS B   1      -8.603  15.881  68.898  1.00  0.00    -0.235 SA 
ATOM     25  HG  CYS B   1      -9.204  16.947  68.237  1.00  0.00     0.000 H  
ENDBRANCH   3  23
BRANCH  10  26
ATOM     26  CB  CYS C   1     -11.213  11.065  69.064  1.00  0.00    -0.258 C  
ATOM     27  SG  CYS C   1     -12.183  10.515  70.529  1.00  0.00    -0.363 SA 
ATOM     28  HG  CYS C   1     -11.654   9.506  71.324  1.00  0.00     0.000 H  
ENDBRANCH  10  26
TORSDOF 2
ENDMDL
MODEL       11
REMARK 921   NORMALIZED FREE ENERGY PREDICTED BY IDOCK:   -4.93 KCAL/MOL
REMARK 922        TOTAL FREE ENERGY PREDICTED BY IDOCK:   -4.93 KCAL/MOL
REMARK 923 INTER-LIGAND FREE ENERGY PREDICTED BY IDOCK:   -5.51 KCAL/MOL
REMARK 924 INTRA-LIGAND FREE ENERGY PREDICTED BY IDOCK:    0.58 KCAL/MOL
REMARK 927      BINDING AFFINITY PREDICTED BY RF-SCORE:    0.00 PKD
ROOT
HETATM    1 FE   UNL     1      -9.862   9.197  64.700  1.00  0.00    -0.402 Fe 
ATOM      2  N   GLY A   1      -9.111  15.144  69.833  1.00  0.00    -0.427 NA 
ATOM      3  CA  CYS B   1     -11.862  11.094  68.939  1.00  0.00    -0.337 C  
ATOM      4  CA  GLY A   1      -8.931  15.824  68.539  1.00  0.00    -0.194 C  
ATOM      5  H2  GLY A   1      -8.271  15.200  70.409  1.00  0.00     0.000 HD 
ATOM      6  H1  GLY A   1      -9.929  15.510  70.319  1.00  0.00     0.000 HD 
ATOM      7  OXT CYS C   1     -11.543  14.962  66.092  1.00  0.00    -0.324 OA 
ATOM      8  C   GLY A   1      -7.697  15.273  67.806  1.00  0.00    -0.149 C  
ATOM      9  C   CYS B   1     -10.475  10.392  68.736  1.00  0.00    -0.199 C  
ATOM     10  CA  CYS C   1     -10.237  12.989  65.802  1.00  0.00    -0.290 C  
ATOM     11  N   CYS B   1     -12.444  10.376  70.107  1.00  0.00    -0.506 NA 
ATOM     12  H2  CYS C   1      -8.842  12.436  67.314  1.00  0.00     0.000 HD 
ATOM     13  N   CYS C   1      -9.728  12.927  67.197  1.00  0.00    -0.216 NA 
ATOM     14  C   CYS C   1     -11.641  13.717  65.876  1.00  0.00    -0.333 C  
ATOM     15  H2  CYS B   1     -13.399  10.669  70.318  1.00  0.00     0.000 HD 
ATOM     16  H1  CYS B   1     -12.367   9.376  69.923  1.00  0.00     0.000 HD 
ATOM     17  O   CYS B   1     -10.638   9.015  68.788  1.00  0.00    -0.217 OA 
ATOM     18  O   CYS C   1     -12.655  12.953  65.899  1.00  0.00    -0.509 OA 
ATOM     19  OXT GLY A   1      -6.842  14.560  68.310  1.00  0.00    -0.094 OA 
ATOM     20  O   GLY A   1      -7.657  15.608  66.492  1.00  0.00    -0.091 OA 
ATOM     21  OXT CYS B   1      -9.315  10.756  68.560  1.00  0.00    -0.159 OA 
ATOM     22  H1  CYS C   1      -9.715  13.914  67.457  1.00  0.00     0.000 HD 
ENDROOT
BRANCH   3  23
ATOM     23  CB  CYS B   1     -11.979  12.607  69.217  1.00  0.00    -0.246 C  
ATOM     24  SG  CYS B   1     -12.506  13.027  70.937  1.00  0.00    -0.213 SA 
ATOM     25  HG  CYS B   1     -12.612  14.390  71.188  1.00  0.00     0.000 H  
ENDBRANCH   3  23
BRANCH  10  26
ATOM     26  CB  CYS C   1     -10.257  11.523  65.416  1.00  0.00    -0.264 C  
ATOM     27  SG  CYS C   1     -10.475  11.097  63.638  1.00  0.00    -0.339 SA 
ATOM     28  HG  CYS C   1     -10.493   9.754  63.284  1.00  0.00     0.000 H  
ENDBRANCH  10  26
TORSDOF 2
ENDMDL
MODEL       12
REMARK 921   NORMALIZED FREE ENERGY PREDICTED BY IDOCK:   -4.88 KCAL/MOL
REMARK 922        TOTAL FREE ENERGY PREDICTED BY IDOCK:   -4.87 KCAL/MOL
REMARK 923 INTER-LIGAND FREE ENERGY PREDICTED BY IDOCK:   -5.54 KCAL/MOL
REMARK 924 INTRA-LIGAND FREE ENERGY PREDICTED BY IDOCK:    0.67 KCAL/MOL
REMARK 927      BINDING AFFINITY PREDICTED BY RF-SCORE:    0.00 PKD
ROOT
HETATM    1 FE   UNL     1     -11.461  16.700  71.609  1.00  0.00    -0.366 Fe 
ATOM      2  N   GLY A   1      -7.436  12.181  66.543  1.00  0.00    -0.360 NA 
ATOM      3  CA  CYS B   1      -9.708  16.597  66.867  1.00  0.00    -0.254 C  
ATOM      4  CA  GLY A   1      -8.323  11.203  67.196  1.00  0.00    -0.136 C  
ATOM      5  H2  GLY A   1      -6.453  11.983  66.727  1.00  0.00     0.000 HD 
ATOM      6  H1  GLY A   1      -7.632  12.229  65.543  1.00  0.00     0.000 HD 
ATOM      7  OXT CYS C   1     -11.835  12.302  67.306  1.00  0.00    -0.500 OA 
ATOM      8  C   GLY A   1      -8.028  11.130  68.704  1.00  0.00    -0.145 C  
ATOM      9  C   CYS B   1      -8.907  16.733  68.208  1.00  0.00    -0.228 C  
ATOM     10  CA  CYS C   1     -11.085  13.607  69.154  1.00  0.00    -0.231 C  
ATOM     11  N   CYS B   1      -9.180  17.715  66.035  1.00  0.00    -0.513 NA 
ATOM     12  H2  CYS C   1      -9.002  13.994  69.374  1.00  0.00     0.000 HD 
ATOM     13  N   CYS C   1      -9.700  13.813  68.653  1.00  0.00    -0.359 NA 
ATOM     14  C   CYS C   1     -11.995  13.424  67.871  1.00  0.00    -0.323 C  
ATOM     15  H2  CYS B   1      -9.668  17.813  65.145  1.00  0.00     0.000 HD 
ATOM     16  H1  CYS B   1      -9.214  18.563  66.602  1.00  0.00     0.000 HD 
ATOM     17  O   CYS B   1      -8.902  18.058  68.617  1.00  0.00    -0.301 OA 
ATOM     18  O   CYS C   1     -12.607  14.465  67.481  1.00  0.00     0.012 OA 
ATOM     19  OXT GLY A   1      -7.047  11.613  69.251  1.00  0.00    -0.109 OA 
ATOM     20  O   GLY A   1      -9.003  10.509  69.414  1.00  0.00    -0.170 OA 
ATOM     21  OXT CYS B   1      -8.292  15.973  68.952  1.00  0.00    -0.202 OA 
ATOM     22  H1  CYS C   1      -9.550  12.965  68.106  1.00  0.00     0.000 HD 
ENDROOT
BRANCH   3  23
ATOM     23  CB  CYS B   1      -9.658  15.315  66.010  1.00  0.00    -0.338 C  
ATOM     24  SG  CYS B   1     -10.984  15.202  64.729  1.00  0.00    -0.323 SA 
ATOM     25  HG  CYS B   1     -10.938  14.048  63.957  1.00  0.00     0.000 H  
ENDBRANCH   3  23
BRANCH  10  26
ATOM     26  CB  CYS C   1     -11.309  14.866  69.967  1.00  0.00    -0.274 C  
ATOM     27  SG  CYS C   1     -12.855  14.995  70.958  1.00  0.00    -0.420 SA 
ATOM     28  HG  CYS C   1     -13.061  16.149  71.704  1.00  0.00     0.000 H  
ENDBRANCH  10  26
TORSDOF 2
ENDMDL
MODEL       13
REMARK 921   NORMALIZED FREE ENERGY PREDICTED BY IDOCK:   -4.87 KCAL/MOL
REMARK 922        TOTAL FREE ENERGY PREDICTED BY IDOCK:   -4.87 KCAL/MOL
REMARK 923 INTER-LIGAND FREE ENERGY PREDICTED BY IDOCK:   -5.43 KCAL/MOL
REMARK 924 INTRA-LIGAND FREE ENERGY PREDICTED BY IDOCK:    0.56 KCAL/MOL
REMARK 927      BINDING AFFINITY PREDICTED BY RF-SCORE:    0.00 PKD
ROOT
HETATM    1 FE   UNL     1     -12.316   8.753  70.033  1.00  0.00    -0.482 Fe 
ATOM      2  N   GLY A   1      -9.812  12.335  63.461  1.00  0.00    -0.633 NA 
ATOM      3  CA  CYS B   1      -8.137   9.737  67.362  1.00  0.00    -0.114 C  
ATOM      4  CA  GLY A   1     -10.791  13.301  63.989  1.00  0.00    -0.259 C  
ATOM      5  H2  GLY A   1     -10.096  11.965  62.555  1.00  0.00     0.000 HD 
ATOM      6  H1  GLY A   1      -8.882  12.752  63.426  1.00  0.00     0.000 HD 
ATOM      7  OXT CYS C   1     -10.302  14.031  67.564  1.00  0.00    -0.242 OA 
ATOM      8  C   GLY A   1     -12.194  12.673  64.042  1.00  0.00    -0.463 C  
ATOM      9  C   CYS B   1      -9.316   8.763  67.017  1.00  0.00    -0.157 C  
ATOM     10  CA  CYS C   1     -11.437  11.956  67.864  1.00  0.00    -0.316 C  
ATOM     11  N   CYS B   1      -6.925   8.892  67.167  1.00  0.00    -0.074 NA 
ATOM     12  H2  CYS C   1     -11.539  10.584  66.237  1.00  0.00     0.000 HD 
ATOM     13  N   CYS C   1     -10.943  11.321  66.613  1.00  0.00    -0.287 NA 
ATOM     14  C   CYS C   1     -10.327  12.998  68.298  1.00  0.00    -0.252 C  
ATOM     15  H2  CYS B   1      -6.063   9.367  67.435  1.00  0.00     0.000 HD 
ATOM     16  H1  CYS B   1      -7.072   8.020  67.676  1.00  0.00     0.000 HD 
ATOM     17  O   CYS B   1      -9.118   7.546  67.654  1.00  0.00    -0.126 OA 
ATOM     18  O   CYS C   1      -9.508  12.591  69.178  1.00  0.00     0.312 OA 
ATOM     19  OXT GLY A   1     -12.514  11.623  63.502  1.00  0.00    -0.442 OA 
ATOM     20  O   GLY A   1     -13.068  13.372  64.808  1.00  0.00    -0.694 OA 
ATOM     21  OXT CYS B   1     -10.335   8.813  66.331  1.00  0.00    -0.271 OA 
ATOM     22  H1  CYS C   1     -10.817  12.131  66.005  1.00  0.00     0.000 HD 
ENDROOT
BRANCH   3  23
ATOM     23  CB  CYS B   1      -7.914  11.055  66.592  1.00  0.00    -0.156 C  
ATOM     24  SG  CYS B   1      -6.256  11.824  66.862  1.00  0.00    -0.093 SA 
ATOM     25  HG  CYS B   1      -6.054  13.011  66.169  1.00  0.00     0.000 H  
ENDBRANCH   3  23
BRANCH  10  26
ATOM     26  CB  CYS C   1     -11.624  10.753  68.766  1.00  0.00    -0.280 C  
ATOM     27  SG  CYS C   1     -12.181  11.046  70.497  1.00  0.00    -0.400 SA 
ATOM     28  HG  CYS C   1     -12.353   9.944  71.325  1.00  0.00     0.000 H  
ENDBRANCH  10  26
TORSDOF 2
ENDMDL
MODEL       14
REMARK 921   NORMALIZED FREE ENERGY PREDICTED BY IDOCK:   -4.85 KCAL/MOL
REMARK 922        TOTAL FREE ENERGY PREDICTED BY IDOCK:   -4.84 KCAL/MOL
REMARK 923 INTER-LIGAND FREE ENERGY PREDICTED BY IDOCK:   -5.51 KCAL/MOL
REMARK 924 INTRA-LIGAND FREE ENERGY PREDICTED BY IDOCK:    0.67 KCAL/MOL
REMARK 927      BINDING AFFINITY PREDICTED BY RF-SCORE:    0.00 PKD
ROOT
HETATM    1 FE   UNL     1     -12.900  14.982  63.941  1.00  0.00    -0.544 Fe 
ATOM      2  N   GLY A   1     -10.934  15.348  71.576  1.00  0.00    -0.429 NA 
ATOM      3  CA  CYS B   1      -8.932  15.544  67.024  1.00  0.00    -0.226 C  
ATOM      4  CA  GLY A   1     -11.911  14.246  71.558  1.00  0.00    -0.149 C  
ATOM      5  H2  GLY A   1     -11.261  16.135  72.136  1.00  0.00     0.000 HD 
ATOM      6  H1  GLY A   1     -10.023  15.013  71.889  1.00  0.00     0.000 HD 
ATOM      7  OXT CYS C   1     -11.225  11.764  68.926  1.00  0.00    -0.216 OA 
ATOM      8  C   GLY A   1     -13.285  14.750  71.087  1.00  0.00    -0.393 C  
ATOM      9  C   CYS B   1     -10.096  16.552  66.729  1.00  0.00    -0.288 C  
ATOM     10  CA  CYS C   1     -12.268  13.378  67.514  1.00  0.00    -0.185 C  
ATOM     11  N   CYS B   1      -7.705  16.371  66.838  1.00  0.00    -0.214 NA 
ATOM     12  H2  CYS C   1     -12.424  15.395  68.180  1.00  0.00     0.000 HD 
ATOM     13  N   CYS C   1     -11.831  14.572  68.285  1.00  0.00    -0.440 NA 
ATOM     14  C   CYS C   1     -11.169  12.265  67.764  1.00  0.00    -0.276 C  
ATOM     15  H2  CYS B   1      -6.845  15.828  66.918  1.00  0.00     0.000 HD 
ATOM     16  H1  CYS B   1      -7.791  16.850  65.941  1.00  0.00     0.000 HD 
ATOM     17  O   CYS B   1      -9.817  17.260  65.569  1.00  0.00    -0.541 OA 
ATOM     18  O   CYS C   1     -10.283  12.157  66.861  1.00  0.00    -0.207 OA 
ATOM     19  OXT GLY A   1     -13.602  15.926  70.980  1.00  0.00    -0.455 OA 
ATOM     20  O   GLY A   1     -14.134  13.752  70.735  1.00  0.00     0.442 OA 
ATOM     21  OXT CYS B   1     -11.156  16.862  67.267  1.00  0.00    -0.104 OA 
ATOM     22  H1  CYS C   1     -11.771  14.196  69.231  1.00  0.00     0.000 HD 
ENDROOT
BRANCH   3  23
ATOM     23  CB  CYS B   1      -8.802  14.819  68.380  1.00  0.00    -0.181 C  
ATOM     24  SG  CYS B   1      -7.253  15.210  69.308  1.00  0.00    -0.196 SA 
ATOM     25  HG  CYS B   1      -7.136  14.557  70.529  1.00  0.00     0.000 H  
ENDBRANCH   3  23
BRANCH  10  26
ATOM     26  CB  CYS C   1     -12.357  13.934  66.107  1.00  0.00    -0.465 C  
ATOM     27  SG  CYS C   1     -12.507  12.744  64.711  1.00  0.00    -0.441 SA 
ATOM     28  HG  CYS C   1     -12.589  13.254  63.421  1.00  0.00     0.000 H  
ENDBRANCH  10  26
TORSDOF 2
ENDMDL
MODEL       15
REMARK 921   NORMALIZED FREE ENERGY PREDICTED BY IDOCK:   -4.84 KCAL/MOL
REMARK 922        TOTAL FREE ENERGY PREDICTED BY IDOCK:   -4.83 KCAL/MOL
REMARK 923 INTER-LIGAND FREE ENERGY PREDICTED BY IDOCK:   -5.97 KCAL/MOL
REMARK 924 INTRA-LIGAND FREE ENERGY PREDICTED BY IDOCK:    1.14 KCAL/MOL
REMARK 927      BINDING AFFINITY PREDICTED BY RF-SCORE:    0.00 PKD
ROOT
HETATM    1 FE   UNL     1      -5.968  15.570  69.755  1.00  0.00    -0.105 Fe 
ATOM      2  N   GLY A   1     -11.412  16.102  64.066  1.00  0.00    -1.425 NA 
ATOM      3  CA  CYS B   1      -8.475  18.926  66.924  1.00  0.00    -0.286 C  
ATOM      4  CA  GLY A   1     -11.978  15.063  64.942  1.00  0.00    -0.255 C  
ATOM      5  H2  GLY A   1     -11.198  15.739  63.137  1.00  0.00     0.000 HD 
ATOM      6  H1  GLY A   1     -12.033  16.910  64.022  1.00  0.00     0.000 HD 
ATOM      7  OXT CYS C   1     -11.985  16.031  68.495  1.00  0.00    -0.273 OA 
ATOM      8  C   GLY A   1     -11.043  13.844  65.008  1.00  0.00    -0.353 C  
ATOM      9  C   CYS B   1      -7.354  17.920  66.491  1.00  0.00    -0.244 C  
ATOM     10  CA  CYS C   1      -9.689  15.399  68.390  1.00  0.00    -0.211 C  
ATOM     11  N   CYS B   1      -8.005  20.226  66.368  1.00  0.00    -0.487 NA 
ATOM     12  H2  CYS C   1      -8.730  15.279  66.491  1.00  0.00     0.000 HD 
ATOM     13  N   CYS C   1      -9.483  15.776  66.967  1.00  0.00    -0.218 NA 
ATOM     14  C   CYS C   1     -10.838  16.342  68.935  1.00  0.00    -0.317 C  
ATOM     15  H2  CYS B   1      -8.597  21.012  66.638  1.00  0.00     0.000 HD 
ATOM     16  H1  CYS B   1      -7.031  20.347  66.650  1.00  0.00     0.000 HD 
ATOM     17  O   CYS B   1      -6.108  18.464  66.763  1.00  0.00    -0.151 OA 
ATOM     18  O   CYS C   1     -10.449  17.369  69.571  1.00  0.00    -0.248 OA 
ATOM     19  OXT GLY A   1     -10.095  13.645  64.261  1.00  0.00    -0.313 OA 
ATOM     20  O   GLY A   1     -11.328  13.000  66.032  1.00  0.00    -0.293 OA 
ATOM     21  OXT CYS B   1      -7.316  16.805  65.975  1.00  0.00    -0.152 OA 
ATOM     22  H1  CYS C   1     -10.415  15.629  66.577  1.00  0.00     0.000 HD 
ENDROOT
BRANCH   3  23
ATOM     23  CB  CYS B   1      -9.947  18.745  66.498  1.00  0.00    -0.380 C  
ATOM     24  SG  CYS B   1     -10.682  20.212  65.649  1.00  0.00     0.088 SA 
ATOM     25  HG  CYS B   1     -12.007  20.048  65.265  1.00  0.00     0.000 H  
ENDBRANCH   3  23
BRANCH  10  26
ATOM     26  CB  CYS C   1      -8.306  15.617  68.969  1.00  0.00    -0.235 C  
ATOM     27  SG  CYS C   1      -7.049  14.291  68.736  1.00  0.00    -0.110 SA 
ATOM     28  HG  CYS C   1      -5.781  14.490  69.268  1.00  0.00     0.000 H  
ENDBRANCH  10  26
TORSDOF 2
ENDMDL
MODEL       16
REMARK 921   NORMALIZED FREE ENERGY PREDICTED BY IDOCK:   -4.79 KCAL/MOL
REMARK 922        TOTAL FREE ENERGY PREDICTED BY IDOCK:   -4.77 KCAL/MOL
REMARK 923 INTER-LIGAND FREE ENERGY PREDICTED BY IDOCK:   -5.53 KCAL/MOL
REMARK 924 INTRA-LIGAND FREE ENERGY PREDICTED BY IDOCK:    0.75 KCAL/MOL
REMARK 927      BINDING AFFINITY PREDICTED BY RF-SCORE:    0.00 PKD
ROOT
HETATM    1 FE   UNL     1      -6.504  16.776  67.413  1.00  0.00    -0.103 Fe 
ATOM      2  N   GLY A   1     -13.625  13.789  65.786  1.00  0.00    -0.211 NA 
ATOM      3  CA  CYS B   1     -10.968  15.707  69.532  1.00  0.00    -0.281 C  
ATOM      4  CA  GLY A   1     -12.729  12.871  65.062  1.00  0.00    -0.404 C  
ATOM      5  H2  GLY A   1     -14.243  14.294  65.152  1.00  0.00     0.000 HD 
ATOM      6  H1  GLY A   1     -14.148  13.287  66.504  1.00  0.00     0.000 HD 
ATOM      7  OXT CYS C   1      -9.936  11.663  67.134  1.00  0.00    -0.197 OA 
ATOM      8  C   GLY A   1     -11.941  13.627  63.980  1.00  0.00    -0.431 C  
ATOM      9  C   CYS B   1     -10.616  16.830  68.497  1.00  0.00    -0.354 C  
ATOM     10  CA  CYS C   1      -8.992  13.790  66.619  1.00  0.00    -0.129 C  
ATOM     11  N   CYS B   1     -11.701  16.441  70.602  1.00  0.00    -0.495 NA 
ATOM     12  H2  CYS C   1     -10.266  15.354  65.935  1.00  0.00     0.000 HD 
ATOM     13  N   CYS C   1     -10.283  14.520  66.521  1.00  0.00    -0.273 NA 
ATOM     14  C   CYS C   1      -9.235  12.595  67.629  1.00  0.00    -0.191 C  
ATOM     15  H2  CYS B   1     -11.932  15.851  71.402  1.00  0.00     0.000 HD 
ATOM     16  H1  CYS B   1     -11.140  17.254  70.856  1.00  0.00     0.000 HD 
ATOM     17  O   CYS B   1     -10.101  17.933  69.162  1.00  0.00    -0.336 OA 
ATOM     18  O   CYS C   1      -8.868  12.806  68.826  1.00  0.00     0.003 OA 
ATOM     19  OXT GLY A   1     -12.187  14.762  63.597  1.00  0.00    -0.492 OA 
ATOM     20  O   GLY A   1     -10.878  12.932  63.504  1.00  0.00    -0.340 OA 
ATOM     21  OXT CYS B   1     -10.696  16.968  67.278  1.00  0.00    -0.299 OA 
ATOM     22  H1  CYS C   1     -10.915  13.782  66.209  1.00  0.00     0.000 HD 
ENDROOT
BRANCH   3  23
ATOM     23  CB  CYS B   1     -11.816  14.476  69.147  1.00  0.00    -0.319 C  
ATOM     24  SG  CYS B   1     -12.487  13.533  70.587  1.00  0.00    -0.299 SA 
ATOM     25  HG  CYS B   1     -13.251  12.425  70.241  1.00  0.00     0.000 H  
ENDBRANCH   3  23
BRANCH  10  26
ATOM     26  CB  CYS C   1      -8.053  14.886  67.083  1.00  0.00    -0.209 C  
ATOM     27  SG  CYS C   1      -6.476  14.391  67.894  1.00  0.00    -0.166 SA 
ATOM     28  HG  CYS C   1      -5.615  15.396  68.320  1.00  0.00     0.000 H  
ENDBRANCH  10  26
TORSDOF 2
ENDMDL
MODEL       17
REMARK 921   NORMALIZED FREE ENERGY PREDICTED BY IDOCK:   -4.71 KCAL/MOL
REMARK 922        TOTAL FREE ENERGY PREDICTED BY IDOCK:   -4.69 KCAL/MOL
REMARK 923 INTER-LIGAND FREE ENERGY PREDICTED BY IDOCK:   -5.27 KCAL/MOL
REMARK 924 INTRA-LIGAND FREE ENERGY PREDICTED BY IDOCK:    0.58 KCAL/MOL
REMARK 927      BINDING AFFINITY PREDICTED BY RF-SCORE:    0.00 PKD
ROOT
HETATM    1 FE   UNL     1      -7.345  14.245  71.570  1.00  0.00    -0.265 Fe 
ATOM      2  N   GLY A   1     -10.584  18.690  65.910  1.00  0.00    -0.526 NA 
ATOM      3  CA  CYS B   1      -9.656  13.943  67.083  1.00  0.00    -0.247 C  
ATOM      4  CA  GLY A   1      -9.369  19.451  66.247  1.00  0.00    -0.355 C  
ATOM      5  H2  GLY A   1     -11.431  19.218  66.116  1.00  0.00     0.000 HD 
ATOM      6  H1  GLY A   1     -10.556  18.384  64.937  1.00  0.00     0.000 HD 
ATOM      7  OXT CYS C   1      -6.344  17.356  66.342  1.00  0.00    -0.200 OA 
ATOM      8  C   GLY A   1      -9.411  19.913  67.713  1.00  0.00    -0.362 C  
ATOM      9  C   CYS B   1     -10.261  14.335  68.475  1.00  0.00    -0.245 C  
ATOM     10  CA  CYS C   1      -7.164  16.746  68.496  1.00  0.00    -0.194 C  
ATOM     11  N   CYS B   1     -10.597  12.904  66.578  1.00  0.00    -0.257 NA 
ATOM     12  H2  CYS C   1      -9.217  17.081  68.958  1.00  0.00     0.000 HD 
ATOM     13  N   CYS C   1      -8.606  16.888  68.165  1.00  0.00    -0.214 NA 
ATOM     14  C   CYS C   1      -6.434  16.376  67.141  1.00  0.00    -0.192 C  
ATOM     15  H2  CYS B   1     -10.291  12.483  65.700  1.00  0.00     0.000 HD 
ATOM     16  H1  CYS B   1     -10.727  12.219  67.323  1.00  0.00     0.000 HD 
ATOM     17  O   CYS B   1     -10.588  13.186  69.182  1.00  0.00    -0.119 OA 
ATOM     18  O   CYS C   1      -6.209  15.140  66.959  1.00  0.00    -0.201 OA 
ATOM     19  OXT GLY A   1     -10.400  19.879  68.432  1.00  0.00    -0.450 OA 
ATOM     20  O   GLY A   1      -8.207  20.326  68.183  1.00  0.00    -0.184 OA 
ATOM     21  OXT CYS B   1     -10.518  15.381  69.066  1.00  0.00    -0.229 OA 
ATOM     22  H1  CYS C   1      -8.584  17.613  67.447  1.00  0.00     0.000 HD 
ENDROOT
BRANCH   3  23
ATOM     23  CB  CYS B   1      -9.458  14.979  65.956  1.00  0.00    -0.302 C  
ATOM     24  SG  CYS B   1     -10.933  15.212  64.869  1.00  0.00    -0.397 SA 
ATOM     25  HG  CYS B   1     -10.755  16.145  63.854  1.00  0.00     0.000 H  
ENDBRANCH   3  23
BRANCH  10  26
ATOM     26  CB  CYS C   1      -7.197  15.669  69.561  1.00  0.00    -0.198 C  
ATOM     27  SG  CYS C   1      -5.592  15.021  70.190  1.00  0.00    -0.134 SA 
ATOM     28  HG  CYS C   1      -5.623  14.033  71.167  1.00  0.00     0.000 H  
ENDBRANCH  10  26
TORSDOF 2
ENDMDL
MODEL       18
REMARK 921   NORMALIZED FREE ENERGY PREDICTED BY IDOCK:   -4.71 KCAL/MOL
REMARK 922        TOTAL FREE ENERGY PREDICTED BY IDOCK:   -4.69 KCAL/MOL
REMARK 923 INTER-LIGAND FREE ENERGY PREDICTED BY IDOCK:   -5.23 KCAL/MOL
REMARK 924 INTRA-LIGAND FREE ENERGY PREDICTED BY IDOCK:    0.54 KCAL/MOL
REMARK 927      BINDING AFFINITY PREDICTED BY RF-SCORE:    0.00 PKD
ROOT
HETATM    1 FE   UNL     1     -12.486  12.739  68.985  1.00  0.00    -0.278 Fe 
ATOM      2  N   GLY A   1      -6.005  11.033  64.817  1.00  0.00    -0.387 NA 
ATOM      3  CA  CYS B   1     -10.961  11.233  64.405  1.00  0.00    -0.261 C  
ATOM      4  CA  GLY A   1      -5.716  10.401  66.115  1.00  0.00    -0.081 C  
ATOM      5  H2  GLY A   1      -5.342  11.778  64.603  1.00  0.00     0.000 HD 
ATOM      6  H1  GLY A   1      -6.040  10.332  64.077  1.00  0.00     0.000 HD 
ATOM      7  OXT CYS C   1      -8.499   8.330  67.351  1.00  0.00    -0.123 OA 
ATOM      8  C   GLY A   1      -5.664  11.457  67.231  1.00  0.00    -0.079 C  
ATOM      9  C   CYS B   1     -10.802  12.639  65.080  1.00  0.00    -0.290 C  
ATOM     10  CA  CYS C   1      -9.409  10.432  68.013  1.00  0.00    -0.140 C  
ATOM     11  N   CYS B   1     -11.536  11.556  63.069  1.00  0.00    -0.856 NA 
ATOM     12  H2  CYS C   1      -8.667  12.215  67.113  1.00  0.00     0.000 HD 
ATOM     13  N   CYS C   1      -8.801  11.224  66.911  1.00  0.00    -0.159 NA 
ATOM     14  C   CYS C   1      -9.592   8.963  67.451  1.00  0.00    -0.157 C  
ATOM     15  H2  CYS B   1     -11.778  10.724  62.529  1.00  0.00     0.000 HD 
ATOM     16  H1  CYS B   1     -12.332  12.177  63.218  1.00  0.00     0.000 HD 
ATOM     17  O   CYS B   1     -11.963  13.377  64.903  1.00  0.00    -0.347 OA 
ATOM     18  O   CYS C   1     -10.750   8.685  67.010  1.00  0.00    -0.271 OA 
ATOM     19  OXT GLY A   1      -5.618  12.666  67.051  1.00  0.00    -0.338 OA 
ATOM     20  O   GLY A   1      -5.730  10.928  68.478  1.00  0.00    -0.044 OA 
ATOM     21  OXT CYS B   1      -9.919  13.229  65.698  1.00  0.00    -0.280 OA 
ATOM     22  H1  CYS C   1      -7.947  10.699  66.725  1.00  0.00     0.000 HD 
ENDROOT
BRANCH   3  23
ATOM     23  CB  CYS B   1      -9.758  10.293  64.179  1.00  0.00    -0.291 C  
ATOM     24  SG  CYS B   1      -8.995  10.423  62.502  1.00  0.00    -0.305 SA 
ATOM     25  HG  CYS B   1      -7.912   9.576  62.298  1.00  0.00     0.000 H  
ENDBRANCH   3  23
BRANCH  10  26
ATOM     26  CB  CYS C   1     -10.678  11.212  68.289  1.00  0.00    -0.196 C  
ATOM     27  SG  CYS C   1     -11.670  10.758  69.773  1.00  0.00    -0.347 SA 
ATOM     28  HG  CYS C   1     -12.834  11.473  70.026  1.00  0.00     0.000 H  
ENDBRANCH  10  26
TORSDOF 2
ENDMDL
MODEL       19
REMARK 921   NORMALIZED FREE ENERGY PREDICTED BY IDOCK:   -4.58 KCAL/MOL
REMARK 922        TOTAL FREE ENERGY PREDICTED BY IDOCK:   -4.54 KCAL/MOL
REMARK 923 INTER-LIGAND FREE ENERGY PREDICTED BY IDOCK:   -5.07 KCAL/MOL
REMARK 924 INTRA-LIGAND FREE ENERGY PREDICTED BY IDOCK:    0.53 KCAL/MOL
REMARK 927      BINDING AFFINITY PREDICTED BY RF-SCORE:    0.00 PKD
ROOT
HETATM    1 FE   UNL     1     -12.295  11.609  69.448  1.00  0.00    -0.264 Fe 
ATOM      2  N   GLY A   1      -7.092   6.028  71.465  1.00  0.00    -0.076 NA 
ATOM      3  CA  CYS B   1     -11.002   6.816  68.488  1.00  0.00    -0.192 C  
ATOM      4  CA  GLY A   1      -7.429   6.626  72.768  1.00  0.00    -0.092 C  
ATOM      5  H2  GLY A   1      -6.108   6.158  71.231  1.00  0.00     0.000 HD 
ATOM      6  H1  GLY A   1      -7.359   5.044  71.443  1.00  0.00     0.000 HD 
ATOM      7  OXT CYS C   1     -11.057   6.957  73.299  1.00  0.00    -0.254 OA 
ATOM      8  C   GLY A   1      -7.026   8.109  72.802  1.00  0.00    -0.096 C  
ATOM      9  C   CYS B   1     -10.244   8.133  68.105  1.00  0.00    -0.209 C  
ATOM     10  CA  CYS C   1     -10.808   8.883  71.917  1.00  0.00    -0.363 C  
ATOM     11  N   CYS B   1     -11.061   6.065  67.202  1.00  0.00    -0.545 NA 
ATOM     12  H2  CYS C   1      -9.079   9.060  70.684  1.00  0.00     0.000 HD 
ATOM     13  N   CYS C   1      -9.682   8.352  71.104  1.00  0.00    -0.175 NA 
ATOM     14  C   CYS C   1     -11.640   7.623  72.393  1.00  0.00    -0.336 C  
ATOM     15  H2  CYS B   1     -11.605   5.205  67.269  1.00  0.00     0.000 HD 
ATOM     16  H1  CYS B   1     -11.413   6.704  66.489  1.00  0.00     0.000 HD 
ATOM     17  O   CYS B   1     -10.777   8.655  66.935  1.00  0.00    -0.252 OA 
ATOM     18  O   CYS C   1     -12.664   7.347  71.695  1.00  0.00    -0.338 OA 
ATOM     19  OXT GLY A   1      -6.309   8.661  71.978  1.00  0.00    -0.067 OA 
ATOM     20  O   GLY A   1      -7.591   8.798  73.825  1.00  0.00    -0.402 OA 
ATOM     21  OXT CYS B   1      -9.313   8.786  68.571  1.00  0.00    -0.141 OA 
ATOM     22  H1  CYS C   1      -9.223   7.729  71.768  1.00  0.00     0.000 HD 
ENDROOT
BRANCH   3  23
ATOM     23  CB  CYS B   1     -10.469   5.849  69.567  1.00  0.00    -0.278 C  
ATOM     24  SG  CYS B   1      -9.422   4.477  68.910  1.00  0.00    -0.167 SA 
ATOM     25  HG  CYS B   1      -8.942   3.606  69.881  1.00  0.00     0.000 H  
ENDBRANCH   3  23
BRANCH  10  26
ATOM     26  CB  CYS C   1     -11.490   9.809  70.931  1.00  0.00    -0.369 C  
ATOM     27  SG  CYS C   1     -12.906  10.823  71.530  1.00  0.00    -0.456 SA 
ATOM     28  HG  CYS C   1     -13.532  11.673  70.626  1.00  0.00     0.000 H  
ENDBRANCH  10  26
TORSDOF 2
ENDMDL
MODEL       20
REMARK 921   NORMALIZED FREE ENERGY PREDICTED BY IDOCK:   -4.57 KCAL/MOL
REMARK 922        TOTAL FREE ENERGY PREDICTED BY IDOCK:   -4.53 KCAL/MOL
REMARK 923 INTER-LIGAND FREE ENERGY PREDICTED BY IDOCK:   -5.07 KCAL/MOL
REMARK 924 INTRA-LIGAND FREE ENERGY PREDICTED BY IDOCK:    0.54 KCAL/MOL
REMARK 927      BINDING AFFINITY PREDICTED BY RF-SCORE:    0.00 PKD
ROOT
HETATM    1 FE   UNL     1      -8.226  12.691  65.975  1.00  0.00    -0.379 Fe 
ATOM      2  N   GLY A   1     -11.777   6.534  69.405  1.00  0.00    -0.632 NA 
ATOM      3  CA  CYS B   1     -11.178  11.451  69.888  1.00  0.00    -0.143 C  
ATOM      4  CA  GLY A   1     -10.455   5.981  69.063  1.00  0.00    -0.256 C  
ATOM      5  H2  GLY A   1     -12.528   6.054  68.909  1.00  0.00     0.000 HD 
ATOM      6  H1  GLY A   1     -11.920   6.520  70.414  1.00  0.00     0.000 HD 
ATOM      7  OXT CYS C   1      -7.677   8.156  70.114  1.00  0.00    -0.081 OA 
ATOM      8  C   GLY A   1     -10.239   6.001  67.541  1.00  0.00    -0.184 C  
ATOM      9  C   CYS B   1     -11.534  11.484  68.362  1.00  0.00    -0.298 C  
ATOM     10  CA  CYS C   1      -8.236   9.366  68.138  1.00  0.00    -0.118 C  
ATOM     11  N   CYS B   1     -12.283  12.229  70.517  1.00  0.00    -0.378 NA 
ATOM     12  H2  CYS C   1     -10.156   9.086  67.258  1.00  0.00     0.000 HD 
ATOM     13  N   CYS C   1      -9.689   9.052  68.164  1.00  0.00    -0.149 NA 
ATOM     14  C   CYS C   1      -7.750   9.330  69.644  1.00  0.00    -0.087 C  
ATOM     15  H2  CYS B   1     -12.150  12.369  71.519  1.00  0.00     0.000 HD 
ATOM     16  H1  CYS B   1     -12.374  13.105  70.002  1.00  0.00     0.000 HD 
ATOM     17  O   CYS B   1     -11.870  12.778  67.989  1.00  0.00    -0.345 OA 
ATOM     18  O   CYS C   1      -7.681  10.457  70.225  1.00  0.00    -0.144 OA 
ATOM     19  OXT GLY A   1     -11.112   6.207  66.710  1.00  0.00    -0.322 OA 
ATOM     20  O   GLY A   1      -8.944   5.819  67.178  1.00  0.00    -0.114 OA 
ATOM     21  OXT CYS B   1     -11.595  10.664  67.449  1.00  0.00    -0.445 OA 
ATOM     22  H1  CYS C   1      -9.697   8.141  68.622  1.00  0.00     0.000 HD 
ENDROOT
BRANCH   3  23
ATOM     23  CB  CYS B   1     -11.040  10.126  70.668  1.00  0.00    -0.322 C  
ATOM     24  SG  CYS B   1     -12.516   9.685  71.688  1.00  0.00    -0.424 SA 
ATOM     25  HG  CYS B   1     -12.392   8.492  72.389  1.00  0.00     0.000 H  
ENDBRANCH   3  23
BRANCH  10  26
ATOM     26  CB  CYS C   1      -8.225  10.719  67.457  1.00  0.00    -0.112 C  
ATOM     27  SG  CYS C   1      -6.596  11.462  67.029  1.00  0.00    -0.136 SA 
ATOM     28  HG  CYS C   1      -6.585  12.704  66.404  1.00  0.00     0.000 H  
ENDBRANCH  10  26
TORSDOF 2
ENDMDL
MODEL       21
REMARK 921   NORMALIZED FREE ENERGY PREDICTED BY IDOCK:   -4.56 KCAL/MOL
REMARK 922        TOTAL FREE ENERGY PREDICTED BY IDOCK:   -4.52 KCAL/MOL
REMARK 923 INTER-LIGAND FREE ENERGY PREDICTED BY IDOCK:   -5.38 KCAL/MOL
REMARK 924 INTRA-LIGAND FREE ENERGY PREDICTED BY IDOCK:    0.86 KCAL/MOL
REMARK 927      BINDING AFFINITY PREDICTED BY RF-SCORE:    0.00 PKD
ROOT
HETATM    1 FE   UNL     1     -13.049  12.963  71.549  1.00  0.00    -0.311 Fe 
ATOM      2  N   GLY A   1      -6.505  13.132  67.141  1.00  0.00    -0.473 NA 
ATOM      3  CA  CYS B   1     -10.847  15.485  67.760  1.00  0.00    -0.309 C  
ATOM      4  CA  GLY A   1      -6.794  11.690  67.215  1.00  0.00    -0.129 C  
ATOM      5  H2  GLY A   1      -5.615  13.363  67.582  1.00  0.00     0.000 HD 
ATOM      6  H1  GLY A   1      -6.544  13.456  66.175  1.00  0.00     0.000 HD 
ATOM      7  OXT CYS C   1     -10.302  10.890  66.435  1.00  0.00    -0.237 OA 
ATOM      8  C   GLY A   1      -6.735  11.201  68.672  1.00  0.00    -0.062 C  
ATOM      9  C   CYS B   1     -10.461  15.462  69.279  1.00  0.00    -0.251 C  
ATOM     10  CA  CYS C   1     -10.676  11.588  68.683  1.00  0.00    -0.207 C  
ATOM     11  N   CYS B   1     -10.903  16.939  67.440  1.00  0.00    -0.230 NA 
ATOM     12  H2  CYS C   1      -9.208  12.787  69.656  1.00  0.00     0.000 HD 
ATOM     13  N   CYS C   1      -9.576  12.587  68.726  1.00  0.00    -0.410 NA 
ATOM     14  C   CYS C   1     -11.134  11.500  67.170  1.00  0.00    -0.297 C  
ATOM     15  H2  CYS B   1     -11.226  17.125  66.490  1.00  0.00     0.000 HD 
ATOM     16  H1  CYS B   1     -11.480  17.388  68.151  1.00  0.00     0.000 HD 
ATOM     17  O   CYS B   1     -11.246  16.371  69.974  1.00  0.00    -0.348 OA 
ATOM     18  O   CYS C   1     -12.151  12.195  66.864  1.00  0.00    -0.600 OA 
ATOM     19  OXT GLY A   1      -6.275  11.839  69.608  1.00  0.00    -0.102 OA 
ATOM     20  O   GLY A   1      -7.301   9.982  68.855  1.00  0.00    -0.074 OA 
ATOM     21  OXT CYS B   1      -9.649  14.861  69.978  1.00  0.00     0.092 OA 
ATOM     22  H1  CYS C   1      -8.905  12.185  68.071  1.00  0.00     0.000 HD 
ENDROOT
BRANCH   3  23
ATOM     23  CB  CYS B   1      -9.974  14.805  66.684  1.00  0.00    -0.264 C  
ATOM     24  SG  CYS B   1     -10.725  14.781  64.997  1.00  0.00    -0.431 SA 
ATOM     25  HG  CYS B   1      -9.938  14.170  64.027  1.00  0.00     0.000 H  
ENDBRANCH   3  23
BRANCH  10  26
ATOM     26  CB  CYS C   1     -11.673  12.185  69.656  1.00  0.00    -0.325 C  
ATOM     27  SG  CYS C   1     -12.485  11.059  70.866  1.00  0.00    -0.411 SA 
ATOM     28  HG  CYS C   1     -13.399  11.607  71.758  1.00  0.00     0.000 H  
ENDBRANCH  10  26
TORSDOF 2
ENDMDL
MODEL       22
REMARK 921   NORMALIZED FREE ENERGY PREDICTED BY IDOCK:   -4.56 KCAL/MOL
REMARK 922        TOTAL FREE ENERGY PREDICTED BY IDOCK:   -4.52 KCAL/MOL
REMARK 923 INTER-LIGAND FREE ENERGY PREDICTED BY IDOCK:   -5.06 KCAL/MOL
REMARK 924 INTRA-LIGAND FREE ENERGY PREDICTED BY IDOCK:    0.54 KCAL/MOL
REMARK 927      BINDING AFFINITY PREDICTED BY RF-SCORE:    0.00 PKD
ROOT
HETATM    1 FE   UNL     1      -7.063  19.160  68.031  1.00  0.00    -0.211 Fe 
ATOM      2  N   GLY A   1     -11.186  12.704  69.931  1.00  0.00    -0.477 NA 
ATOM      3  CA  CYS B   1      -7.190  14.152  67.342  1.00  0.00    -0.101 C  
ATOM      4  CA  GLY A   1     -12.250  13.680  69.642  1.00  0.00    -0.270 C  
ATOM      5  H2  GLY A   1     -11.208  12.397  70.903  1.00  0.00     0.000 HD 
ATOM      6  H1  GLY A   1     -11.236  11.917  69.284  1.00  0.00     0.000 HD 
ATOM      7  OXT CYS C   1     -11.738  15.460  66.460  1.00  0.00    -0.037 OA 
ATOM      8  C   GLY A   1     -12.175  14.866  70.618  1.00  0.00    -0.318 C  
ATOM      9  C   CYS B   1      -6.837  14.956  68.640  1.00  0.00    -0.106 C  
ATOM     10  CA  CYS C   1     -10.208  16.758  67.748  1.00  0.00    -0.303 C  
ATOM     11  N   CYS B   1      -6.058  13.191  67.212  1.00  0.00    -0.441 NA 
ATOM     12  H2  CYS C   1      -9.471  15.974  69.586  1.00  0.00     0.000 HD 
ATOM     13  N   CYS C   1      -9.812  15.666  68.675  1.00  0.00    -0.204 NA 
ATOM     14  C   CYS C   1     -10.622  16.056  66.390  1.00  0.00    -0.284 C  
ATOM     15  H2  CYS B   1      -6.101  12.640  66.355  1.00  0.00     0.000 HD 
ATOM     16  H1  CYS B   1      -5.192  13.724  67.300  1.00  0.00     0.000 HD 
ATOM     17  O   CYS B   1      -5.504  15.341  68.603  1.00  0.00    -0.086 OA 
ATOM     18  O   CYS C   1      -9.723  16.022  65.494  1.00  0.00    -0.418 OA 
ATOM     19  OXT GLY A   1     -11.502  14.893  71.638  1.00  0.00    -0.344 OA 
ATOM     20  O   GLY A   1     -12.899  15.941  70.216  1.00  0.00    -0.335 OA 
ATOM     21  OXT CYS B   1      -7.435  15.306  69.655  1.00  0.00    -0.206 OA 
ATOM     22  H1  CYS C   1     -10.658  15.096  68.698  1.00  0.00     0.000 HD 
ENDROOT
BRANCH   3  23
ATOM     23  CB  CYS B   1      -8.500  13.348  67.208  1.00  0.00    -0.200 C  
ATOM     24  SG  CYS B   1      -8.329  11.546  67.580  1.00  0.00    -0.150 SA 
ATOM     25  HG  CYS B   1      -9.509  10.822  67.460  1.00  0.00     0.000 H  
ENDBRANCH   3  23
BRANCH  10  26
ATOM     26  CB  CYS C   1      -8.952  17.605  67.714  1.00  0.00    -0.247 C  
ATOM     27  SG  CYS C   1      -9.020  19.223  66.838  1.00  0.00    -0.318 SA 
ATOM     28  HG  CYS C   1      -7.868  20.000  66.807  1.00  0.00     0.000 H  
ENDBRANCH  10  26
TORSDOF 2
ENDMDL
MODEL       23
REMARK 921   NORMALIZED FREE ENERGY PREDICTED BY IDOCK:   -4.55 KCAL/MOL
REMARK 922        TOTAL FREE ENERGY PREDICTED BY IDOCK:   -4.51 KCAL/MOL
REMARK 923 INTER-LIGAND FREE ENERGY PREDICTED BY IDOCK:   -5.07 KCAL/MOL
REMARK 924 INTRA-LIGAND FREE ENERGY PREDICTED BY IDOCK:    0.56 KCAL/MOL
REMARK 927      BINDING AFFINITY PREDICTED BY RF-SCORE:    0.00 PKD
ROOT
HETATM    1 FE   UNL     1     -10.079   9.358  63.370  1.00  0.00    -0.474 Fe 
ATOM      2  N   GLY A   1     -12.361  13.431  69.732  1.00  0.00    -0.219 NA 
ATOM      3  CA  CYS B   1     -10.660  14.073  65.099  1.00  0.00    -0.386 C  
ATOM      4  CA  GLY A   1     -11.562  12.346  70.327  1.00  0.00     0.026 C  
ATOM      5  H2  GLY A   1     -13.336  13.388  70.027  1.00  0.00     0.000 HD 
ATOM      6  H1  GLY A   1     -11.943  14.338  69.939  1.00  0.00     0.000 HD 
ATOM      7  OXT CYS C   1      -8.293  11.910  68.689  1.00  0.00    -0.136 OA 
ATOM      8  C   GLY A   1     -12.192  10.978  70.016  1.00  0.00    -0.343 C  
ATOM      9  C   CYS B   1     -11.761  13.024  64.720  1.00  0.00    -0.345 C  
ATOM     10  CA  CYS C   1      -9.575  10.745  67.051  1.00  0.00    -0.169 C  
ATOM     11  N   CYS B   1     -11.084  15.299  64.365  1.00  0.00    -0.685 NA 
ATOM     12  H2  CYS C   1     -11.679  11.064  66.960  1.00  0.00     0.000 HD 
ATOM     13  N   CYS C   1     -10.818  11.542  67.224  1.00  0.00    -0.241 NA 
ATOM     14  C   CYS C   1      -8.377  11.705  67.442  1.00  0.00    -0.152 C  
ATOM     15  H2  CYS B   1     -10.414  16.063  64.447  1.00  0.00     0.000 HD 
ATOM     16  H1  CYS B   1     -11.265  15.030  63.398  1.00  0.00     0.000 HD 
ATOM     17  O   CYS B   1     -11.987  13.059  63.351  1.00  0.00    -0.542 OA 
ATOM     18  O   CYS C   1      -7.793  12.276  66.470  1.00  0.00     0.059 OA 
ATOM     19  OXT GLY A   1     -13.315  10.810  69.562  1.00  0.00     0.269 OA 
ATOM     20  O   GLY A   1     -11.354   9.935  70.242  1.00  0.00    -0.257 OA 
ATOM     21  OXT CYS B   1     -12.457  12.212  65.326  1.00  0.00    -0.520 OA 
ATOM     22  H1  CYS C   1     -10.755  11.815  68.205  1.00  0.00     0.000 HD 
ENDROOT
BRANCH   3  23
ATOM     23  CB  CYS B   1     -10.387  14.479  66.563  1.00  0.00    -0.283 C  
ATOM     24  SG  CYS B   1      -9.548  16.114  66.756  1.00  0.00    -0.254 SA 
ATOM     25  HG  CYS B   1      -9.302  16.479  68.074  1.00  0.00     0.000 H  
ENDBRANCH   3  23
BRANCH  10  26
ATOM     26  CB  CYS C   1      -9.668  10.340  65.594  1.00  0.00    -0.247 C  
ATOM     27  SG  CYS C   1      -8.382   9.205  64.926  1.00  0.00    -0.171 SA 
ATOM     28  HG  CYS C   1      -8.467   8.833  63.589  1.00  0.00     0.000 H  
ENDBRANCH  10  26
TORSDOF 2
ENDMDL
MODEL       24
REMARK 921   NORMALIZED FREE ENERGY PREDICTED BY IDOCK:   -4.47 KCAL/MOL
REMARK 922        TOTAL FREE ENERGY PREDICTED BY IDOCK:   -4.42 KCAL/MOL
REMARK 923 INTER-LIGAND FREE ENERGY PREDICTED BY IDOCK:   -5.07 KCAL/MOL
REMARK 924 INTRA-LIGAND FREE ENERGY PREDICTED BY IDOCK:    0.66 KCAL/MOL
REMARK 927      BINDING AFFINITY PREDICTED BY RF-SCORE:    0.00 PKD
ROOT
HETATM    1 FE   UNL     1     -12.141  15.929  63.690  1.00  0.00    -0.747 Fe 
ATOM      2  N   GLY A   1     -10.912  16.176  71.482  1.00  0.00     0.196 NA 
ATOM      3  CA  CYS B   1      -8.844  17.545  67.167  1.00  0.00    -0.238 C  
ATOM      4  CA  GLY A   1     -11.419  14.806  71.289  1.00  0.00    -0.202 C  
ATOM      5  H2  GLY A   1     -11.537  16.732  72.066  1.00  0.00     0.000 HD 
ATOM      6  H1  GLY A   1      -9.963  16.157  71.853  1.00  0.00     0.000 HD 
ATOM      7  OXT CYS C   1      -9.719  13.020  68.555  1.00  0.00    -0.208 OA 
ATOM      8  C   GLY A   1     -12.851  14.834  70.729  1.00  0.00    -0.361 C  
ATOM      9  C   CYS B   1     -10.274  18.096  66.839  1.00  0.00    -0.372 C  
ATOM     10  CA  CYS C   1     -11.188  14.293  67.175  1.00  0.00    -0.322 C  
ATOM     11  N   CYS B   1      -7.993  18.768  67.159  1.00  0.00    -0.242 NA 
ATOM     12  H2  CYS C   1     -12.107  16.042  67.974  1.00  0.00     0.000 HD 
ATOM     13  N   CYS C   1     -11.263  15.477  68.071  1.00  0.00    -0.325 NA 
ATOM     14  C   CYS C   1      -9.777  13.626  67.444  1.00  0.00    -0.228 C  
ATOM     15  H2  CYS B   1      -7.001  18.563  67.279  1.00  0.00     0.000 HD 
ATOM     16  H1  CYS B   1      -8.192  19.276  66.297  1.00  0.00     0.000 HD 
ATOM     17  O   CYS B   1     -10.202  18.974  65.767  1.00  0.00    -0.517 OA 
ATOM     18  O   CYS C   1      -8.859  13.935  66.624  1.00  0.00    -0.191 OA 
ATOM     19  OXT GLY A   1     -13.567  15.825  70.681  1.00  0.00    -0.394 OA 
ATOM     20  O   GLY A   1     -13.256  13.642  70.225  1.00  0.00     0.132 OA 
ATOM     21  OXT CYS B   1     -11.406  17.951  67.296  1.00  0.00     0.185 OA 
ATOM     22  H1  CYS C   1     -11.129  15.052  68.989  1.00  0.00     0.000 HD 
ENDROOT
BRANCH   3  23
ATOM     23  CB  CYS B   1      -8.543  16.777  68.471  1.00  0.00    -0.245 C  
ATOM     24  SG  CYS B   1      -6.794  16.917  69.050  1.00  0.00    -0.231 SA 
ATOM     25  HG  CYS B   1      -6.523  16.225  70.225  1.00  0.00     0.000 H  
ENDBRANCH   3  23
BRANCH  10  26
ATOM     26  CB  CYS C   1     -11.387  14.925  65.813  1.00  0.00    -0.314 C  
ATOM     27  SG  CYS C   1     -11.918  13.839  64.423  1.00  0.00    -0.448 SA 
ATOM     28  HG  CYS C   1     -12.101  14.418  63.173  1.00  0.00     0.000 H  
ENDBRANCH  10  26
TORSDOF 2
ENDMDL
MODEL       25
REMARK 921   NORMALIZED FREE ENERGY PREDICTED BY IDOCK:   -4.47 KCAL/MOL
REMARK 922        TOTAL FREE ENERGY PREDICTED BY IDOCK:   -4.41 KCAL/MOL
REMARK 923 INTER-LIGAND FREE ENERGY PREDICTED BY IDOCK:   -4.97 KCAL/MOL
REMARK 924 INTRA-LIGAND FREE ENERGY PREDICTED BY IDOCK:    0.56 KCAL/MOL
REMARK 927      BINDING AFFINITY PREDICTED BY RF-SCORE:    0.00 PKD
ROOT
HETATM    1 FE   UNL     1     -13.272  12.119  70.655  1.00  0.00    -0.207 Fe 
ATOM      2  N   GLY A   1      -6.265  12.738  67.076  1.00  0.00    -0.492 NA 
ATOM      3  CA  CYS B   1     -11.145  12.654  66.099  1.00  0.00    -0.292 C  
ATOM      4  CA  GLY A   1      -6.017  11.677  68.067  1.00  0.00    -0.047 C  
ATOM      5  H2  GLY A   1      -5.690  13.561  67.250  1.00  0.00     0.000 HD 
ATOM      6  H1  GLY A   1      -6.139  12.381  66.130  1.00  0.00     0.000 HD 
ATOM      7  OXT CYS C   1      -8.603   9.057  68.041  1.00  0.00    -0.128 OA 
ATOM      8  C   GLY A   1      -6.208  12.216  69.494  1.00  0.00    -0.124 C  
ATOM      9  C   CYS B   1     -11.236  13.694  67.268  1.00  0.00    -0.309 C  
ATOM     10  CA  CYS C   1      -9.841  10.648  69.315  1.00  0.00    -0.180 C  
ATOM     11  N   CYS B   1     -11.632  13.421  64.917  1.00  0.00    -0.319 NA 
ATOM     12  H2  CYS C   1      -9.261  12.698  69.262  1.00  0.00     0.000 HD 
ATOM     13  N   CYS C   1      -9.244  11.856  68.686  1.00  0.00    -0.371 NA 
ATOM     14  C   CYS C   1      -9.775   9.504  68.222  1.00  0.00    -0.147 C  
ATOM     15  H2  CYS B   1     -11.710  12.848  64.077  1.00  0.00     0.000 HD 
ATOM     16  H1  CYS B   1     -12.513  13.864  65.180  1.00  0.00     0.000 HD 
ATOM     17  O   CYS B   1     -12.463  14.339  67.225  1.00  0.00    -0.235 OA 
ATOM     18  O   CYS C   1     -10.840   9.321  67.556  1.00  0.00    -0.259 OA 
ATOM     19  OXT GLY A   1      -6.305  13.398  69.791  1.00  0.00    -0.125 OA 
ATOM     20  O   GLY A   1      -6.318  11.239  70.429  1.00  0.00    -0.254 OA 
ATOM     21  OXT CYS B   1     -10.499  14.071  68.178  1.00  0.00    -0.232 OA 
ATOM     22  H1  CYS C   1      -8.314  11.520  68.434  1.00  0.00     0.000 HD 
ENDROOT
BRANCH   3  23
ATOM     23  CB  CYS B   1      -9.813  11.984  65.701  1.00  0.00    -0.243 C  
ATOM     24  SG  CYS B   1      -9.931  10.862  64.239  1.00  0.00    -0.359 SA 
ATOM     25  HG  CYS B   1      -8.731  10.259  63.880  1.00  0.00     0.000 H  
ENDBRANCH   3  23
BRANCH  10  26
ATOM     26  CB  CYS C   1     -11.222  11.146  69.689  1.00  0.00    -0.264 C  
ATOM     27  SG  CYS C   1     -12.215  10.144  70.872  1.00  0.00    -0.384 SA 
ATOM     28  HG  CYS C   1     -13.482  10.600  71.215  1.00  0.00     0.000 H  
ENDBRANCH  10  26
TORSDOF 2
ENDMDL
MODEL       26
REMARK 921   NORMALIZED FREE ENERGY PREDICTED BY IDOCK:   -4.46 KCAL/MOL
REMARK 922        TOTAL FREE ENERGY PREDICTED BY IDOCK:   -4.40 KCAL/MOL
REMARK 923 INTER-LIGAND FREE ENERGY PREDICTED BY IDOCK:   -4.94 KCAL/MOL
REMARK 924 INTRA-LIGAND FREE ENERGY PREDICTED BY IDOCK:    0.54 KCAL/MOL
REMARK 927      BINDING AFFINITY PREDICTED BY RF-SCORE:    0.00 PKD
ROOT
HETATM    1 FE   UNL     1     -11.730  13.452  64.487  1.00  0.00    -0.319 Fe 
ATOM      2  N   GLY A   1      -6.853  14.519  70.599  1.00  0.00    -0.275 NA 
ATOM      3  CA  CYS B   1     -11.657  13.773  69.532  1.00  0.00    -0.297 C  
ATOM      4  CA  GLY A   1      -6.355  15.506  69.627  1.00  0.00    -0.163 C  
ATOM      5  H2  GLY A   1      -6.154  13.806  70.807  1.00  0.00     0.000 HD 
ATOM      6  H1  GLY A   1      -7.183  14.984  71.445  1.00  0.00     0.000 HD 
ATOM      7  OXT CYS C   1      -9.036  17.580  68.189  1.00  0.00    -0.251 OA 
ATOM      8  C   GLY A   1      -5.857  14.806  68.352  1.00  0.00    -0.104 C  
ATOM      9  C   CYS B   1     -11.111  12.627  68.614  1.00  0.00    -0.266 C  
ATOM     10  CA  CYS C   1      -9.403  15.668  66.813  1.00  0.00    -0.246 C  
ATOM     11  N   CYS B   1     -12.488  13.047  70.534  1.00  0.00    -0.276 NA 
ATOM     12  H2  CYS C   1      -8.633  13.780  67.431  1.00  0.00     0.000 HD 
ATOM     13  N   CYS C   1      -8.971  14.662  67.818  1.00  0.00    -0.175 NA 
ATOM     14  C   CYS C   1      -9.954  16.905  67.635  1.00  0.00    -0.271 C  
ATOM     15  H2  CYS B   1     -12.986  13.673  71.166  1.00  0.00     0.000 HD 
ATOM     16  H1  CYS B   1     -13.110  12.422  70.021  1.00  0.00     0.000 HD 
ATOM     17  O   CYS B   1     -12.146  11.768  68.273  1.00  0.00    -0.525 OA 
ATOM     18  O   CYS C   1     -11.213  16.947  67.784  1.00  0.00    -0.201 OA 
ATOM     19  OXT GLY A   1      -5.664  13.603  68.242  1.00  0.00    -0.085 OA 
ATOM     20  O   GLY A   1      -5.694  15.649  67.302  1.00  0.00    -0.330 OA 
ATOM     21  OXT CYS B   1     -10.019  12.310  68.147  1.00  0.00    -0.199 OA 
ATOM     22  H1  CYS C   1      -8.285  15.190  68.358  1.00  0.00     0.000 HD 
ENDROOT
BRANCH   3  23
ATOM     23  CB  CYS B   1     -10.715  14.718  70.308  1.00  0.00     0.029 C  
ATOM     24  SG  CYS B   1     -11.560  15.762  71.577  1.00  0.00    -0.471 SA 
ATOM     25  HG  CYS B   1     -10.711  16.612  72.276  1.00  0.00     0.000 H  
ENDBRANCH   3  23
BRANCH  10  26
ATOM     26  CB  CYS C   1     -10.422  14.884  66.010  1.00  0.00    -0.316 C  
ATOM     27  SG  CYS C   1     -11.202  15.707  64.560  1.00  0.00    -0.199 SA 
ATOM     28  HG  CYS C   1     -12.136  14.988  63.823  1.00  0.00     0.000 H  
ENDBRANCH  10  26
TORSDOF 2
ENDMDL
MODEL       27
REMARK 921   NORMALIZED FREE ENERGY PREDICTED BY IDOCK:   -4.41 KCAL/MOL
REMARK 922        TOTAL FREE ENERGY PREDICTED BY IDOCK:   -4.35 KCAL/MOL
REMARK 923 INTER-LIGAND FREE ENERGY PREDICTED BY IDOCK:   -4.99 KCAL/MOL
REMARK 924 INTRA-LIGAND FREE ENERGY PREDICTED BY IDOCK:    0.64 KCAL/MOL
REMARK 927      BINDING AFFINITY PREDICTED BY RF-SCORE:    0.00 PKD
ROOT
HETATM    1 FE   UNL     1      -5.823  10.241  64.378  1.00  0.00    -0.077 Fe 
ATOM      2  N   GLY A   1     -12.408  10.634  68.711  1.00  0.00    -0.784 NA 
ATOM      3  CA  CYS B   1     -10.452  12.273  64.438  1.00  0.00    -0.325 C  
ATOM      4  CA  GLY A   1     -11.355  10.764  69.732  1.00  0.00    -0.300 C  
ATOM      5  H2  GLY A   1     -12.965   9.791  68.846  1.00  0.00     0.000 HD 
ATOM      6  H1  GLY A   1     -12.989  11.472  68.688  1.00  0.00     0.000 HD 
ATOM      7  OXT CYS C   1      -8.802  13.265  68.849  1.00  0.00     0.080 OA 
ATOM      8  C   GLY A   1     -10.478   9.501  69.767  1.00  0.00    -0.231 C  
ATOM      9  C   CYS B   1     -10.041  10.775  64.235  1.00  0.00    -0.361 C  
ATOM     10  CA  CYS C   1      -7.951  11.512  67.475  1.00  0.00    -0.133 C  
ATOM     11  N   CYS B   1     -11.381  12.532  63.301  1.00  0.00    -0.719 NA 
ATOM     12  H2  CYS C   1      -9.226   9.886  66.958  1.00  0.00     0.000 HD 
ATOM     13  N   CYS C   1      -9.265  10.878  67.192  1.00  0.00    -0.148 NA 
ATOM     14  C   CYS C   1      -8.247  13.047  67.731  1.00  0.00    -0.168 C  
ATOM     15  H2  CYS B   1     -11.679  13.506  63.245  1.00  0.00     0.000 HD 
ATOM     16  H1  CYS B   1     -10.922  12.208  62.449  1.00  0.00     0.000 HD 
ATOM     17  O   CYS B   1      -9.706  10.558  62.906  1.00  0.00    -0.317 OA 
ATOM     18  O   CYS C   1      -8.068  13.812  66.734  1.00  0.00     0.041 OA 
ATOM     19  OXT GLY A   1     -10.750   8.442  69.217  1.00  0.00    -0.209 OA 
ATOM     20  O   GLY A   1      -9.311   9.673  70.436  1.00  0.00    -0.251 OA 
ATOM     21  OXT CYS B   1      -9.957   9.775  64.946  1.00  0.00    -0.252 OA 
ATOM     22  H1  CYS C   1      -9.791  11.105  68.036  1.00  0.00     0.000 HD 
ENDROOT
BRANCH   3  23
ATOM     23  CB  CYS B   1     -11.146  12.765  65.725  1.00  0.00    -0.285 C  
ATOM     24  SG  CYS B   1     -12.677  13.757  65.435  1.00  0.00    -0.402 SA 
ATOM     25  HG  CYS B   1     -13.302  14.199  66.595  1.00  0.00     0.000 H  
ENDBRANCH   3  23
BRANCH  10  26
ATOM     26  CB  CYS C   1      -7.169  11.175  66.222  1.00  0.00    -0.048 C  
ATOM     27  SG  CYS C   1      -5.335  11.321  66.277  1.00  0.00    -0.096 SA 
ATOM     28  HG  CYS C   1      -4.618  11.012  65.128  1.00  0.00     0.000 H  
ENDBRANCH  10  26
TORSDOF 2
ENDMDL
MODEL       28
REMARK 921   NORMALIZED FREE ENERGY PREDICTED BY IDOCK:   -4.39 KCAL/MOL
REMARK 922        TOTAL FREE ENERGY PREDICTED BY IDOCK:   -4.32 KCAL/MOL
REMARK 923 INTER-LIGAND FREE ENERGY PREDICTED BY IDOCK:   -4.98 KCAL/MOL
REMARK 924 INTRA-LIGAND FREE ENERGY PREDICTED BY IDOCK:    0.65 KCAL/MOL
REMARK 927      BINDING AFFINITY PREDICTED BY RF-SCORE:    0.00 PKD
ROOT
HETATM    1 FE   UNL     1      -8.893   6.748  66.150  1.00  0.00    -0.116 Fe 
ATOM      2  N   GLY A   1     -10.459  14.402  65.033  1.00  0.00    -0.414 NA 
ATOM      3  CA  CYS B   1      -7.297  11.379  67.406  1.00  0.00    -0.119 C  
ATOM      4  CA  GLY A   1     -11.805  13.832  65.219  1.00  0.00    -0.352 C  
ATOM      5  H2  GLY A   1     -10.343  14.802  64.103  1.00  0.00     0.000 HD 
ATOM      6  H1  GLY A   1     -10.254  15.081  65.766  1.00  0.00     0.000 HD 
ATOM      7  OXT CYS C   1     -12.042  11.647  68.172  1.00  0.00    -0.577 OA 
ATOM      8  C   GLY A   1     -12.115  12.809  64.114  1.00  0.00    -0.438 C  
ATOM      9  C   CYS B   1      -7.204  10.650  66.022  1.00  0.00    -0.131 C  
ATOM     10  CA  CYS C   1     -11.017  10.047  66.732  1.00  0.00     0.053 C  
ATOM     11  N   CYS B   1      -5.907  11.865  67.634  1.00  0.00    -0.071 NA 
ATOM     12  H2  CYS C   1      -9.996  10.723  64.989  1.00  0.00     0.000 HD 
ATOM     13  N   CYS C   1     -10.238  11.028  65.932  1.00  0.00    -0.247 NA 
ATOM     14  C   CYS C   1     -11.204  10.696  68.165  1.00  0.00    -0.302 C  
ATOM     15  H2  CYS B   1      -5.783  12.299  68.549  1.00  0.00     0.000 HD 
ATOM     16  H1  CYS B   1      -5.277  11.078  67.479  1.00  0.00     0.000 HD 
ATOM     17  O   CYS B   1      -6.089   9.824  66.003  1.00  0.00    -0.061 OA 
ATOM     18  O   CYS C   1     -10.379  10.316  69.051  1.00  0.00    -0.187 OA 
ATOM     19  OXT GLY A   1     -11.461  12.661  63.091  1.00  0.00    -0.424 OA 
ATOM     20  O   GLY A   1     -13.178  12.015  64.397  1.00  0.00    -0.669 OA 
ATOM     21  OXT CYS B   1      -7.854  10.644  64.978  1.00  0.00    -0.100 OA 
ATOM     22  H1  CYS C   1     -10.832  11.855  65.982  1.00  0.00     0.000 HD 
ENDROOT
BRANCH   3  23
ATOM     23  CB  CYS B   1      -8.251  12.569  67.642  1.00  0.00    -0.172 C  
ATOM     24  SG  CYS B   1      -7.413  14.214  67.712  1.00  0.00    -0.180 SA 
ATOM     25  HG  CYS B   1      -8.272  15.286  67.923  1.00  0.00     0.000 H  
ENDBRANCH   3  23
BRANCH  10  26
ATOM     26  CB  CYS C   1     -10.134   8.818  66.658  1.00  0.00    -0.288 C  
ATOM     27  SG  CYS C   1     -10.907   7.175  66.964  1.00  0.00    -0.186 SA 
ATOM     28  HG  CYS C   1     -10.098   6.047  66.896  1.00  0.00     0.000 H  
ENDBRANCH  10  26
TORSDOF 2
ENDMDL
MODEL       29
REMARK 921   NORMALIZED FREE ENERGY PREDICTED BY IDOCK:   -4.35 KCAL/MOL
REMARK 922        TOTAL FREE ENERGY PREDICTED BY IDOCK:   -4.28 KCAL/MOL
REMARK 923 INTER-LIGAND FREE ENERGY PREDICTED BY IDOCK:   -4.79 KCAL/MOL
REMARK 924 INTRA-LIGAND FREE ENERGY PREDICTED BY IDOCK:    0.51 KCAL/MOL
REMARK 927      BINDING AFFINITY PREDICTED BY RF-SCORE:    0.00 PKD
ROOT
HETATM    1 FE   UNL     1      -6.044  11.572  64.682  1.00  0.00    -0.347 Fe 
ATOM      2  N   GLY A   1     -11.529   6.668  67.535  1.00  0.00    -0.715 NA 
ATOM      3  CA  CYS B   1     -10.736  11.484  66.565  1.00  0.00    -0.273 C  
ATOM      4  CA  GLY A   1     -10.298   6.157  68.162  1.00  0.00    -0.198 C  
ATOM      5  H2  GLY A   1     -11.952   5.979  66.914  1.00  0.00     0.000 HD 
ATOM      6  H1  GLY A   1     -12.186   6.989  68.247  1.00  0.00     0.000 HD 
ATOM      7  OXT CYS C   1      -8.275   8.809  69.720  1.00  0.00    -0.109 OA 
ATOM      8  C   GLY A   1      -9.308   5.672  67.089  1.00  0.00    -0.115 C  
ATOM      9  C   CYS B   1     -10.224  10.958  65.181  1.00  0.00    -0.297 C  
ATOM     10  CA  CYS C   1      -7.566   9.208  67.480  1.00  0.00    -0.088 C  
ATOM     11  N   CYS B   1     -11.912  12.324  66.201  1.00  0.00    -0.618 NA 
ATOM     12  H2  CYS C   1      -8.747   8.465  65.869  1.00  0.00     0.000 HD 
ATOM     13  N   CYS C   1      -8.837   8.789  66.832  1.00  0.00    -0.125 NA 
ATOM     14  C   CYS C   1      -7.958   9.738  68.919  1.00  0.00    -0.092 C  
ATOM     15  H2  CYS B   1     -12.315  12.812  67.001  1.00  0.00     0.000 HD 
ATOM     16  H1  CYS B   1     -11.618  12.957  65.456  1.00  0.00     0.000 HD 
ATOM     17  O   CYS B   1     -10.166  12.006  64.274  1.00  0.00    -0.287 OA 
ATOM     18  O   CYS C   1      -8.083  10.997  69.025  1.00  0.00    -0.145 OA 
ATOM     19  OXT GLY A   1      -9.581   5.497  65.910  1.00  0.00    -0.144 OA 
ATOM     20  O   GLY A   1      -8.048   5.498  67.559  1.00  0.00    -0.101 OA 
ATOM     21  OXT CYS B   1      -9.883   9.871  64.717  1.00  0.00    -0.307 OA 
ATOM     22  H1  CYS C   1      -9.187   8.094  67.493  1.00  0.00     0.000 HD 
ENDROOT
BRANCH   3  23
ATOM     23  CB  CYS B   1     -11.179  10.527  67.691  1.00  0.00    -0.265 C  
ATOM     24  SG  CYS B   1     -11.708  11.373  69.246  1.00  0.00    -0.364 SA 
ATOM     25  HG  CYS B   1     -12.108  10.511  70.260  1.00  0.00     0.000 H  
ENDBRANCH   3  23
BRANCH  10  26
ATOM     26  CB  CYS C   1      -7.046  10.239  66.499  1.00  0.00    -0.108 C  
ATOM     27  SG  CYS C   1      -5.417  11.023  66.847  1.00  0.00    -0.087 SA 
ATOM     28  HG  CYS C   1      -4.940  11.969  65.948  1.00  0.00     0.000 H  
ENDBRANCH  10  26
TORSDOF 2
ENDMDL
MODEL       30
REMARK 921   NORMALIZED FREE ENERGY PREDICTED BY IDOCK:   -4.34 KCAL/MOL
REMARK 922        TOTAL FREE ENERGY PREDICTED BY IDOCK:   -4.27 KCAL/MOL
REMARK 923 INTER-LIGAND FREE ENERGY PREDICTED BY IDOCK:   -5.08 KCAL/MOL
REMARK 924 INTRA-LIGAND FREE ENERGY PREDICTED BY IDOCK:    0.81 KCAL/MOL
REMARK 927      BINDING AFFINITY PREDICTED BY RF-SCORE:    0.00 PKD
ROOT
HETATM    1 FE   UNL     1      -7.560  17.714  66.384  1.00  0.00    -0.165 Fe 
ATOM      2  N   GLY A   1     -11.582  12.242  70.405  1.00  0.00    -0.493 NA 
ATOM      3  CA  CYS B   1      -8.099  12.711  66.881  1.00  0.00    -0.008 C  
ATOM      4  CA  GLY A   1     -12.627  13.234  70.098  1.00  0.00    -0.044 C  
ATOM      5  H2  GLY A   1     -11.429  12.152  71.409  1.00  0.00     0.000 HD 
ATOM      6  H1  GLY A   1     -11.802  11.345  69.973  1.00  0.00     0.000 HD 
ATOM      7  OXT CYS C   1     -12.651  14.242  66.557  1.00  0.00    -0.360 OA 
ATOM      8  C   GLY A   1     -12.295  14.587  70.750  1.00  0.00    -0.340 C  
ATOM      9  C   CYS B   1      -7.453  13.733  67.879  1.00  0.00    -0.152 C  
ATOM     10  CA  CYS C   1     -10.828  15.627  67.221  1.00  0.00    -0.298 C  
ATOM     11  N   CYS B   1      -7.070  11.639  66.772  1.00  0.00    -0.292 NA 
ATOM     12  H2  CYS C   1      -9.789  15.181  69.027  1.00  0.00     0.000 HD 
ATOM     13  N   CYS C   1     -10.318  14.723  68.286  1.00  0.00    -0.233 NA 
ATOM     14  C   CYS C   1     -11.539  14.697  66.155  1.00  0.00    -0.332 C  
ATOM     15  H2  CYS B   1      -7.311  10.926  66.084  1.00  0.00     0.000 HD 
ATOM     16  H1  CYS B   1      -6.175  12.090  66.580  1.00  0.00     0.000 HD 
ATOM     17  O   CYS B   1      -6.135  13.969  67.517  1.00  0.00    -0.323 OA 
ATOM     18  O   CYS C   1     -10.838  14.387  65.144  1.00  0.00    -0.339 OA 
ATOM     19  OXT GLY A   1     -11.434  14.764  71.601  1.00  0.00    -0.296 OA 
ATOM     20  O   GLY A   1     -13.022  15.618  70.252  1.00  0.00    -0.315 OA 
ATOM     21  OXT CYS B   1      -7.819  14.347  68.879  1.00  0.00    -0.138 OA 
ATOM     22  H1  CYS C   1     -11.174  14.256  68.588  1.00  0.00     0.000 HD 
ENDROOT
BRANCH   3  23
ATOM     23  CB  CYS B   1      -9.452  12.029  67.171  1.00  0.00    -0.187 C  
ATOM     24  SG  CYS B   1      -9.988  10.820  65.880  1.00  0.00    -0.262 SA 
ATOM     25  HG  CYS B   1     -11.207  10.205  66.142  1.00  0.00     0.000 H  
ENDBRANCH   3  23
BRANCH  10  26
ATOM     26  CB  CYS C   1      -9.558  16.320  66.772  1.00  0.00    -0.239 C  
ATOM     27  SG  CYS C   1      -9.636  18.124  66.409  1.00  0.00    -0.264 SA 
ATOM     28  HG  CYS C   1      -8.471  18.760  65.997  1.00  0.00     0.000 H  
ENDBRANCH  10  26
TORSDOF 2
ENDMDL
MODEL       31
REMARK 921   NORMALIZED FREE ENERGY PREDICTED BY IDOCK:   -4.34 KCAL/MOL
REMARK 922        TOTAL FREE ENERGY PREDICTED BY IDOCK:   -4.27 KCAL/MOL
REMARK 923 INTER-LIGAND FREE ENERGY PREDICTED BY IDOCK:   -4.81 KCAL/MOL
REMARK 924 INTRA-LIGAND FREE ENERGY PREDICTED BY IDOCK:    0.55 KCAL/MOL
REMARK 927      BINDING AFFINITY PREDICTED BY RF-SCORE:    0.00 PKD
ROOT
HETATM    1 FE   UNL     1      -7.777   9.967  63.799  1.00  0.00    -0.113 Fe 
ATOM      2  N   GLY A   1     -10.038  15.975  68.391  1.00  0.00    -0.225 NA 
ATOM      3  CA  CYS B   1      -9.281  11.057  68.502  1.00  0.00    -0.177 C  
ATOM      4  CA  GLY A   1     -10.744  16.263  67.130  1.00  0.00    -0.247 C  
ATOM      5  H2  GLY A   1      -9.365  16.704  68.622  1.00  0.00     0.000 HD 
ATOM      6  H1  GLY A   1     -10.705  15.821  69.147  1.00  0.00     0.000 HD 
ATOM      7  OXT CYS C   1     -12.538  13.340  65.791  1.00  0.00    -0.438 OA 
ATOM      8  C   GLY A   1      -9.739  16.495  65.990  1.00  0.00    -0.301 C  
ATOM      9  C   CYS B   1      -7.926  11.410  67.798  1.00  0.00    -0.119 C  
ATOM     10  CA  CYS C   1     -10.373  12.708  65.017  1.00  0.00    -0.299 C  
ATOM     11  N   CYS B   1      -8.851  10.447  69.792  1.00  0.00    -0.384 NA 
ATOM     12  H2  CYS C   1      -8.652  13.593  65.909  1.00  0.00     0.000 HD 
ATOM     13  N   CYS C   1      -9.615  13.338  66.130  1.00  0.00    -0.415 NA 
ATOM     14  C   CYS C   1     -11.793  12.331  65.608  1.00  0.00    -0.360 C  
ATOM     15  H2  CYS B   1      -9.632  10.085  70.340  1.00  0.00     0.000 HD 
ATOM     16  H1  CYS B   1      -8.152   9.736  69.578  1.00  0.00     0.000 HD 
ATOM     17  O   CYS B   1      -7.060  10.330  67.885  1.00  0.00    -0.082 OA 
ATOM     18  O   CYS C   1     -11.927  11.127  65.987  1.00  0.00     0.248 OA 
ATOM     19  OXT GLY A   1      -8.537  16.666  66.137  1.00  0.00    -0.337 OA 
ATOM     20  O   GLY A   1     -10.301  16.440  64.756  1.00  0.00    -0.532 OA 
ATOM     21  OXT CYS B   1      -7.458  12.386  67.217  1.00  0.00    -0.147 OA 
ATOM     22  H1  CYS C   1     -10.224  14.117  66.381  1.00  0.00     0.000 HD 
ENDROOT
BRANCH   3  23
ATOM     23  CB  CYS B   1     -10.339  12.132  68.826  1.00  0.00    -0.147 C  
ATOM     24  SG  CYS B   1     -11.871  11.478  69.625  1.00  0.00    -0.365 SA 
ATOM     25  HG  CYS B   1     -12.824  12.447  69.917  1.00  0.00     0.000 H  
ENDBRANCH   3  23
BRANCH  10  26
ATOM     26  CB  CYS C   1      -9.468  11.551  64.644  1.00  0.00    -0.100 C  
ATOM     27  SG  CYS C   1      -9.776  10.690  63.046  1.00  0.00    -0.274 SA 
ATOM     28  HG  CYS C   1      -8.947   9.629  62.703  1.00  0.00     0.000 H  
ENDBRANCH  10  26
TORSDOF 2
ENDMDL
MODEL       32
REMARK 921   NORMALIZED FREE ENERGY PREDICTED BY IDOCK:   -4.32 KCAL/MOL
REMARK 922        TOTAL FREE ENERGY PREDICTED BY IDOCK:   -4.25 KCAL/MOL
REMARK 923 INTER-LIGAND FREE ENERGY PREDICTED BY IDOCK:   -4.91 KCAL/MOL
REMARK 924 INTRA-LIGAND FREE ENERGY PREDICTED BY IDOCK:    0.66 KCAL/MOL
REMARK 927      BINDING AFFINITY PREDICTED BY RF-SCORE:    0.00 PKD
ROOT
HETATM    1 FE   UNL     1     -13.900  14.086  65.328  1.00  0.00    -0.765 Fe 
ATOM      2  N   GLY A   1      -8.229  10.886  69.787  1.00  0.00    -0.288 NA 
ATOM      3  CA  CYS B   1      -9.221  14.924  67.052  1.00  0.00    -0.234 C  
ATOM      4  CA  GLY A   1      -8.710   9.727  69.016  1.00  0.00    -0.148 C  
ATOM      5  H2  GLY A   1      -8.390  10.768  70.787  1.00  0.00     0.000 HD 
ATOM      6  H1  GLY A   1      -7.247  11.070  69.581  1.00  0.00     0.000 HD 
ATOM      7  OXT CYS C   1      -8.952  10.409  65.406  1.00  0.00    -0.166 OA 
ATOM      8  C   GLY A   1     -10.190   9.448  69.326  1.00  0.00    -0.202 C  
ATOM      9  C   CYS B   1     -10.575  14.931  67.843  1.00  0.00    -0.254 C  
ATOM     10  CA  CYS C   1     -10.992  11.479  66.022  1.00  0.00    -0.259 C  
ATOM     11  N   CYS B   1      -8.582  16.209  67.451  1.00  0.00    -0.176 NA 
ATOM     12  H2  CYS C   1     -11.293  12.049  68.052  1.00  0.00     0.000 HD 
ATOM     13  N   CYS C   1     -10.545  11.909  67.373  1.00  0.00    -0.219 NA 
ATOM     14  C   CYS C   1      -9.686  11.404  65.129  1.00  0.00    -0.244 C  
ATOM     15  H2  CYS B   1      -7.713  16.394  66.950  1.00  0.00     0.000 HD 
ATOM     16  H1  CYS B   1      -9.275  16.948  67.330  1.00  0.00     0.000 HD 
ATOM     17  O   CYS B   1     -11.188  16.168  67.706  1.00  0.00    -0.299 OA 
ATOM     18  O   CYS C   1      -9.458  12.421  64.405  1.00  0.00     0.101 OA 
ATOM     19  OXT GLY A   1     -10.817   9.942  70.252  1.00  0.00    -0.265 OA 
ATOM     20  O   GLY A   1     -10.783   8.622  68.429  1.00  0.00    -0.160 OA 
ATOM     21  OXT CYS B   1     -11.197  14.134  68.541  1.00  0.00    -0.238 OA 
ATOM     22  H1  CYS C   1      -9.872  11.180  67.611  1.00  0.00     0.000 HD 
ENDROOT
BRANCH   3  23
ATOM     23  CB  CYS B   1      -8.172  13.807  67.236  1.00  0.00    -0.159 C  
ATOM     24  SG  CYS B   1      -6.856  14.193  68.473  1.00  0.00    -0.114 SA 
ATOM     25  HG  CYS B   1      -5.912  13.187  68.638  1.00  0.00     0.000 H  
ENDBRANCH   3  23
BRANCH  10  26
ATOM     26  CB  CYS C   1     -11.990  12.562  65.668  1.00  0.00    -0.433 C  
ATOM     27  SG  CYS C   1     -12.525  12.708  63.912  1.00  0.00    -0.388 SA 
ATOM     28  HG  CYS C   1     -13.441  13.702  63.587  1.00  0.00     0.000 H  
ENDBRANCH  10  26
TORSDOF 2
ENDMDL
MODEL       33
REMARK 921   NORMALIZED FREE ENERGY PREDICTED BY IDOCK:   -4.32 KCAL/MOL
REMARK 922        TOTAL FREE ENERGY PREDICTED BY IDOCK:   -4.25 KCAL/MOL
REMARK 923 INTER-LIGAND FREE ENERGY PREDICTED BY IDOCK:   -4.79 KCAL/MOL
REMARK 924 INTRA-LIGAND FREE ENERGY PREDICTED BY IDOCK:    0.54 KCAL/MOL
REMARK 927      BINDING AFFINITY PREDICTED BY RF-SCORE:    0.00 PKD
ROOT
HETATM    1 FE   UNL     1      -8.244  15.788  68.750  1.00  0.00    -0.134 Fe 
ATOM      2  N   GLY A   1      -9.481   8.007  69.204  1.00  0.00    -0.155 NA 
ATOM      3  CA  CYS B   1      -7.527  11.473  66.215  1.00  0.00     0.118 C  
ATOM      4  CA  GLY A   1     -10.752   8.554  69.708  1.00  0.00    -0.213 C  
ATOM      5  H2  GLY A   1      -8.992   7.467  69.918  1.00  0.00     0.000 HD 
ATOM      6  H1  GLY A   1      -9.638   7.461  68.357  1.00  0.00     0.000 HD 
ATOM      7  OXT CYS C   1     -12.148  11.175  67.531  1.00  0.00    -0.444 OA 
ATOM      8  C   GLY A   1     -10.517   9.377  70.986  1.00  0.00    -0.322 C  
ATOM      9  C   CYS B   1      -6.820  11.973  67.520  1.00  0.00    -0.128 C  
ATOM     10  CA  CYS C   1     -10.541  12.557  68.624  1.00  0.00    -0.216 C  
ATOM     11  N   CYS B   1      -6.390  11.075  65.337  1.00  0.00    -0.371 NA 
ATOM     12  H2  CYS C   1      -8.898  11.644  69.627  1.00  0.00     0.000 HD 
ATOM     13  N   CYS C   1      -9.533  11.487  68.845  1.00  0.00    -0.399 NA 
ATOM     14  C   CYS C   1     -11.351  12.139  67.329  1.00  0.00    -0.334 C  
ATOM     15  H2  CYS B   1      -6.688  10.798  64.402  1.00  0.00     0.000 HD 
ATOM     16  H1  CYS B   1      -5.724  11.847  65.329  1.00  0.00     0.000 HD 
ATOM     17  O   CYS B   1      -5.773  12.822  67.189  1.00  0.00    -0.332 OA 
ATOM     18  O   CYS C   1     -10.971  12.683  66.246  1.00  0.00    -0.270 OA 
ATOM     19  OXT GLY A   1      -9.482   9.381  71.638  1.00  0.00    -0.262 OA 
ATOM     20  O   GLY A   1     -11.566  10.170  71.317  1.00  0.00    -0.364 OA 
ATOM     21  OXT CYS B   1      -6.958  11.791  68.728  1.00  0.00    -0.089 OA 
ATOM     22  H1  CYS C   1     -10.124  10.659  68.925  1.00  0.00     0.000 HD 
ENDROOT
BRANCH   3  23
ATOM     23  CB  CYS B   1      -8.536  10.305  66.226  1.00  0.00    -0.135 C  
ATOM     24  SG  CYS B   1      -9.374  10.005  64.608  1.00  0.00    -0.289 SA 
ATOM     25  HG  CYS B   1     -10.282   8.953  64.618  1.00  0.00     0.000 H  
ENDBRANCH   3  23
BRANCH  10  26
ATOM     26  CB  CYS C   1      -9.664  13.787  68.505  1.00  0.00    -0.193 C  
ATOM     27  SG  CYS C   1     -10.478  15.402  68.163  1.00  0.00    -0.252 SA 
ATOM     28  HG  CYS C   1      -9.674  16.531  68.053  1.00  0.00     0.000 H  
ENDBRANCH  10  26
TORSDOF 2
ENDMDL
MODEL       34
REMARK 921   NORMALIZED FREE ENERGY PREDICTED BY IDOCK:   -4.32 KCAL/MOL
REMARK 922        TOTAL FREE ENERGY PREDICTED BY IDOCK:   -4.25 KCAL/MOL
REMARK 923 INTER-LIGAND FREE ENERGY PREDICTED BY IDOCK:   -4.80 KCAL/MOL
REMARK 924 INTRA-LIGAND FREE ENERGY PREDICTED BY IDOCK:    0.56 KCAL/MOL
REMARK 927      BINDING AFFINITY PREDICTED BY RF-SCORE:    0.00 PKD
ROOT
HETATM    1 FE   UNL     1      -7.568   4.852  71.663  1.00  0.00    -0.070 Fe 
ATOM      2  N   GLY A   1      -9.935  11.962  69.187  1.00  0.00    -0.406 NA 
ATOM      3  CA  CYS B   1     -11.461   8.071  71.889  1.00  0.00    -0.291 C  
ATOM      4  CA  GLY A   1      -9.291  11.410  67.982  1.00  0.00    -0.171 C  
ATOM      5  H2  GLY A   1      -9.452  12.793  69.527  1.00  0.00     0.000 HD 
ATOM      6  H1  GLY A   1     -10.923  12.142  69.013  1.00  0.00     0.000 HD 
ATOM      7  OXT CYS C   1     -10.417   7.995  67.191  1.00  0.00    -0.298 OA 
ATOM      8  C   GLY A   1      -7.800  11.138  68.243  1.00  0.00    -0.123 C  
ATOM      9  C   CYS B   1     -10.050   8.187  72.562  1.00  0.00    -0.300 C  
ATOM     10  CA  CYS C   1      -8.876   7.383  68.904  1.00  0.00    -0.131 C  
ATOM     11  N   CYS B   1     -12.402   8.331  73.014  1.00  0.00    -0.610 NA 
ATOM     12  H2  CYS C   1      -8.234   8.860  70.300  1.00  0.00     0.000 HD 
ATOM     13  N   CYS C   1      -9.033   8.622  69.711  1.00  0.00    -0.143 NA 
ATOM     14  C   CYS C   1     -10.249   7.176  68.142  1.00  0.00    -0.188 C  
ATOM     15  H2  CYS B   1     -13.380   8.209  72.750  1.00  0.00     0.000 HD 
ATOM     16  H1  CYS B   1     -12.124   7.733  73.793  1.00  0.00     0.000 HD 
ATOM     17  O   CYS B   1     -10.040   7.473  73.752  1.00  0.00    -0.319 OA 
ATOM     18  O   CYS C   1     -11.060   6.365  68.686  1.00  0.00    -0.317 OA 
ATOM     19  OXT GLY A   1      -7.172  11.542  69.212  1.00  0.00    -0.110 OA 
ATOM     20  O   GLY A   1      -7.227  10.339  67.309  1.00  0.00    -0.087 OA 
ATOM     21  OXT CYS B   1      -8.989   8.751  72.303  1.00  0.00    -0.360 OA 
ATOM     22  H1  CYS C   1      -9.263   9.309  68.993  1.00  0.00     0.000 HD 
ENDROOT
BRANCH   3  23
ATOM     23  CB  CYS B   1     -11.883   8.974  70.711  1.00  0.00    -0.206 C  
ATOM     24  SG  CYS B   1     -12.674  10.565  71.217  1.00  0.00    -0.462 SA 
ATOM     25  HG  CYS B   1     -13.054  11.379  70.157  1.00  0.00     0.000 H  
ENDBRANCH   3  23
BRANCH  10  26
ATOM     26  CB  CYS C   1      -8.534   6.362  69.970  1.00  0.00    -0.135 C  
ATOM     27  SG  CYS C   1      -8.307   4.610  69.452  1.00  0.00    -0.075 SA 
ATOM     28  HG  CYS C   1      -7.994   3.673  70.429  1.00  0.00     0.000 H  
ENDBRANCH  10  26
TORSDOF 2
ENDMDL
MODEL       35
REMARK 921   NORMALIZED FREE ENERGY PREDICTED BY IDOCK:   -4.28 KCAL/MOL
REMARK 922        TOTAL FREE ENERGY PREDICTED BY IDOCK:   -4.20 KCAL/MOL
REMARK 923 INTER-LIGAND FREE ENERGY PREDICTED BY IDOCK:   -4.75 KCAL/MOL
REMARK 924 INTRA-LIGAND FREE ENERGY PREDICTED BY IDOCK:    0.55 KCAL/MOL
REMARK 927      BINDING AFFINITY PREDICTED BY RF-SCORE:    0.00 PKD
ROOT
HETATM    1 FE   UNL     1     -12.412   6.710  69.088  1.00  0.00    -0.601 Fe 
ATOM      2  N   GLY A   1      -6.530  11.786  70.472  1.00  0.00    -0.496 NA 
ATOM      3  CA  CYS B   1     -11.165  11.592  68.671  1.00  0.00    -0.250 C  
ATOM      4  CA  GLY A   1      -5.814  10.624  69.918  1.00  0.00    -0.067 C  
ATOM      5  H2  GLY A   1      -6.254  11.977  71.434  1.00  0.00     0.000 HD 
ATOM      6  H1  GLY A   1      -6.404  12.602  69.873  1.00  0.00     0.000 HD 
ATOM      7  OXT CYS C   1      -7.330   9.355  66.811  1.00  0.00    -0.085 OA 
ATOM      8  C   GLY A   1      -6.004   9.393  70.820  1.00  0.00    -0.063 C  
ATOM      9  C   CYS B   1     -11.464  10.763  69.966  1.00  0.00    -0.331 C  
ATOM     10  CA  CYS C   1      -8.874   8.324  68.307  1.00  0.00    -0.140 C  
ATOM     11  N   CYS B   1     -12.025  12.800  68.828  1.00  0.00    -0.289 NA 
ATOM     12  H2  CYS C   1      -9.041   9.064  70.299  1.00  0.00     0.000 HD 
ATOM     13  N   CYS C   1      -8.807   9.376  69.356  1.00  0.00    -0.149 NA 
ATOM     14  C   CYS C   1      -8.553   9.048  66.936  1.00  0.00    -0.123 C  
ATOM     15  H2  CYS B   1     -12.004  13.412  68.013  1.00  0.00     0.000 HD 
ATOM     16  H1  CYS B   1     -12.965  12.479  69.060  1.00  0.00     0.000 HD 
ATOM     17  O   CYS B   1     -12.834  10.707  70.179  1.00  0.00    -0.276 OA 
ATOM     18  O   CYS C   1      -9.563   9.384  66.245  1.00  0.00    -0.193 OA 
ATOM     19  OXT GLY A   1      -6.463   9.418  71.953  1.00  0.00    -0.288 OA 
ATOM     20  O   GLY A   1      -5.659   8.227  70.219  1.00  0.00    -0.022 OA 
ATOM     21  OXT CYS B   1     -10.797  10.179  70.818  1.00  0.00    -0.307 OA 
ATOM     22  H1  CYS C   1      -7.856   9.726  69.238  1.00  0.00     0.000 HD 
ENDROOT
BRANCH   3  23
ATOM     23  CB  CYS B   1      -9.743  12.077  68.319  1.00  0.00    -0.205 C  
ATOM     24  SG  CYS B   1      -9.612  12.937  66.690  1.00  0.00    -0.259 SA 
ATOM     25  HG  CYS B   1      -8.331  13.374  66.374  1.00  0.00     0.000 H  
ENDBRANCH   3  23
BRANCH  10  26
ATOM     26  CB  CYS C   1     -10.286   7.803  68.482  1.00  0.00    -0.204 C  
ATOM     27  SG  CYS C   1     -10.908   6.561  67.274  1.00  0.00    -0.404 SA 
ATOM     28  HG  CYS C   1     -12.203   6.083  67.434  1.00  0.00     0.000 H  
ENDBRANCH  10  26
TORSDOF 2
ENDMDL
MODEL       36
REMARK 921   NORMALIZED FREE ENERGY PREDICTED BY IDOCK:   -4.27 KCAL/MOL
REMARK 922        TOTAL FREE ENERGY PREDICTED BY IDOCK:   -4.19 KCAL/MOL
REMARK 923 INTER-LIGAND FREE ENERGY PREDICTED BY IDOCK:   -4.74 KCAL/MOL
REMARK 924 INTRA-LIGAND FREE ENERGY PREDICTED BY IDOCK:    0.55 KCAL/MOL
REMARK 927      BINDING AFFINITY PREDICTED BY RF-SCORE:    0.00 PKD
ROOT
HETATM    1 FE   UNL     1      -6.682   6.926  66.956  1.00  0.00    -0.041 Fe 
ATOM      2  N   GLY A   1     -11.684   7.293  73.050  1.00  0.00    -0.558 NA 
ATOM      3  CA  CYS B   1     -10.485   9.671  68.845  1.00  0.00    -0.215 C  
ATOM      4  CA  GLY A   1     -10.415   6.939  73.709  1.00  0.00    -0.357 C  
ATOM      5  H2  GLY A   1     -12.385   6.562  73.161  1.00  0.00     0.000 HD 
ATOM      6  H1  GLY A   1     -12.021   8.195  73.384  1.00  0.00     0.000 HD 
ATOM      7  OXT CYS C   1      -7.608   9.077  72.658  1.00  0.00    -0.336 OA 
ATOM      8  C   GLY A   1      -9.906   5.578  73.205  1.00  0.00    -0.163 C  
ATOM      9  C   CYS B   1     -10.529   8.239  68.210  1.00  0.00    -0.161 C  
ATOM     10  CA  CYS C   1      -7.593   7.651  70.748  1.00  0.00    -0.080 C  
ATOM     11  N   CYS B   1     -11.566  10.401  68.125  1.00  0.00    -0.703 NA 
ATOM     12  H2  CYS C   1      -9.325   6.494  70.302  1.00  0.00     0.000 HD 
ATOM     13  N   CYS C   1      -9.053   7.372  70.744  1.00  0.00    -0.151 NA 
ATOM     14  C   CYS C   1      -7.418   9.081  71.405  1.00  0.00    -0.037 C  
ATOM     15  H2  CYS B   1     -11.612  11.389  68.373  1.00  0.00     0.000 HD 
ATOM     16  H1  CYS B   1     -11.428  10.248  67.126  1.00  0.00     0.000 HD 
ATOM     17  O   CYS B   1     -10.596   8.343  66.828  1.00  0.00    -0.295 OA 
ATOM     18  O   CYS C   1      -7.301  10.048  70.591  1.00  0.00    -0.308 OA 
ATOM     19  OXT GLY A   1     -10.563   4.783  72.548  1.00  0.00    -0.206 OA 
ATOM     20  O   GLY A   1      -8.606   5.341  73.511  1.00  0.00    -0.112 OA 
ATOM     21  OXT CYS B   1     -10.530   7.083  68.629  1.00  0.00    -0.190 OA 
ATOM     22  H1  CYS C   1      -9.281   7.447  71.736  1.00  0.00     0.000 HD 
ENDROOT
BRANCH   3  23
ATOM     23  CB  CYS B   1     -10.694   9.902  70.356  1.00  0.00    -0.318 C  
ATOM     24  SG  CYS B   1     -12.431  10.315  70.831  1.00  0.00    -0.393 SA 
ATOM     25  HG  CYS B   1     -12.620  10.523  72.192  1.00  0.00     0.000 H  
ENDBRANCH   3  23
BRANCH  10  26
ATOM     26  CB  CYS C   1      -7.254   7.539  69.275  1.00  0.00    -0.086 C  
ATOM     27  SG  CYS C   1      -5.515   7.854  68.759  1.00  0.00    -0.028 SA 
ATOM     28  HG  CYS C   1      -5.204   7.752  67.408  1.00  0.00     0.000 H  
ENDBRANCH  10  26
TORSDOF 2
ENDMDL
MODEL       37
REMARK 921   NORMALIZED FREE ENERGY PREDICTED BY IDOCK:   -4.26 KCAL/MOL
REMARK 922        TOTAL FREE ENERGY PREDICTED BY IDOCK:   -4.18 KCAL/MOL
REMARK 923 INTER-LIGAND FREE ENERGY PREDICTED BY IDOCK:   -4.72 KCAL/MOL
REMARK 924 INTRA-LIGAND FREE ENERGY PREDICTED BY IDOCK:    0.54 KCAL/MOL
REMARK 927      BINDING AFFINITY PREDICTED BY RF-SCORE:    0.00 PKD
ROOT
HETATM    1 FE   UNL     1      -8.913   3.321  69.527  1.00  0.00    -0.063 Fe 
ATOM      2  N   GLY A   1     -12.579  10.300  69.903  1.00  0.00    -0.550 NA 
ATOM      3  CA  CYS B   1      -9.387   7.723  67.084  1.00  0.00    -0.150 C  
ATOM      4  CA  GLY A   1     -12.171  10.086  71.302  1.00  0.00    -0.402 C  
ATOM      5  H2  GLY A   1     -13.593  10.334  69.804  1.00  0.00     0.000 HD 
ATOM      6  H1  GLY A   1     -12.133  11.136  69.524  1.00  0.00     0.000 HD 
ATOM      7  OXT CYS C   1      -8.637   9.109  71.632  1.00  0.00    -0.342 OA 
ATOM      8  C   GLY A   1     -12.843   8.826  71.873  1.00  0.00    -0.375 C  
ATOM      9  C   CYS B   1     -10.434   6.566  67.236  1.00  0.00    -0.272 C  
ATOM     10  CA  CYS C   1      -9.458   6.956  71.018  1.00  0.00    -0.163 C  
ATOM     11  N   CYS B   1      -9.379   7.991  65.618  1.00  0.00    -0.413 NA 
ATOM     12  H2  CYS C   1     -11.354   6.803  70.058  1.00  0.00     0.000 HD 
ATOM     13  N   CYS C   1     -10.570   7.447  70.161  1.00  0.00    -0.225 NA 
ATOM     14  C   CYS C   1      -8.336   8.073  70.967  1.00  0.00    -0.116 C  
ATOM     15  H2  CYS B   1      -8.675   8.677  65.343  1.00  0.00     0.000 HD 
ATOM     16  H1  CYS B   1      -9.268   7.095  65.143  1.00  0.00     0.000 HD 
ATOM     17  O   CYS B   1     -10.194   5.591  66.279  1.00  0.00    -0.186 OA 
ATOM     18  O   CYS C   1      -7.395   7.868  70.140  1.00  0.00    -0.067 OA 
ATOM     19  OXT GLY A   1     -13.768   8.224  71.346  1.00  0.00    -0.309 OA 
ATOM     20  O   GLY A   1     -12.274   8.387  73.023  1.00  0.00    -0.228 OA 
ATOM     21  OXT CYS B   1     -11.393   6.330  67.967  1.00  0.00    -0.260 OA 
ATOM     22  H1  CYS C   1     -10.795   8.338  70.605  1.00  0.00     0.000 HD 
ENDROOT
BRANCH   3  23
ATOM     23  CB  CYS B   1      -9.555   9.078  67.803  1.00  0.00    -0.150 C  
ATOM     24  SG  CYS B   1     -10.390  10.379  66.793  1.00  0.00    -0.224 SA 
ATOM     25  HG  CYS B   1     -10.542  11.599  67.441  1.00  0.00     0.000 H  
ENDBRANCH   3  23
BRANCH  10  26
ATOM     26  CB  CYS C   1      -9.123   5.633  70.360  1.00  0.00    -0.144 C  
ATOM     27  SG  CYS C   1      -7.779   4.613  71.097  1.00  0.00    -0.083 SA 
ATOM     28  HG  CYS C   1      -7.472   3.400  70.493  1.00  0.00     0.000 H  
ENDBRANCH  10  26
TORSDOF 2
ENDMDL
MODEL       38
REMARK 921   NORMALIZED FREE ENERGY PREDICTED BY IDOCK:   -4.26 KCAL/MOL
REMARK 922        TOTAL FREE ENERGY PREDICTED BY IDOCK:   -4.18 KCAL/MOL
REMARK 923 INTER-LIGAND FREE ENERGY PREDICTED BY IDOCK:   -5.62 KCAL/MOL
REMARK 924 INTRA-LIGAND FREE ENERGY PREDICTED BY IDOCK:    1.44 KCAL/MOL
REMARK 927      BINDING AFFINITY PREDICTED BY RF-SCORE:    0.00 PKD
ROOT
HETATM    1 FE   UNL     1     -13.741  11.914  63.089  1.00  0.00    -0.605 Fe 
ATOM      2  N   GLY A   1      -7.458  14.518  67.092  1.00  0.00    -0.305 NA 
ATOM      3  CA  CYS B   1      -9.456  10.342  65.265  1.00  0.00    -0.237 C  
ATOM      4  CA  GLY A   1      -8.558  15.273  67.714  1.00  0.00    -0.158 C  
ATOM      5  H2  GLY A   1      -6.792  15.133  66.626  1.00  0.00     0.000 HD 
ATOM      6  H1  GLY A   1      -7.002  13.918  67.780  1.00  0.00     0.000 HD 
ATOM      7  OXT CYS C   1     -11.406  13.140  68.661  1.00  0.00    -0.251 OA 
ATOM      8  C   GLY A   1      -9.246  16.177  66.677  1.00  0.00    -0.246 C  
ATOM      9  C   CYS B   1      -9.641  11.190  63.960  1.00  0.00    -0.254 C  
ATOM     10  CA  CYS C   1     -11.942  13.295  66.343  1.00  0.00    -0.410 C  
ATOM     11  N   CYS B   1      -8.530   9.254  64.841  1.00  0.00    -0.157 NA 
ATOM     12  H2  CYS C   1     -10.427  13.881  64.964  1.00  0.00     0.000 HD 
ATOM     13  N   CYS C   1     -10.540  13.410  65.862  1.00  0.00    -0.279 NA 
ATOM     14  C   CYS C   1     -11.879  12.471  67.694  1.00  0.00    -0.317 C  
ATOM     15  H2  CYS B   1      -8.372   8.559  65.571  1.00  0.00     0.000 HD 
ATOM     16  H1  CYS B   1      -8.903   8.850  63.981  1.00  0.00     0.000 HD 
ATOM     17  O   CYS B   1      -9.888  10.347  62.886  1.00  0.00    -0.287 OA 
ATOM     18  O   CYS C   1     -12.125  11.231  67.592  1.00  0.00    -0.600 OA 
ATOM     19  OXT GLY A   1      -8.804  16.432  65.566  1.00  0.00    -0.305 OA 
ATOM     20  O   GLY A   1     -10.451  16.646  67.086  1.00  0.00    -0.312 OA 
ATOM     21  OXT CYS B   1      -9.608  12.383  63.667  1.00  0.00    -0.191 OA 
ATOM     22  H1  CYS C   1     -10.086  13.868  66.653  1.00  0.00     0.000 HD 
ENDROOT
BRANCH   3  23
ATOM     23  CB  CYS B   1      -8.891  10.953  66.564  1.00  0.00    -0.163 C  
ATOM     24  SG  CYS B   1      -7.055  10.834  66.728  1.00  0.00    -0.135 SA 
ATOM     25  HG  CYS B   1      -6.547  11.384  67.898  1.00  0.00     0.000 H  
ENDBRANCH   3  23
BRANCH  10  26
ATOM     26  CB  CYS C   1     -12.616  12.616  65.169  1.00  0.00    -0.386 C  
ATOM     27  SG  CYS C   1     -12.479  13.407  63.513  1.00  0.00    -0.019 SA 
ATOM     28  HG  CYS C   1     -13.097  12.784  62.435  1.00  0.00     0.000 H  
ENDBRANCH  10  26
TORSDOF 2
ENDMDL
MODEL       39
REMARK 921   NORMALIZED FREE ENERGY PREDICTED BY IDOCK:   -4.25 KCAL/MOL
REMARK 922        TOTAL FREE ENERGY PREDICTED BY IDOCK:   -4.17 KCAL/MOL
REMARK 923 INTER-LIGAND FREE ENERGY PREDICTED BY IDOCK:   -4.73 KCAL/MOL
REMARK 924 INTRA-LIGAND FREE ENERGY PREDICTED BY IDOCK:    0.55 KCAL/MOL
REMARK 927      BINDING AFFINITY PREDICTED BY RF-SCORE:    0.00 PKD
ROOT
HETATM    1 FE   UNL     1     -12.722  14.870  70.078  1.00  0.00    -0.293 Fe 
ATOM      2  N   GLY A   1      -9.784   9.756  64.834  1.00  0.00    -0.415 NA 
ATOM      3  CA  CYS B   1     -10.307  10.441  69.736  1.00  0.00    -0.208 C  
ATOM      4  CA  GLY A   1      -9.371  11.052  64.270  1.00  0.00    -0.205 C  
ATOM      5  H2  GLY A   1     -10.422   9.259  64.213  1.00  0.00     0.000 HD 
ATOM      6  H1  GLY A   1      -8.968   9.191  65.069  1.00  0.00     0.000 HD 
ATOM      7  OXT CYS C   1      -7.786  13.257  66.756  1.00  0.00     0.109 OA 
ATOM      8  C   GLY A   1     -10.602  11.903  63.916  1.00  0.00    -0.394 C  
ATOM      9  C   CYS B   1     -11.793  10.780  69.369  1.00  0.00    -0.298 C  
ATOM     10  CA  CYS C   1     -10.038  13.691  67.406  1.00  0.00    -0.241 C  
ATOM     11  N   CYS B   1     -10.432   9.232  70.599  1.00  0.00    -0.240 NA 
ATOM     12  H2  CYS C   1     -11.567  12.322  66.832  1.00  0.00     0.000 HD 
ATOM     13  N   CYS C   1     -10.570  12.350  67.047  1.00  0.00    -0.223 NA 
ATOM     14  C   CYS C   1      -8.512  13.478  67.771  1.00  0.00    -0.184 C  
ATOM     15  H2  CYS B   1      -9.540   8.931  70.992  1.00  0.00     0.000 HD 
ATOM     16  H1  CYS B   1     -11.132   9.435  71.312  1.00  0.00     0.000 HD 
ATOM     17  O   CYS B   1     -12.579  10.730  70.512  1.00  0.00    -0.329 OA 
ATOM     18  O   CYS C   1      -8.255  13.371  69.009  1.00  0.00     0.108 OA 
ATOM     19  OXT GLY A   1     -11.752  11.489  63.869  1.00  0.00    -0.327 OA 
ATOM     20  O   GLY A   1     -10.310  13.211  63.705  1.00  0.00    -0.231 OA 
ATOM     21  OXT CYS B   1     -12.411  11.058  68.344  1.00  0.00    -0.528 OA 
ATOM     22  H1  CYS C   1      -9.953  12.080  66.280  1.00  0.00     0.000 HD 
ENDROOT
BRANCH   3  23
ATOM     23  CB  CYS B   1      -9.248  10.134  68.657  1.00  0.00    -0.157 C  
ATOM     24  SG  CYS B   1      -7.542   9.871  69.316  1.00  0.00    -0.113 SA 
ATOM     25  HG  CYS B   1      -6.588   9.594  68.344  1.00  0.00     0.000 H  
ENDBRANCH   3  23
BRANCH  10  26
ATOM     26  CB  CYS C   1     -10.955  14.091  68.544  1.00  0.00    -0.256 C  
ATOM     27  SG  CYS C   1     -10.957  15.853  69.077  1.00  0.00    -0.301 SA 
ATOM     28  HG  CYS C   1     -11.797  16.221  70.121  1.00  0.00     0.000 H  
ENDBRANCH  10  26
TORSDOF 2
ENDMDL
MODEL       40
REMARK 921   NORMALIZED FREE ENERGY PREDICTED BY IDOCK:   -4.22 KCAL/MOL
REMARK 922        TOTAL FREE ENERGY PREDICTED BY IDOCK:   -4.13 KCAL/MOL
REMARK 923 INTER-LIGAND FREE ENERGY PREDICTED BY IDOCK:   -4.67 KCAL/MOL
REMARK 924 INTRA-LIGAND FREE ENERGY PREDICTED BY IDOCK:    0.53 KCAL/MOL
REMARK 927      BINDING AFFINITY PREDICTED BY RF-SCORE:    0.00 PKD
ROOT
HETATM    1 FE   UNL     1      -7.180  11.917  70.377  1.00  0.00    -0.358 Fe 
ATOM      2  N   GLY A   1     -10.068  11.333  63.056  1.00  0.00    -0.576 NA 
ATOM      3  CA  CYS B   1     -11.193  13.140  67.554  1.00  0.00    -0.282 C  
ATOM      4  CA  GLY A   1      -9.494   9.994  63.272  1.00  0.00    -0.182 C  
ATOM      5  H2  GLY A   1      -9.600  11.827  62.296  1.00  0.00     0.000 HD 
ATOM      6  H1  GLY A   1     -11.074  11.270  62.904  1.00  0.00     0.000 HD 
ATOM      7  OXT CYS C   1     -10.513   8.498  66.478  1.00  0.00    -0.256 OA 
ATOM      8  C   GLY A   1      -7.976  10.088  63.501  1.00  0.00    -0.157 C  
ATOM      9  C   CYS B   1      -9.741  13.730  67.505  1.00  0.00    -0.230 C  
ATOM     10  CA  CYS C   1      -8.817   9.917  67.368  1.00  0.00    -0.132 C  
ATOM     11  N   CYS B   1     -12.056  14.353  67.622  1.00  0.00    -0.590 NA 
ATOM     12  H2  CYS C   1      -8.140  11.576  66.214  1.00  0.00     0.000 HD 
ATOM     13  N   CYS C   1      -8.969  11.000  66.361  1.00  0.00    -0.174 NA 
ATOM     14  C   CYS C   1     -10.233   9.218  67.482  1.00  0.00    -0.242 C  
ATOM     15  H2  CYS B   1     -13.044  14.131  67.742  1.00  0.00     0.000 HD 
ATOM     16  H1  CYS B   1     -11.689  14.950  68.364  1.00  0.00     0.000 HD 
ATOM     17  O   CYS B   1      -9.605  14.716  68.472  1.00  0.00    -0.209 OA 
ATOM     18  O   CYS C   1     -10.960   9.608  68.447  1.00  0.00    -0.198 OA 
ATOM     19  OXT GLY A   1      -7.295  11.081  63.291  1.00  0.00     0.285 OA 
ATOM     20  O   GLY A   1      -7.439   8.957  64.024  1.00  0.00    -0.105 OA 
ATOM     21  OXT CYS B   1      -8.732  13.543  66.830  1.00  0.00    -0.188 OA 
ATOM     22  H1  CYS C   1      -9.287  10.480  65.543  1.00  0.00     0.000 HD 
ENDROOT
BRANCH   3  23
ATOM     23  CB  CYS B   1     -11.747  12.237  66.433  1.00  0.00    -0.365 C  
ATOM     24  SG  CYS B   1     -12.635  13.145  65.092  1.00  0.00    -0.402 SA 
ATOM     25  HG  CYS B   1     -13.134  12.332  64.081  1.00  0.00     0.000 H  
ENDBRANCH   3  23
BRANCH  10  26
ATOM     26  CB  CYS C   1      -8.345  10.690  68.583  1.00  0.00    -0.137 C  
ATOM     27  SG  CYS C   1      -7.858   9.738  70.081  1.00  0.00    -0.170 SA 
ATOM     28  HG  CYS C   1      -7.425  10.447  71.196  1.00  0.00     0.000 H  
ENDBRANCH  10  26
TORSDOF 2
ENDMDL
MODEL       41
REMARK 921   NORMALIZED FREE ENERGY PREDICTED BY IDOCK:   -4.20 KCAL/MOL
REMARK 922        TOTAL FREE ENERGY PREDICTED BY IDOCK:   -4.11 KCAL/MOL
REMARK 923 INTER-LIGAND FREE ENERGY PREDICTED BY IDOCK:   -4.63 KCAL/MOL
REMARK 924 INTRA-LIGAND FREE ENERGY PREDICTED BY IDOCK:    0.52 KCAL/MOL
REMARK 927      BINDING AFFINITY PREDICTED BY RF-SCORE:    0.00 PKD
ROOT
HETATM    1 FE   UNL     1      -5.558  12.579  67.537  1.00  0.00    -0.060 Fe 
ATOM      2  N   GLY A   1     -12.963  13.947  65.176  1.00  0.00    -0.773 NA 
ATOM      3  CA  CYS B   1      -9.845  14.860  68.946  1.00  0.00    -0.230 C  
ATOM      4  CA  GLY A   1     -12.775  12.534  64.807  1.00  0.00    -0.330 C  
ATOM      5  H2  GLY A   1     -13.124  14.534  64.357  1.00  0.00     0.000 HD 
ATOM      6  H1  GLY A   1     -13.712  14.041  65.862  1.00  0.00     0.000 HD 
ATOM      7  OXT CYS C   1     -11.367  10.514  67.545  1.00  0.00    -0.396 OA 
ATOM      8  C   GLY A   1     -11.646  12.391  63.773  1.00  0.00    -0.473 C  
ATOM      9  C   CYS B   1      -8.844  15.267  67.810  1.00  0.00    -0.173 C  
ATOM     10  CA  CYS C   1      -9.309  11.491  66.842  1.00  0.00    -0.181 C  
ATOM     11  N   CYS B   1     -10.030  16.125  69.712  1.00  0.00    -0.188 NA 
ATOM     12  H2  CYS C   1      -9.351  13.266  65.664  1.00  0.00     0.000 HD 
ATOM     13  N   CYS C   1      -9.893  12.777  66.376  1.00  0.00    -0.264 NA 
ATOM     14  C   CYS C   1     -10.266  10.960  67.986  1.00  0.00    -0.178 C  
ATOM     15  H2  CYS B   1     -10.603  16.004  70.547  1.00  0.00     0.000 HD 
ATOM     16  H1  CYS B   1      -9.103  16.499  69.916  1.00  0.00     0.000 HD 
ATOM     17  O   CYS B   1      -7.795  15.996  68.352  1.00  0.00    -0.140 OA 
ATOM     18  O   CYS C   1      -9.896  11.217  69.173  1.00  0.00    -0.163 OA 
ATOM     19  OXT GLY A   1     -11.141  13.317  63.154  1.00  0.00     0.271 OA 
ATOM     20  O   GLY A   1     -11.199  11.118  63.634  1.00  0.00    -0.273 OA 
ATOM     21  OXT CYS B   1      -8.774  15.109  66.593  1.00  0.00    -0.262 OA 
ATOM     22  H1  CYS C   1     -10.828  12.488  66.089  1.00  0.00     0.000 HD 
ENDROOT
BRANCH   3  23
ATOM     23  CB  CYS B   1     -11.247  14.295  68.637  1.00  0.00    -0.264 C  
ATOM     24  SG  CYS B   1     -12.301  14.012  70.127  1.00  0.00    -0.324 SA 
ATOM     25  HG  CYS B   1     -13.564  13.504  69.849  1.00  0.00     0.000 H  
ENDBRANCH   3  23
BRANCH  10  26
ATOM     26  CB  CYS C   1      -7.920  11.920  67.269  1.00  0.00    -0.171 C  
ATOM     27  SG  CYS C   1      -6.758  10.623  67.869  1.00  0.00    -0.065 SA 
ATOM     28  HG  CYS C   1      -5.484  11.016  68.260  1.00  0.00     0.000 H  
ENDBRANCH  10  26
TORSDOF 2
ENDMDL
MODEL       42
REMARK 921   NORMALIZED FREE ENERGY PREDICTED BY IDOCK:   -4.19 KCAL/MOL
REMARK 922        TOTAL FREE ENERGY PREDICTED BY IDOCK:   -4.11 KCAL/MOL
REMARK 923 INTER-LIGAND FREE ENERGY PREDICTED BY IDOCK:   -4.68 KCAL/MOL
REMARK 924 INTRA-LIGAND FREE ENERGY PREDICTED BY IDOCK:    0.58 KCAL/MOL
REMARK 927      BINDING AFFINITY PREDICTED BY RF-SCORE:    0.00 PKD
ROOT
HETATM    1 FE   UNL     1     -13.120   9.878  70.046  1.00  0.00    -0.503 Fe 
ATOM      2  N   GLY A   1      -6.333   6.372  72.027  1.00  0.00    -0.045 NA 
ATOM      3  CA  CYS B   1     -10.348   5.744  69.155  1.00  0.00    -0.248 C  
ATOM      4  CA  GLY A   1      -6.819   6.867  73.326  1.00  0.00    -0.074 C  
ATOM      5  H2  GLY A   1      -5.452   6.810  71.761  1.00  0.00     0.000 HD 
ATOM      6  H1  GLY A   1      -6.263   5.354  72.035  1.00  0.00     0.000 HD 
ATOM      7  OXT CYS C   1     -10.343   6.009  73.961  1.00  0.00    -0.255 OA 
ATOM      8  C   GLY A   1      -6.924   8.401  73.314  1.00  0.00    -0.075 C  
ATOM      9  C   CYS B   1     -10.072   7.224  68.719  1.00  0.00    -0.176 C  
ATOM     10  CA  CYS C   1     -10.769   7.867  72.528  1.00  0.00    -0.328 C  
ATOM     11  N   CYS B   1     -10.186   4.976  67.888  1.00  0.00    -0.121 NA 
ATOM     12  H2  CYS C   1      -9.221   8.561  71.240  1.00  0.00     0.000 HD 
ATOM     13  N   CYS C   1      -9.549   7.709  71.693  1.00  0.00    -0.152 NA 
ATOM     14  C   CYS C   1     -11.132   6.419  73.058  1.00  0.00    -0.200 C  
ATOM     15  H2  CYS B   1     -10.416   3.987  67.990  1.00  0.00     0.000 HD 
ATOM     16  H1  CYS B   1     -10.743   5.442  67.172  1.00  0.00     0.000 HD 
ATOM     17  O   CYS B   1     -10.772   7.507  67.555  1.00  0.00    -0.256 OA 
ATOM     18  O   CYS C   1     -12.023   5.802  72.398  1.00  0.00    -0.275 OA 
ATOM     19  OXT GLY A   1      -6.446   9.131  72.457  1.00  0.00    -0.300 OA 
ATOM     20  O   GLY A   1      -7.661   8.899  74.339  1.00  0.00    -0.403 OA 
ATOM     21  OXT CYS B   1      -9.397   8.160  69.141  1.00  0.00    -0.151 OA 
ATOM     22  H1  CYS C   1      -8.896   7.290  72.357  1.00  0.00     0.000 HD 
ENDROOT
BRANCH   3  23
ATOM     23  CB  CYS B   1      -9.505   5.039  70.238  1.00  0.00    -0.172 C  
ATOM     24  SG  CYS B   1      -9.200   3.245  69.918  1.00  0.00    -0.161 SA 
ATOM     25  HG  CYS B   1      -8.440   2.610  70.893  1.00  0.00     0.000 H  
ENDBRANCH   3  23
BRANCH  10  26
ATOM     26  CB  CYS C   1     -11.738   8.488  71.543  1.00  0.00    -0.297 C  
ATOM     27  SG  CYS C   1     -13.384   9.026  72.168  1.00  0.00    -0.487 SA 
ATOM     28  HG  CYS C   1     -14.274   9.596  71.265  1.00  0.00     0.000 H  
ENDBRANCH  10  26
TORSDOF 2
ENDMDL
MODEL       43
REMARK 921   NORMALIZED FREE ENERGY PREDICTED BY IDOCK:   -4.19 KCAL/MOL
REMARK 922        TOTAL FREE ENERGY PREDICTED BY IDOCK:   -4.10 KCAL/MOL
REMARK 923 INTER-LIGAND FREE ENERGY PREDICTED BY IDOCK:   -4.64 KCAL/MOL
REMARK 924 INTRA-LIGAND FREE ENERGY PREDICTED BY IDOCK:    0.54 KCAL/MOL
REMARK 927      BINDING AFFINITY PREDICTED BY RF-SCORE:    0.00 PKD
ROOT
HETATM    1 FE   UNL     1     -12.956  11.619  70.573  1.00  0.00    -0.286 Fe 
ATOM      2  N   GLY A   1      -6.187   7.563  70.508  1.00  0.00    -0.037 NA 
ATOM      3  CA  CYS B   1     -10.220   8.456  67.732  1.00  0.00    -0.224 C  
ATOM      4  CA  GLY A   1      -6.663   7.352  71.885  1.00  0.00    -0.054 C  
ATOM      5  H2  GLY A   1      -5.303   8.071  70.486  1.00  0.00     0.000 HD 
ATOM      6  H1  GLY A   1      -6.125   6.674  70.011  1.00  0.00     0.000 HD 
ATOM      7  OXT CYS C   1     -10.190   6.309  72.040  1.00  0.00    -0.187 OA 
ATOM      8  C   GLY A   1      -6.756   8.692  72.635  1.00  0.00    -0.005 C  
ATOM      9  C   CYS B   1      -9.934   9.956  68.083  1.00  0.00    -0.151 C  
ATOM     10  CA  CYS C   1     -10.609   8.633  71.717  1.00  0.00    -0.325 C  
ATOM     11  N   CYS B   1     -10.069   8.414  66.250  1.00  0.00    -0.455 NA 
ATOM     12  H2  CYS C   1      -9.061   9.867  70.929  1.00  0.00     0.000 HD 
ATOM     13  N   CYS C   1      -9.394   8.904  70.904  1.00  0.00    -0.215 NA 
ATOM     14  C   CYS C   1     -10.980   7.115  71.464  1.00  0.00    -0.235 C  
ATOM     15  H2  CYS B   1     -10.306   7.506  65.851  1.00  0.00     0.000 HD 
ATOM     16  H1  CYS B   1     -10.626   9.176  65.862  1.00  0.00     0.000 HD 
ATOM     17  O   CYS B   1     -10.637  10.781  67.217  1.00  0.00    -0.225 OA 
ATOM     18  O   CYS C   1     -11.879   6.909  70.592  1.00  0.00    -0.358 OA 
ATOM     19  OXT GLY A   1      -6.276   9.748  72.247  1.00  0.00    -0.268 OA 
ATOM     20  O   GLY A   1      -7.485   8.621  73.777  1.00  0.00    -0.365 OA 
ATOM     21  OXT CYS B   1      -9.250  10.558  68.908  1.00  0.00    -0.167 OA 
ATOM     22  H1  CYS C   1      -8.741   8.209  71.268  1.00  0.00     0.000 HD 
ENDROOT
BRANCH   3  23
ATOM     23  CB  CYS B   1      -9.377   7.304  68.318  1.00  0.00    -0.135 C  
ATOM     24  SG  CYS B   1      -7.902   6.847  67.304  1.00  0.00    -0.111 SA 
ATOM     25  HG  CYS B   1      -7.143   5.809  67.832  1.00  0.00     0.000 H  
ENDBRANCH   3  23
BRANCH  10  26
ATOM     26  CB  CYS C   1     -11.578   9.665  71.176  1.00  0.00    -0.381 C  
ATOM     27  SG  CYS C   1     -13.246   9.776  71.947  1.00  0.00    -0.453 SA 
ATOM     28  HG  CYS C   1     -14.135  10.722  71.451  1.00  0.00     0.000 H  
ENDBRANCH  10  26
TORSDOF 2
ENDMDL
MODEL       44
REMARK 921   NORMALIZED FREE ENERGY PREDICTED BY IDOCK:   -4.12 KCAL/MOL
REMARK 922        TOTAL FREE ENERGY PREDICTED BY IDOCK:   -4.03 KCAL/MOL
REMARK 923 INTER-LIGAND FREE ENERGY PREDICTED BY IDOCK:   -4.56 KCAL/MOL
REMARK 924 INTRA-LIGAND FREE ENERGY PREDICTED BY IDOCK:    0.53 KCAL/MOL
REMARK 927      BINDING AFFINITY PREDICTED BY RF-SCORE:    0.00 PKD
ROOT
HETATM    1 FE   UNL     1     -11.493  11.654  63.255  1.00  0.00    -0.337 Fe 
ATOM      2  N   GLY A   1      -9.619   7.680  69.811  1.00  0.00    -0.164 NA 
ATOM      3  CA  CYS B   1      -9.707  12.291  67.942  1.00  0.00    -0.202 C  
ATOM      4  CA  GLY A   1      -9.081   6.808  68.753  1.00  0.00    -0.132 C  
ATOM      5  H2  GLY A   1     -10.359   7.219  70.341  1.00  0.00     0.000 HD 
ATOM      6  H1  GLY A   1      -8.869   8.012  70.417  1.00  0.00     0.000 HD 
ATOM      7  OXT CYS C   1      -7.052   8.635  66.284  1.00  0.00    -0.076 OA 
ATOM      8  C   GLY A   1     -10.211   6.306  67.840  1.00  0.00    -0.169 C  
ATOM      9  C   CYS B   1     -11.157  11.909  67.488  1.00  0.00    -0.273 C  
ATOM     10  CA  CYS C   1      -9.178   9.244  65.393  1.00  0.00    -0.222 C  
ATOM     11  N   CYS B   1      -9.928  13.422  68.888  1.00  0.00    -0.431 NA 
ATOM     12  H2  CYS C   1     -10.908   9.070  66.624  1.00  0.00     0.000 HD 
ATOM     13  N   CYS C   1      -9.904   9.236  66.690  1.00  0.00    -0.224 NA 
ATOM     14  C   CYS C   1      -7.671   9.593  65.732  1.00  0.00    -0.106 C  
ATOM     15  H2  CYS B   1      -9.059  13.843  69.215  1.00  0.00     0.000 HD 
ATOM     16  H1  CYS B   1     -10.545  14.092  68.427  1.00  0.00     0.000 HD 
ATOM     17  O   CYS B   1     -11.862  13.058  67.158  1.00  0.00    -0.368 OA 
ATOM     18  O   CYS C   1      -7.344  10.811  65.585  1.00  0.00    -0.121 OA 
ATOM     19  OXT GLY A   1     -11.406   6.401  68.084  1.00  0.00    -0.266 OA 
ATOM     20  O   GLY A   1      -9.766   5.778  66.672  1.00  0.00    -0.144 OA 
ATOM     21  OXT CYS B   1     -11.803  10.870  67.369  1.00  0.00    -0.465 OA 
ATOM     22  H1  CYS C   1      -9.382   8.534  67.216  1.00  0.00     0.000 HD 
ENDROOT
BRANCH   3  23
ATOM     23  CB  CYS B   1      -8.774  11.279  68.639  1.00  0.00    -0.136 C  
ATOM     24  SG  CYS B   1      -7.053  11.891  68.913  1.00  0.00    -0.091 SA 
ATOM     25  HG  CYS B   1      -6.213  10.980  69.541  1.00  0.00     0.000 H  
ENDBRANCH   3  23
BRANCH  10  26
ATOM     26  CB  CYS C   1      -9.953  10.286  64.613  1.00  0.00    -0.307 C  
ATOM     27  SG  CYS C   1      -9.476  10.591  62.861  1.00  0.00    -0.324 SA 
ATOM     28  HG  CYS C   1     -10.187  11.547  62.145  1.00  0.00     0.000 H  
ENDBRANCH  10  26
TORSDOF 2
ENDMDL
MODEL       45
REMARK 921   NORMALIZED FREE ENERGY PREDICTED BY IDOCK:   -4.10 KCAL/MOL
REMARK 922        TOTAL FREE ENERGY PREDICTED BY IDOCK:   -4.01 KCAL/MOL
REMARK 923 INTER-LIGAND FREE ENERGY PREDICTED BY IDOCK:   -4.54 KCAL/MOL
REMARK 924 INTRA-LIGAND FREE ENERGY PREDICTED BY IDOCK:    0.54 KCAL/MOL
REMARK 927      BINDING AFFINITY PREDICTED BY RF-SCORE:    0.00 PKD
ROOT
HETATM    1 FE   UNL     1      -7.293   6.201  66.853  1.00  0.00    -0.067 Fe 
ATOM      2  N   GLY A   1     -13.091   9.648  70.950  1.00  0.00    -0.565 NA 
ATOM      3  CA  CYS B   1      -9.627  10.637  67.516  1.00  0.00    -0.161 C  
ATOM      4  CA  GLY A   1     -12.442   8.811  71.973  1.00  0.00    -0.386 C  
ATOM      5  H2  GLY A   1     -14.056   9.362  70.783  1.00  0.00     0.000 HD 
ATOM      6  H1  GLY A   1     -13.027  10.634  71.201  1.00  0.00     0.000 HD 
ATOM      7  OXT CYS C   1      -8.781   9.198  72.031  1.00  0.00    -0.320 OA 
ATOM      8  C   GLY A   1     -12.539   7.324  71.594  1.00  0.00    -0.368 C  
ATOM      9  C   CYS B   1     -10.167   9.337  66.826  1.00  0.00    -0.255 C  
ATOM     10  CA  CYS C   1      -8.869   7.722  70.160  1.00  0.00    -0.145 C  
ATOM     11  N   CYS B   1      -9.921  11.704  66.518  1.00  0.00    -0.199 NA 
ATOM     12  H2  CYS C   1     -10.704   7.494  69.103  1.00  0.00     0.000 HD 
ATOM     13  N   CYS C   1     -10.191   8.179  69.657  1.00  0.00    -0.201 NA 
ATOM     14  C   CYS C   1      -8.231   8.960  70.914  1.00  0.00    -0.175 C  
ATOM     15  H2  CYS B   1      -9.550  12.615  66.789  1.00  0.00     0.000 HD 
ATOM     16  H1  CYS B   1      -9.569  11.385  65.614  1.00  0.00     0.000 HD 
ATOM     17  O   CYS B   1      -9.736   9.294  65.508  1.00  0.00    -0.277 OA 
ATOM     18  O   CYS C   1      -7.405   9.647  70.238  1.00  0.00    -0.115 OA 
ATOM     19  OXT GLY A   1     -13.257   6.868  70.715  1.00  0.00    -0.083 OA 
ATOM     20  O   GLY A   1     -11.696   6.531  72.302  1.00  0.00    -0.291 OA 
ATOM     21  OXT CYS B   1     -10.868   8.383  67.159  1.00  0.00    -0.226 OA 
ATOM     22  H1  CYS C   1     -10.651   8.473  70.519  1.00  0.00     0.000 HD 
ENDROOT
BRANCH   3  23
ATOM     23  CB  CYS B   1     -10.159  11.120  68.882  1.00  0.00    -0.186 C  
ATOM     24  SG  CYS B   1     -11.585  12.289  68.775  1.00  0.00    -0.350 SA 
ATOM     25  HG  CYS B   1     -12.063  12.723  70.005  1.00  0.00     0.000 H  
ENDBRANCH   3  23
BRANCH  10  26
ATOM     26  CB  CYS C   1      -8.186   7.286  68.880  1.00  0.00    -0.125 C  
ATOM     27  SG  CYS C   1      -6.539   6.472  69.009  1.00  0.00    -0.049 SA 
ATOM     28  HG  CYS C   1      -5.912   6.072  67.835  1.00  0.00     0.000 H  
ENDBRANCH  10  26
TORSDOF 2
ENDMDL
MODEL       46
REMARK 921   NORMALIZED FREE ENERGY PREDICTED BY IDOCK:   -4.09 KCAL/MOL
REMARK 922        TOTAL FREE ENERGY PREDICTED BY IDOCK:   -3.99 KCAL/MOL
REMARK 923 INTER-LIGAND FREE ENERGY PREDICTED BY IDOCK:   -4.63 KCAL/MOL
REMARK 924 INTRA-LIGAND FREE ENERGY PREDICTED BY IDOCK:    0.64 KCAL/MOL
REMARK 927      BINDING AFFINITY PREDICTED BY RF-SCORE:    0.00 PKD
ROOT
HETATM    1 FE   UNL     1     -10.680  19.094  70.171  1.00  0.00    -0.558 Fe 
ATOM      2  N   GLY A   1     -12.684  13.236  65.276  1.00  0.00    -0.629 NA 
ATOM      3  CA  CYS B   1     -11.541  14.113  70.040  1.00  0.00    -0.248 C  
ATOM      4  CA  GLY A   1     -11.725  14.006  64.465  1.00  0.00    -0.413 C  
ATOM      5  H2  GLY A   1     -13.614  13.233  64.860  1.00  0.00     0.000 HD 
ATOM      6  H1  GLY A   1     -12.338  12.291  65.438  1.00  0.00     0.000 HD 
ATOM      7  OXT CYS C   1      -8.615  14.784  66.277  1.00  0.00    -0.054 OA 
ATOM      8  C   GLY A   1     -12.246  15.432  64.222  1.00  0.00    -0.126 C  
ATOM      9  C   CYS B   1     -12.567  15.290  69.904  1.00  0.00    -0.177 C  
ATOM     10  CA  CYS C   1      -9.938  16.509  67.255  1.00  0.00    -0.264 C  
ATOM     11  N   CYS B   1     -12.157  13.237  71.077  1.00  0.00    -0.444 NA 
ATOM     12  H2  CYS C   1     -12.062  16.362  67.172  1.00  0.00     0.000 HD 
ATOM     13  N   CYS C   1     -11.229  15.774  67.196  1.00  0.00    -0.185 NA 
ATOM     14  C   CYS C   1      -8.807  15.406  67.364  1.00  0.00    -0.183 C  
ATOM     15  H2  CYS B   1     -11.560  12.453  71.341  1.00  0.00     0.000 HD 
ATOM     16  H1  CYS B   1     -12.409  13.829  71.869  1.00  0.00     0.000 HD 
ATOM     17  O   CYS B   1     -12.935  15.737  71.165  1.00  0.00    -0.491 OA 
ATOM     18  O   CYS C   1      -8.386  15.168  68.537  1.00  0.00    -0.144 OA 
ATOM     19  OXT GLY A   1     -13.388  15.809  64.444  1.00  0.00     0.431 OA 
ATOM     20  O   GLY A   1     -11.291  16.286  63.774  1.00  0.00    -0.780 OA 
ATOM     21  OXT CYS B   1     -13.114  15.886  68.979  1.00  0.00     0.870 OA 
ATOM     22  H1  CYS C   1     -11.093  15.180  66.378  1.00  0.00     0.000 HD 
ENDROOT
BRANCH   3  23
ATOM     23  CB  CYS B   1     -11.159  13.218  68.842  1.00  0.00    -0.261 C  
ATOM     24  SG  CYS B   1     -11.311  11.406  69.167  1.00  0.00    -0.317 SA 
ATOM     25  HG  CYS B   1     -10.967  10.600  68.088  1.00  0.00     0.000 H  
ENDBRANCH   3  23
BRANCH  10  26
ATOM     26  CB  CYS C   1     -10.141  17.391  68.471  1.00  0.00    -0.352 C  
ATOM     27  SG  CYS C   1      -9.024  18.839  68.688  1.00  0.00    -0.303 SA 
ATOM     28  HG  CYS C   1      -9.210  19.647  69.803  1.00  0.00     0.000 H  
ENDBRANCH  10  26
TORSDOF 2
ENDMDL
MODEL       47
REMARK 921   NORMALIZED FREE ENERGY PREDICTED BY IDOCK:   -4.07 KCAL/MOL
REMARK 922        TOTAL FREE ENERGY PREDICTED BY IDOCK:   -3.97 KCAL/MOL
REMARK 923 INTER-LIGAND FREE ENERGY PREDICTED BY IDOCK:   -4.61 KCAL/MOL
REMARK 924 INTRA-LIGAND FREE ENERGY PREDICTED BY IDOCK:    0.64 KCAL/MOL
REMARK 927      BINDING AFFINITY PREDICTED BY RF-SCORE:    0.00 PKD
ROOT
HETATM    1 FE   UNL     1      -7.119  18.175  66.311  1.00  0.00    -0.164 Fe 
ATOM      2  N   GLY A   1     -11.887  11.994  67.473  1.00  0.00    -0.574 NA 
ATOM      3  CA  CYS B   1     -10.433  16.248  69.608  1.00  0.00    -0.294 C  
ATOM      4  CA  GLY A   1     -10.672  11.355  66.940  1.00  0.00    -0.265 C  
ATOM      5  H2  GLY A   1     -12.687  11.861  66.855  1.00  0.00     0.000 HD 
ATOM      6  H1  GLY A   1     -12.079  11.664  68.418  1.00  0.00     0.000 HD 
ATOM      7  OXT CYS C   1      -7.600  12.482  68.627  1.00  0.00    -0.119 OA 
ATOM      8  C   GLY A   1     -10.382  11.852  65.514  1.00  0.00    -0.264 C  
ATOM      9  C   CYS B   1     -10.702  16.866  68.193  1.00  0.00    -0.375 C  
ATOM     10  CA  CYS C   1      -7.835  14.376  67.198  1.00  0.00    -0.082 C  
ATOM     11  N   CYS B   1     -11.408  16.957  70.484  1.00  0.00    -0.268 NA 
ATOM     12  H2  CYS C   1      -9.729  14.776  66.307  1.00  0.00     0.000 HD 
ATOM     13  N   CYS C   1      -9.321  14.349  67.138  1.00  0.00    -0.211 NA 
ATOM     14  C   CYS C   1      -7.437  13.738  68.591  1.00  0.00    -0.116 C  
ATOM     15  H2  CYS B   1     -11.301  16.720  71.471  1.00  0.00     0.000 HD 
ATOM     16  H1  CYS B   1     -11.314  17.956  70.304  1.00  0.00     0.000 HD 
ATOM     17  O   CYS B   1     -10.781  18.247  68.293  1.00  0.00    -0.293 OA 
ATOM     18  O   CYS C   1      -7.194  14.566  69.523  1.00  0.00    -0.147 OA 
ATOM     19  OXT GLY A   1     -11.162  12.487  64.819  1.00  0.00    -0.289 OA 
ATOM     20  O   GLY A   1      -9.125  11.567  65.089  1.00  0.00    -0.124 OA 
ATOM     21  OXT CYS B   1     -10.866  16.432  67.054  1.00  0.00    -0.267 OA 
ATOM     22  H1  CYS C   1      -9.515  13.354  67.256  1.00  0.00     0.000 HD 
ENDROOT
BRANCH   3  23
ATOM     23  CB  CYS B   1     -10.575  14.736  69.882  1.00  0.00    -0.064 C  
ATOM     24  SG  CYS B   1     -12.306  14.181  70.211  1.00  0.00    -0.355 SA 
ATOM     25  HG  CYS B   1     -12.434  12.819  70.457  1.00  0.00     0.000 H  
ENDBRANCH   3  23
BRANCH  10  26
ATOM     26  CB  CYS C   1      -7.547  15.853  67.024  1.00  0.00    -0.229 C  
ATOM     27  SG  CYS C   1      -5.817  16.433  67.270  1.00  0.00    -0.113 SA 
ATOM     28  HG  CYS C   1      -5.552  17.788  67.110  1.00  0.00     0.000 H  
ENDBRANCH  10  26
TORSDOF 2
ENDMDL
MODEL       48
REMARK 921   NORMALIZED FREE ENERGY PREDICTED BY IDOCK:   -4.06 KCAL/MOL
REMARK 922        TOTAL FREE ENERGY PREDICTED BY IDOCK:   -3.96 KCAL/MOL
REMARK 923 INTER-LIGAND FREE ENERGY PREDICTED BY IDOCK:   -4.53 KCAL/MOL
REMARK 924 INTRA-LIGAND FREE ENERGY PREDICTED BY IDOCK:    0.57 KCAL/MOL
REMARK 927      BINDING AFFINITY PREDICTED BY RF-SCORE:    0.00 PKD
ROOT
HETATM    1 FE   UNL     1      -5.351  16.290  68.402  1.00  0.00    -0.090 Fe 
ATOM      2  N   GLY A   1     -12.783  14.269  70.123  1.00  0.00    -0.459 NA 
ATOM      3  CA  CYS B   1      -9.360  13.840  66.535  1.00  0.00    -0.233 C  
ATOM      4  CA  GLY A   1     -12.720  15.661  70.599  1.00  0.00    -0.394 C  
ATOM      5  H2  GLY A   1     -12.956  13.615  70.885  1.00  0.00     0.000 HD 
ATOM      6  H1  GLY A   1     -13.475  14.176  69.380  1.00  0.00     0.000 HD 
ATOM      7  OXT CYS C   1     -11.277  17.963  68.115  1.00  0.00    -0.003 OA 
ATOM      8  C   GLY A   1     -11.676  15.801  71.720  1.00  0.00    -0.478 C  
ATOM      9  C   CYS B   1      -8.412  13.419  67.710  1.00  0.00    -0.181 C  
ATOM     10  CA  CYS C   1      -9.207  17.075  68.896  1.00  0.00    -0.215 C  
ATOM     11  N   CYS B   1      -9.403  12.625  65.673  1.00  0.00    -0.449 NA 
ATOM     12  H2  CYS C   1      -9.203  15.220  69.945  1.00  0.00     0.000 HD 
ATOM     13  N   CYS C   1      -9.728  15.723  69.230  1.00  0.00    -0.247 NA 
ATOM     14  C   CYS C   1     -10.120  17.623  67.725  1.00  0.00    -0.338 C  
ATOM     15  H2  CYS B   1      -9.925  12.768  64.809  1.00  0.00     0.000 HD 
ATOM     16  H1  CYS B   1      -8.440  12.329  65.511  1.00  0.00     0.000 HD 
ATOM     17  O   CYS B   1      -7.280  12.801  67.197  1.00  0.00    -0.117 OA 
ATOM     18  O   CYS C   1      -9.654  17.479  66.553  1.00  0.00    -0.266 OA 
ATOM     19  OXT GLY A   1     -11.150  14.868  72.310  1.00  0.00    -0.047 OA 
ATOM     20  O   GLY A   1     -11.332  17.088  71.977  1.00  0.00     0.146 OA 
ATOM     21  OXT CYS B   1      -8.435  13.491  68.936  1.00  0.00     0.017 OA 
ATOM     22  H1  CYS C   1     -10.699  15.928  69.468  1.00  0.00     0.000 HD 
ENDROOT
BRANCH   3  23
ATOM     23  CB  CYS B   1     -10.817  14.287  66.780  1.00  0.00    -0.298 C  
ATOM     24  SG  CYS B   1     -12.083  13.285  65.883  1.00  0.00    -0.447 SA 
ATOM     25  HG  CYS B   1     -13.394  13.687  66.103  1.00  0.00     0.000 H  
ENDBRANCH   3  23
BRANCH  10  26
ATOM     26  CB  CYS C   1      -7.766  16.771  68.543  1.00  0.00    -0.223 C  
ATOM     27  SG  CYS C   1      -6.636  18.187  68.214  1.00  0.00    -0.211 SA 
ATOM     28  HG  CYS C   1      -5.314  17.908  67.890  1.00  0.00     0.000 H  
ENDBRANCH  10  26
TORSDOF 2
ENDMDL
MODEL       49
REMARK 921   NORMALIZED FREE ENERGY PREDICTED BY IDOCK:   -4.06 KCAL/MOL
REMARK 922        TOTAL FREE ENERGY PREDICTED BY IDOCK:   -3.96 KCAL/MOL
REMARK 923 INTER-LIGAND FREE ENERGY PREDICTED BY IDOCK:   -4.54 KCAL/MOL
REMARK 924 INTRA-LIGAND FREE ENERGY PREDICTED BY IDOCK:    0.58 KCAL/MOL
REMARK 927      BINDING AFFINITY PREDICTED BY RF-SCORE:    0.00 PKD
ROOT
HETATM    1 FE   UNL     1     -10.993   5.759  65.497  1.00  0.00    -0.448 Fe 
ATOM      2  N   GLY A   1      -8.918  13.337  66.234  1.00  0.00    -0.454 NA 
ATOM      3  CA  CYS B   1      -6.970   8.821  65.472  1.00  0.00    -0.076 C  
ATOM      4  CA  GLY A   1      -9.927  13.186  67.296  1.00  0.00    -0.230 C  
ATOM      5  H2  GLY A   1      -9.214  14.005  65.522  1.00  0.00     0.000 HD 
ATOM      6  H1  GLY A   1      -8.013  13.586  66.633  1.00  0.00     0.000 HD 
ATOM      7  OXT CYS C   1      -9.350  10.229  69.412  1.00  0.00    -0.204 OA 
ATOM      8  C   GLY A   1     -11.291  12.812  66.694  1.00  0.00    -0.316 C  
ATOM      9  C   CYS B   1      -8.107   8.686  64.402  1.00  0.00    -0.156 C  
ATOM     10  CA  CYS C   1     -10.362   9.068  67.592  1.00  0.00    -0.257 C  
ATOM     11  N   CYS B   1      -5.722   8.729  64.662  1.00  0.00    -0.062 NA 
ATOM     12  H2  CYS C   1     -10.450  10.006  65.682  1.00  0.00     0.000 HD 
ATOM     13  N   CYS C   1      -9.880   9.987  66.528  1.00  0.00    -0.198 NA 
ATOM     14  C   CYS C   1      -9.293   9.145  68.758  1.00  0.00    -0.139 C  
ATOM     15  H2  CYS B   1      -4.877   8.719  65.233  1.00  0.00     0.000 HD 
ATOM     16  H1  CYS B   1      -5.805   7.907  64.062  1.00  0.00     0.000 HD 
ATOM     17  O   CYS B   1      -7.823   7.629  63.549  1.00  0.00    -0.128 OA 
ATOM     18  O   CYS C   1      -8.423   8.221  68.766  1.00  0.00    -0.123 OA 
ATOM     19  OXT GLY A   1     -11.575  12.871  65.506  1.00  0.00    -0.326 OA 
ATOM     20  O   GLY A   1     -12.174  12.341  67.611  1.00  0.00    -0.442 OA 
ATOM     21  OXT CYS B   1      -9.151   9.279  64.139  1.00  0.00    -0.166 OA 
ATOM     22  H1  CYS C   1      -9.819  10.872  67.030  1.00  0.00     0.000 HD 
ENDROOT
BRANCH   3  23
ATOM     23  CB  CYS B   1      -6.844  10.063  66.379  1.00  0.00    -0.093 C  
ATOM     24  SG  CYS B   1      -5.422  11.168  65.965  1.00  0.00    -0.064 SA 
ATOM     25  HG  CYS B   1      -5.309  12.287  66.782  1.00  0.00     0.000 H  
ENDBRANCH   3  23
BRANCH  10  26
ATOM     26  CB  CYS C   1     -10.453   7.752  66.846  1.00  0.00    -0.317 C  
ATOM     27  SG  CYS C   1     -10.886   6.240  67.803  1.00  0.00    -0.338 SA 
ATOM     28  HG  CYS C   1     -10.970   5.033  67.119  1.00  0.00     0.000 H  
ENDBRANCH  10  26
TORSDOF 2
ENDMDL
MODEL       50
REMARK 921   NORMALIZED FREE ENERGY PREDICTED BY IDOCK:   -4.06 KCAL/MOL
REMARK 922        TOTAL FREE ENERGY PREDICTED BY IDOCK:   -3.95 KCAL/MOL
REMARK 923 INTER-LIGAND FREE ENERGY PREDICTED BY IDOCK:   -4.50 KCAL/MOL
REMARK 924 INTRA-LIGAND FREE ENERGY PREDICTED BY IDOCK:    0.55 KCAL/MOL
REMARK 927      BINDING AFFINITY PREDICTED BY RF-SCORE:    0.00 PKD
ROOT
HETATM    1 FE   UNL     1      -6.865  10.010  69.853  1.00  0.00    -0.044 Fe 
ATOM      2  N   GLY A   1     -10.396  14.144  64.132  1.00  0.00    -0.480 NA 
ATOM      3  CA  CYS B   1      -8.706  14.598  68.791  1.00  0.00    -0.166 C  
ATOM      4  CA  GLY A   1     -11.102  12.853  64.065  1.00  0.00    -0.414 C  
ATOM      5  H2  GLY A   1      -9.884  14.341  63.273  1.00  0.00     0.000 HD 
ATOM      6  H1  GLY A   1     -11.045  14.895  64.367  1.00  0.00     0.000 HD 
ATOM      7  OXT CYS C   1     -12.251  11.675  67.358  1.00  0.00    -0.458 OA 
ATOM      8  C   GLY A   1     -10.124  11.721  63.712  1.00  0.00    -0.391 C  
ATOM      9  C   CYS B   1      -7.422  13.900  68.225  1.00  0.00    -0.118 C  
ATOM     10  CA  CYS C   1      -9.981  10.989  67.602  1.00  0.00    -0.173 C  
ATOM     11  N   CYS B   1      -8.209  15.935  69.225  1.00  0.00    -0.236 NA 
ATOM     12  H2  CYS C   1      -8.494  11.855  66.345  1.00  0.00     0.000 HD 
ATOM     13  N   CYS C   1      -9.396  12.073  66.769  1.00  0.00    -0.199 NA 
ATOM     14  C   CYS C   1     -11.320  11.575  68.212  1.00  0.00    -0.286 C  
ATOM     15  H2  CYS B   1      -8.922  16.489  69.698  1.00  0.00     0.000 HD 
ATOM     16  H1  CYS B   1      -7.378  15.782  69.798  1.00  0.00     0.000 HD 
ATOM     17  O   CYS B   1      -6.366  14.077  69.107  1.00  0.00    -0.096 OA 
ATOM     18  O   CYS C   1     -11.230  12.031  69.393  1.00  0.00    -0.242 OA 
ATOM     19  OXT GLY A   1      -8.983  11.881  63.301  1.00  0.00     0.016 OA 
ATOM     20  O   GLY A   1     -10.624  10.483  63.951  1.00  0.00    -0.100 OA 
ATOM     21  OXT CYS B   1      -7.133  13.265  67.213  1.00  0.00    -0.136 OA 
ATOM     22  H1  CYS C   1     -10.152  12.259  66.110  1.00  0.00     0.000 HD 
ENDROOT
BRANCH   3  23
ATOM     23  CB  CYS B   1      -9.962  14.828  67.925  1.00  0.00    -0.213 C  
ATOM     24  SG  CYS B   1     -11.330  15.721  68.788  1.00  0.00    -0.379 SA 
ATOM     25  HG  CYS B   1     -12.461  15.928  68.008  1.00  0.00     0.000 H  
ENDBRANCH   3  23
BRANCH  10  26
ATOM     26  CB  CYS C   1      -8.858  10.712  68.580  1.00  0.00    -0.151 C  
ATOM     27  SG  CYS C   1      -9.169   9.511  69.941  1.00  0.00    -0.234 SA 
ATOM     28  HG  CYS C   1      -8.139   9.257  70.839  1.00  0.00     0.000 H  
ENDBRANCH  10  26
TORSDOF 2
ENDMDL
MODEL       51
REMARK 921   NORMALIZED FREE ENERGY PREDICTED BY IDOCK:   -4.03 KCAL/MOL
REMARK 922        TOTAL FREE ENERGY PREDICTED BY IDOCK:   -3.92 KCAL/MOL
REMARK 923 INTER-LIGAND FREE ENERGY PREDICTED BY IDOCK:   -4.43 KCAL/MOL
REMARK 924 INTRA-LIGAND FREE ENERGY PREDICTED BY IDOCK:    0.51 KCAL/MOL
REMARK 927      BINDING AFFINITY PREDICTED BY RF-SCORE:    0.00 PKD
ROOT
HETATM    1 FE   UNL     1     -10.310   7.202  69.837  1.00  0.00    -0.184 Fe 
ATOM      2  N   GLY A   1      -9.902  12.871  64.362  1.00  0.00    -0.601 NA 
ATOM      3  CA  CYS B   1      -7.452   8.866  66.013  1.00  0.00    -0.090 C  
ATOM      4  CA  GLY A   1     -10.335  13.620  65.555  1.00  0.00    -0.309 C  
ATOM      5  H2  GLY A   1     -10.603  12.899  63.623  1.00  0.00     0.000 HD 
ATOM      6  H1  GLY A   1      -8.996  13.208  64.038  1.00  0.00     0.000 HD 
ATOM      7  OXT CYS C   1      -8.298  12.880  68.531  1.00  0.00    -0.137 OA 
ATOM      8  C   GLY A   1     -11.702  13.112  66.044  1.00  0.00    -0.379 C  
ATOM      9  C   CYS B   1      -8.860   8.179  65.960  1.00  0.00    -0.172 C  
ATOM     10  CA  CYS C   1      -9.663  10.929  68.644  1.00  0.00    -0.185 C  
ATOM     11  N   CYS B   1      -6.650   8.085  65.029  1.00  0.00    -0.051 NA 
ATOM     12  H2  CYS C   1     -10.723  10.301  66.906  1.00  0.00     0.000 HD 
ATOM     13  N   CYS C   1      -9.874  10.795  67.179  1.00  0.00    -0.181 NA 
ATOM     14  C   CYS C   1      -8.264  11.648  68.825  1.00  0.00    -0.055 C  
ATOM     15  H2  CYS B   1      -5.669   8.363  65.006  1.00  0.00     0.000 HD 
ATOM     16  H1  CYS B   1      -6.778   7.096  65.244  1.00  0.00     0.000 HD 
ATOM     17  O   CYS B   1      -8.710   6.801  66.014  1.00  0.00    -0.144 OA 
ATOM     18  O   CYS C   1      -7.278  10.881  69.052  1.00  0.00    -0.082 OA 
ATOM     19  OXT GLY A   1     -12.445  12.375  65.410  1.00  0.00    -0.637 OA 
ATOM     20  O   GLY A   1     -12.008  13.516  67.302  1.00  0.00    -0.370 OA 
ATOM     21  OXT CYS B   1     -10.026   8.556  65.873  1.00  0.00    -0.113 OA 
ATOM     22  H1  CYS C   1      -9.819  11.767  66.872  1.00  0.00     0.000 HD 
ENDROOT
BRANCH   3  23
ATOM     23  CB  CYS B   1      -7.258  10.362  65.688  1.00  0.00    -0.146 C  
ATOM     24  SG  CYS B   1      -5.515  10.955  65.838  1.00  0.00    -0.140 SA 
ATOM     25  HG  CYS B   1      -5.341  12.302  65.544  1.00  0.00     0.000 H  
ENDBRANCH   3  23
BRANCH  10  26
ATOM     26  CB  CYS C   1      -9.744   9.486  69.100  1.00  0.00    -0.178 C  
ATOM     27  SG  CYS C   1      -9.606   9.137  70.903  1.00  0.00    -0.276 SA 
ATOM     28  HG  CYS C   1      -9.680   7.814  71.321  1.00  0.00     0.000 H  
ENDBRANCH  10  26
TORSDOF 2
ENDMDL
MODEL       52
REMARK 921   NORMALIZED FREE ENERGY PREDICTED BY IDOCK:   -4.03 KCAL/MOL
REMARK 922        TOTAL FREE ENERGY PREDICTED BY IDOCK:   -3.92 KCAL/MOL
REMARK 923 INTER-LIGAND FREE ENERGY PREDICTED BY IDOCK:   -4.92 KCAL/MOL
REMARK 924 INTRA-LIGAND FREE ENERGY PREDICTED BY IDOCK:    1.00 KCAL/MOL
REMARK 927      BINDING AFFINITY PREDICTED BY RF-SCORE:    0.00 PKD
ROOT
HETATM    1 FE   UNL     1     -11.146   8.682  70.668  1.00  0.00    -0.216 Fe 
ATOM      2  N   GLY A   1     -10.492  12.081  63.576  1.00  0.00    -0.441 NA 
ATOM      3  CA  CYS B   1      -8.263   8.740  66.515  1.00  0.00    -0.111 C  
ATOM      4  CA  GLY A   1     -10.856  13.220  64.435  1.00  0.00    -0.403 C  
ATOM      5  H2  GLY A   1     -11.204  11.897  62.869  1.00  0.00     0.000 HD 
ATOM      6  H1  GLY A   1      -9.573  12.226  63.158  1.00  0.00     0.000 HD 
ATOM      7  OXT CYS C   1      -8.812  13.421  67.491  1.00  0.00    -0.186 OA 
ATOM      8  C   GLY A   1     -12.242  13.001  65.064  1.00  0.00    -0.453 C  
ATOM      9  C   CYS B   1      -9.711   8.169  66.697  1.00  0.00    -0.248 C  
ATOM     10  CA  CYS C   1     -10.292  11.720  68.265  1.00  0.00    -0.206 C  
ATOM     11  N   CYS B   1      -7.530   7.618  65.863  1.00  0.00    -0.080 NA 
ATOM     12  H2  CYS C   1     -11.422  10.602  66.847  1.00  0.00     0.000 HD 
ATOM     13  N   CYS C   1     -10.538  11.104  66.935  1.00  0.00    -0.246 NA 
ATOM     14  C   CYS C   1      -8.848  12.366  68.192  1.00  0.00    -0.191 C  
ATOM     15  H2  CYS B   1      -6.534   7.807  65.749  1.00  0.00     0.000 HD 
ATOM     16  H1  CYS B   1      -7.714   6.774  66.405  1.00  0.00     0.000 HD 
ATOM     17  O   CYS B   1      -9.645   6.887  67.223  1.00  0.00    -0.133 OA 
ATOM     18  O   CYS C   1      -7.908  11.663  68.673  1.00  0.00    -0.137 OA 
ATOM     19  OXT GLY A   1     -13.040  12.141  64.721  1.00  0.00    -0.602 OA 
ATOM     20  O   GLY A   1     -12.499  13.833  66.105  1.00  0.00    -0.446 OA 
ATOM     21  OXT CYS B   1     -10.854   8.568  66.481  1.00  0.00     0.036 OA 
ATOM     22  H1  CYS C   1     -10.430  11.905  66.312  1.00  0.00     0.000 HD 
ENDROOT
BRANCH   3  23
ATOM     23  CB  CYS B   1      -7.984  10.016  65.694  1.00  0.00    -0.140 C  
ATOM     24  SG  CYS B   1      -6.263  10.668  65.861  1.00  0.00    -0.122 SA 
ATOM     25  HG  CYS B   1      -6.012  11.818  65.121  1.00  0.00     0.000 H  
ENDBRANCH   3  23
BRANCH  10  26
ATOM     26  CB  CYS C   1     -10.453  10.531  69.190  1.00  0.00    -0.228 C  
ATOM     27  SG  CYS C   1     -11.679  10.657  70.559  1.00  0.00    -0.368 SA 
ATOM     28  HG  CYS C   1     -11.827   9.566  71.407  1.00  0.00     0.000 H  
ENDBRANCH  10  26
TORSDOF 2
ENDMDL
MODEL       53
REMARK 921   NORMALIZED FREE ENERGY PREDICTED BY IDOCK:   -4.00 KCAL/MOL
REMARK 922        TOTAL FREE ENERGY PREDICTED BY IDOCK:   -3.89 KCAL/MOL
REMARK 923 INTER-LIGAND FREE ENERGY PREDICTED BY IDOCK:   -4.43 KCAL/MOL
REMARK 924 INTRA-LIGAND FREE ENERGY PREDICTED BY IDOCK:    0.54 KCAL/MOL
REMARK 927      BINDING AFFINITY PREDICTED BY RF-SCORE:    0.00 PKD
ROOT
HETATM    1 FE   UNL     1     -12.187   6.694  66.871  1.00  0.00    -0.691 Fe 
ATOM      2  N   GLY A   1      -8.603   8.370  73.699  1.00  0.00    -0.324 NA 
ATOM      3  CA  CYS B   1      -9.251  10.155  69.099  1.00  0.00    -0.197 C  
ATOM      4  CA  GLY A   1      -8.345   6.927  73.558  1.00  0.00    -0.116 C  
ATOM      5  H2  GLY A   1      -9.171   8.574  74.521  1.00  0.00     0.000 HD 
ATOM      6  H1  GLY A   1      -7.726   8.892  73.705  1.00  0.00     0.000 HD 
ATOM      7  OXT CYS C   1      -7.061   6.021  70.228  1.00  0.00    -0.069 OA 
ATOM      8  C   GLY A   1      -9.666   6.141  73.549  1.00  0.00    -0.164 C  
ATOM      9  C   CYS B   1     -10.763   9.837  69.359  1.00  0.00    -0.228 C  
ATOM     10  CA  CYS C   1      -9.355   6.180  69.601  1.00  0.00    -0.146 C  
ATOM     11  N   CYS B   1      -9.236  11.635  68.918  1.00  0.00    -0.404 NA 
ATOM     12  H2  CYS C   1     -10.701   7.260  70.851  1.00  0.00     0.000 HD 
ATOM     13  N   CYS C   1      -9.717   7.236  70.583  1.00  0.00    -0.176 NA 
ATOM     14  C   CYS C   1      -7.818   6.384  69.280  1.00  0.00    -0.106 C  
ATOM     15  H2  CYS B   1      -8.318  11.994  68.655  1.00  0.00     0.000 HD 
ATOM     16  H1  CYS B   1      -9.963  11.868  68.240  1.00  0.00     0.000 HD 
ATOM     17  O   CYS B   1     -11.548  10.503  68.429  1.00  0.00    -0.321 OA 
ATOM     18  O   CYS C   1      -7.561   7.040  68.224  1.00  0.00    -0.106 OA 
ATOM     19  OXT GLY A   1     -10.757   6.597  73.861  1.00  0.00    -0.288 OA 
ATOM     20  O   GLY A   1      -9.532   4.868  73.100  1.00  0.00    -0.130 OA 
ATOM     21  OXT CYS B   1     -11.400   9.169  70.171  1.00  0.00    -0.231 OA 
ATOM     22  H1  CYS C   1      -9.065   7.044  71.343  1.00  0.00     0.000 HD 
ENDROOT
BRANCH   3  23
ATOM     23  CB  CYS B   1      -8.152   9.802  70.123  1.00  0.00    -0.182 C  
ATOM     24  SG  CYS B   1      -6.456  10.356  69.643  1.00  0.00    -0.091 SA 
ATOM     25  HG  CYS B   1      -5.467  10.038  70.566  1.00  0.00     0.000 H  
ENDBRANCH   3  23
BRANCH  10  26
ATOM     26  CB  CYS C   1     -10.324   6.465  68.471  1.00  0.00    -0.197 C  
ATOM     27  SG  CYS C   1     -10.198   5.447  66.942  1.00  0.00    -0.263 SA 
ATOM     28  HG  CYS C   1     -11.086   5.708  65.906  1.00  0.00     0.000 H  
ENDBRANCH  10  26
TORSDOF 2
ENDMDL
MODEL       54
REMARK 921   NORMALIZED FREE ENERGY PREDICTED BY IDOCK:   -3.98 KCAL/MOL
REMARK 922        TOTAL FREE ENERGY PREDICTED BY IDOCK:   -3.87 KCAL/MOL
REMARK 923 INTER-LIGAND FREE ENERGY PREDICTED BY IDOCK:   -4.41 KCAL/MOL
REMARK 924 INTRA-LIGAND FREE ENERGY PREDICTED BY IDOCK:    0.53 KCAL/MOL
REMARK 927      BINDING AFFINITY PREDICTED BY RF-SCORE:    0.00 PKD
ROOT
HETATM    1 FE   UNL     1     -14.379   6.028  72.948  1.00  0.00    -0.524 Fe 
ATOM      2  N   GLY A   1      -7.690   5.877  68.763  1.00  0.00    -0.090 NA 
ATOM      3  CA  CYS B   1      -9.371   6.567  73.396  1.00  0.00    -0.134 C  
ATOM      4  CA  GLY A   1      -8.598   6.618  67.872  1.00  0.00    -0.118 C  
ATOM      5  H2  GLY A   1      -7.384   4.998  68.347  1.00  0.00     0.000 HD 
ATOM      6  H1  GLY A   1      -6.900   6.463  69.035  1.00  0.00     0.000 HD 
ATOM      7  OXT CYS C   1     -10.400   9.329  69.591  1.00  0.00    -0.199 OA 
ATOM      8  C   GLY A   1      -9.789   5.735  67.461  1.00  0.00    -0.130 C  
ATOM      9  C   CYS B   1     -10.198   5.264  73.120  1.00  0.00    -0.185 C  
ATOM     10  CA  CYS C   1     -11.791   7.551  70.357  1.00  0.00    -0.036 C  
ATOM     11  N   CYS B   1      -8.481   6.177  74.526  1.00  0.00    -0.124 NA 
ATOM     12  H2  CYS C   1     -11.056   5.553  70.284  1.00  0.00     0.000 HD 
ATOM     13  N   CYS C   1     -10.727   6.513  70.379  1.00  0.00    -0.238 NA 
ATOM     14  C   CYS C   1     -11.062   8.936  70.597  1.00  0.00    -0.262 C  
ATOM     15  H2  CYS B   1      -7.926   6.956  74.882  1.00  0.00     0.000 HD 
ATOM     16  H1  CYS B   1      -9.064   5.745  75.242  1.00  0.00     0.000 HD 
ATOM     17  O   CYS B   1     -10.662   4.742  74.319  1.00  0.00    -0.289 OA 
ATOM     18  O   CYS C   1     -11.081   9.365  71.792  1.00  0.00    -0.370 OA 
ATOM     19  OXT GLY A   1      -9.860   4.527  67.634  1.00  0.00    -0.168 OA 
ATOM     20  O   GLY A   1     -10.817   6.436  66.920  1.00  0.00    -0.333 OA 
ATOM     21  OXT CYS B   1     -10.513   4.608  72.130  1.00  0.00    -0.197 OA 
ATOM     22  H1  CYS C   1     -10.107   6.836  69.636  1.00  0.00     0.000 HD 
ENDROOT
BRANCH   3  23
ATOM     23  CB  CYS B   1      -8.489   7.221  72.313  1.00  0.00    -0.115 C  
ATOM     24  SG  CYS B   1      -6.728   6.661  72.323  1.00  0.00    -0.060 SA 
ATOM     25  HG  CYS B   1      -5.934   7.249  71.347  1.00  0.00     0.000 H  
ENDBRANCH   3  23
BRANCH  10  26
ATOM     26  CB  CYS C   1     -12.712   7.072  71.460  1.00  0.00    -0.381 C  
ATOM     27  SG  CYS C   1     -14.267   8.011  71.760  1.00  0.00    -0.454 SA 
ATOM     28  HG  CYS C   1     -15.113   7.572  72.772  1.00  0.00     0.000 H  
ENDBRANCH  10  26
TORSDOF 2
ENDMDL
MODEL       55
REMARK 921   NORMALIZED FREE ENERGY PREDICTED BY IDOCK:   -3.98 KCAL/MOL
REMARK 922        TOTAL FREE ENERGY PREDICTED BY IDOCK:   -3.86 KCAL/MOL
REMARK 923 INTER-LIGAND FREE ENERGY PREDICTED BY IDOCK:   -4.41 KCAL/MOL
REMARK 924 INTRA-LIGAND FREE ENERGY PREDICTED BY IDOCK:    0.55 KCAL/MOL
REMARK 927      BINDING AFFINITY PREDICTED BY RF-SCORE:    0.00 PKD
ROOT
HETATM    1 FE   UNL     1      -7.831   8.600  69.979  1.00  0.00    -0.078 Fe 
ATOM      2  N   GLY A   1     -12.192  14.483  67.038  1.00  0.00    -0.531 NA 
ATOM      3  CA  CYS B   1      -9.633  10.453  65.633  1.00  0.00    -0.226 C  
ATOM      4  CA  GLY A   1     -11.365  15.179  68.039  1.00  0.00    -0.337 C  
ATOM      5  H2  GLY A   1     -13.184  14.530  67.269  1.00  0.00     0.000 HD 
ATOM      6  H1  GLY A   1     -12.003  14.846  66.104  1.00  0.00     0.000 HD 
ATOM      7  OXT CYS C   1      -7.788  14.354  67.766  1.00  0.00    -0.130 OA 
ATOM      8  C   GLY A   1     -11.650  14.632  69.448  1.00  0.00    -0.305 C  
ATOM      9  C   CYS B   1     -10.411   9.748  66.798  1.00  0.00    -0.218 C  
ATOM     10  CA  CYS C   1      -8.433  12.380  68.936  1.00  0.00     0.270 C  
ATOM     11  N   CYS B   1     -10.095   9.723  64.419  1.00  0.00    -0.341 NA 
ATOM     12  H2  CYS C   1     -10.484  11.804  68.950  1.00  0.00     0.000 HD 
ATOM     13  N   CYS C   1      -9.806  12.300  68.372  1.00  0.00    -0.250 NA 
ATOM     14  C   CYS C   1      -7.549  13.112  67.845  1.00  0.00    -0.147 C  
ATOM     15  H2  CYS B   1      -9.610  10.015  63.570  1.00  0.00     0.000 HD 
ATOM     16  H1  CYS B   1     -10.000   8.724  64.606  1.00  0.00     0.000 HD 
ATOM     17  O   CYS B   1     -10.324   8.371  66.651  1.00  0.00    -0.303 OA 
ATOM     18  O   CYS C   1      -6.874  12.351  67.086  1.00  0.00    -0.142 OA 
ATOM     19  OXT GLY A   1     -12.592  13.911  69.744  1.00  0.00    -0.262 OA 
ATOM     20  O   GLY A   1     -10.711  14.983  70.362  1.00  0.00    -0.204 OA 
ATOM     21  OXT CYS B   1     -11.067  10.112  67.771  1.00  0.00    -0.295 OA 
ATOM     22  H1  CYS C   1     -10.017  13.283  68.201  1.00  0.00     0.000 HD 
ENDROOT
BRANCH   3  23
ATOM     23  CB  CYS B   1      -9.776  11.963  65.350  1.00  0.00    -0.207 C  
ATOM     24  SG  CYS B   1     -10.869  12.369  63.918  1.00  0.00    -0.455 SA 
ATOM     25  HG  CYS B   1     -10.999  13.730  63.663  1.00  0.00     0.000 H  
ENDBRANCH   3  23
BRANCH  10  26
ATOM     26  CB  CYS C   1      -8.119  10.919  69.191  1.00  0.00    -0.100 C  
ATOM     27  SG  CYS C   1      -6.502  10.502  69.966  1.00  0.00    -0.147 SA 
ATOM     28  HG  CYS C   1      -6.214   9.162  70.199  1.00  0.00     0.000 H  
ENDBRANCH  10  26
TORSDOF 2
ENDMDL
MODEL       56
REMARK 921   NORMALIZED FREE ENERGY PREDICTED BY IDOCK:   -3.89 KCAL/MOL
REMARK 922        TOTAL FREE ENERGY PREDICTED BY IDOCK:   -3.77 KCAL/MOL
REMARK 923 INTER-LIGAND FREE ENERGY PREDICTED BY IDOCK:   -4.34 KCAL/MOL
REMARK 924 INTRA-LIGAND FREE ENERGY PREDICTED BY IDOCK:    0.58 KCAL/MOL
REMARK 927      BINDING AFFINITY PREDICTED BY RF-SCORE:    0.00 PKD
ROOT
HETATM    1 FE   UNL     1     -11.701   9.317  71.297  1.00  0.00    -0.239 Fe 
ATOM      2  N   GLY A   1      -6.399  11.098  65.730  1.00  0.00    -0.370 NA 
ATOM      3  CA  CYS B   1     -11.283  11.295  66.663  1.00  0.00    -0.177 C  
ATOM      4  CA  GLY A   1      -5.936   9.777  66.190  1.00  0.00    -0.064 C  
ATOM      5  H2  GLY A   1      -5.710  11.826  65.915  1.00  0.00     0.000 HD 
ATOM      6  H1  GLY A   1      -6.657  11.062  64.744  1.00  0.00     0.000 HD 
ATOM      7  OXT CYS C   1      -8.641   7.285  66.347  1.00  0.00    -0.125 OA 
ATOM      8  C   GLY A   1      -5.546   9.830  67.677  1.00  0.00    -0.036 C  
ATOM      9  C   CYS B   1     -10.835  11.906  68.035  1.00  0.00    -0.216 C  
ATOM     10  CA  CYS C   1      -9.158   8.376  68.402  1.00  0.00    -0.135 C  
ATOM     11  N   CYS B   1     -12.068  12.396  66.036  1.00  0.00    -0.638 NA 
ATOM     12  H2  CYS C   1      -8.407  10.339  68.753  1.00  0.00     0.000 HD 
ATOM     13  N   CYS C   1      -8.691   9.726  67.989  1.00  0.00    -0.119 NA 
ATOM     14  C   CYS C   1      -9.614   7.642  67.075  1.00  0.00    -0.175 C  
ATOM     15  H2  CYS B   1     -12.504  12.122  65.155  1.00  0.00     0.000 HD 
ATOM     16  H1  CYS B   1     -12.743  12.725  66.727  1.00  0.00     0.000 HD 
ATOM     17  O   CYS B   1     -11.917  12.523  68.647  1.00  0.00    -0.308 OA 
ATOM     18  O   CYS C   1     -10.859   7.674  66.832  1.00  0.00    -0.328 OA 
ATOM     19  OXT GLY A   1      -5.398  10.855  68.327  1.00  0.00    -0.040 OA 
ATOM     20  O   GLY A   1      -5.427   8.605  68.246  1.00  0.00    -0.034 OA 
ATOM     21  OXT CYS B   1      -9.787  11.978  68.673  1.00  0.00    -0.194 OA 
ATOM     22  H1  CYS C   1      -7.955   9.495  67.321  1.00  0.00     0.000 HD 
ENDROOT
BRANCH   3  23
ATOM     23  CB  CYS B   1     -10.264  10.797  65.617  1.00  0.00    -0.257 C  
ATOM     24  SG  CYS B   1     -10.526  11.469  63.917  1.00  0.00    -0.426 SA 
ATOM     25  HG  CYS B   1      -9.608  11.021  62.975  1.00  0.00     0.000 H  
ENDBRANCH   3  23
BRANCH  10  26
ATOM     26  CB  CYS C   1     -10.251   8.719  69.394  1.00  0.00    -0.210 C  
ATOM     27  SG  CYS C   1     -11.009   7.345  70.358  1.00  0.00    -0.253 SA 
ATOM     28  HG  CYS C   1     -12.012   7.659  71.268  1.00  0.00     0.000 H  
ENDBRANCH  10  26
TORSDOF 2
ENDMDL
MODEL       57
REMARK 921   NORMALIZED FREE ENERGY PREDICTED BY IDOCK:   -3.87 KCAL/MOL
REMARK 922        TOTAL FREE ENERGY PREDICTED BY IDOCK:   -3.75 KCAL/MOL
REMARK 923 INTER-LIGAND FREE ENERGY PREDICTED BY IDOCK:   -4.32 KCAL/MOL
REMARK 924 INTRA-LIGAND FREE ENERGY PREDICTED BY IDOCK:    0.57 KCAL/MOL
REMARK 927      BINDING AFFINITY PREDICTED BY RF-SCORE:    0.00 PKD
ROOT
HETATM    1 FE   UNL     1      -6.805  11.135  63.636  1.00  0.00    -0.345 Fe 
ATOM      2  N   GLY A   1     -11.625   9.397  69.638  1.00  0.00    -0.429 NA 
ATOM      3  CA  CYS B   1     -10.119  13.222  66.833  1.00  0.00    -0.250 C  
ATOM      4  CA  GLY A   1     -10.419   8.620  69.972  1.00  0.00    -0.223 C  
ATOM      5  H2  GLY A   1     -12.430   8.794  69.471  1.00  0.00     0.000 HD 
ATOM      6  H1  GLY A   1     -11.815  10.090  70.362  1.00  0.00     0.000 HD 
ATOM      7  OXT CYS C   1      -7.328  10.608  69.756  1.00  0.00    -0.153 OA 
ATOM      8  C   GLY A   1     -10.131   7.575  68.881  1.00  0.00    -0.192 C  
ATOM      9  C   CYS B   1     -10.390  12.246  65.637  1.00  0.00    -0.257 C  
ATOM     10  CA  CYS C   1      -7.552  10.200  67.418  1.00  0.00    -0.094 C  
ATOM     11  N   CYS B   1     -11.083  14.334  66.596  1.00  0.00    -0.314 NA 
ATOM     12  H2  CYS C   1      -9.447   9.607  66.644  1.00  0.00     0.000 HD 
ATOM     13  N   CYS C   1      -9.038  10.149  67.406  1.00  0.00    -0.137 NA 
ATOM     14  C   CYS C   1      -7.153  11.147  68.622  1.00  0.00    -0.090 C  
ATOM     15  H2  CYS B   1     -10.973  15.103  67.257  1.00  0.00     0.000 HD 
ATOM     16  H1  CYS B   1     -10.980  14.628  65.624  1.00  0.00     0.000 HD 
ATOM     17  O   CYS B   1     -10.455  12.966  64.453  1.00  0.00    -0.362 OA 
ATOM     18  O   CYS C   1      -6.897  12.351  68.312  1.00  0.00    -0.068 OA 
ATOM     19  OXT GLY A   1     -10.910   7.253  67.995  1.00  0.00    -0.178 OA 
ATOM     20  O   GLY A   1      -8.880   7.055  68.949  1.00  0.00    -0.131 OA 
ATOM     21  OXT CYS B   1     -10.565  11.037  65.503  1.00  0.00    -0.256 OA 
ATOM     22  H1  CYS C   1      -9.241   9.802  68.343  1.00  0.00     0.000 HD 
ENDROOT
BRANCH   3  23
ATOM     23  CB  CYS B   1     -10.274  12.779  68.303  1.00  0.00    -0.244 C  
ATOM     24  SG  CYS B   1     -11.775  13.448  69.147  1.00  0.00    -0.341 SA 
ATOM     25  HG  CYS B   1     -11.915  13.048  70.470  1.00  0.00     0.000 H  
ENDBRANCH   3  23
BRANCH  10  26
ATOM     26  CB  CYS C   1      -7.251  10.716  66.025  1.00  0.00    -0.131 C  
ATOM     27  SG  CYS C   1      -5.509  10.641  65.431  1.00  0.00    -0.130 SA 
ATOM     28  HG  CYS C   1      -5.233  11.114  64.154  1.00  0.00     0.000 H  
ENDBRANCH  10  26
TORSDOF 2
ENDMDL
MODEL       58
REMARK 921   NORMALIZED FREE ENERGY PREDICTED BY IDOCK:   -3.85 KCAL/MOL
REMARK 922        TOTAL FREE ENERGY PREDICTED BY IDOCK:   -3.72 KCAL/MOL
REMARK 923 INTER-LIGAND FREE ENERGY PREDICTED BY IDOCK:   -4.31 KCAL/MOL
REMARK 924 INTRA-LIGAND FREE ENERGY PREDICTED BY IDOCK:    0.59 KCAL/MOL
REMARK 927      BINDING AFFINITY PREDICTED BY RF-SCORE:    0.00 PKD
ROOT
HETATM    1 FE   UNL     1      -6.040   9.076  65.499  1.00  0.00    -0.049 Fe 
ATOM      2  N   GLY A   1     -11.824   6.926  70.419  1.00  0.00    -0.541 NA 
ATOM      3  CA  CYS B   1     -10.436  10.657  67.432  1.00  0.00    -0.235 C  
ATOM      4  CA  GLY A   1     -10.618   6.503  71.151  1.00  0.00    -0.229 C  
ATOM      5  H2  GLY A   1     -12.416   6.133  70.173  1.00  0.00     0.000 HD 
ATOM      6  H1  GLY A   1     -12.336   7.631  70.949  1.00  0.00     0.000 HD 
ATOM      7  OXT CYS C   1      -8.050   9.136  71.326  1.00  0.00    -0.285 OA 
ATOM      8  C   GLY A   1      -9.846   5.441  70.353  1.00  0.00    -0.205 C  
ATOM      9  C   CYS B   1     -10.176   9.516  66.390  1.00  0.00    -0.232 C  
ATOM     10  CA  CYS C   1      -7.559   8.424  69.104  1.00  0.00    -0.087 C  
ATOM     11  N   CYS B   1     -11.507  11.472  66.791  1.00  0.00    -0.466 NA 
ATOM     12  H2  CYS C   1      -9.019   7.311  68.024  1.00  0.00     0.000 HD 
ATOM     13  N   CYS C   1      -8.946   8.017  68.756  1.00  0.00    -0.141 NA 
ATOM     14  C   CYS C   1      -7.694   9.569  70.190  1.00  0.00    -0.154 C  
ATOM     15  H2  CYS B   1     -11.735  12.314  67.318  1.00  0.00     0.000 HD 
ATOM     16  H1  CYS B   1     -11.212  11.669  65.834  1.00  0.00     0.000 HD 
ATOM     17  O   CYS B   1     -10.068  10.059  65.118  1.00  0.00    -0.325 OA 
ATOM     18  O   CYS C   1      -7.615  10.756  69.747  1.00  0.00    -0.105 OA 
ATOM     19  OXT GLY A   1     -10.279   4.844  69.377  1.00  0.00    -0.223 OA 
ATOM     20  O   GLY A   1      -8.579   5.247  70.798  1.00  0.00    -0.124 OA 
ATOM     21  OXT CYS B   1     -10.059   8.293  66.427  1.00  0.00    -0.256 OA 
ATOM     22  H1  CYS C   1      -9.315   7.740  69.665  1.00  0.00     0.000 HD 
ENDROOT
BRANCH   3  23
ATOM     23  CB  CYS B   1     -10.882  10.359  68.879  1.00  0.00    -0.236 C  
ATOM     24  SG  CYS B   1     -12.034  11.613  69.595  1.00  0.00    -0.309 SA 
ATOM     25  HG  CYS B   1     -12.437  11.344  70.897  1.00  0.00     0.000 H  
ENDBRANCH   3  23
BRANCH  10  26
ATOM     26  CB  CYS C   1      -7.009   8.835  67.754  1.00  0.00    -0.075 C  
ATOM     27  SG  CYS C   1      -5.294   9.502  67.681  1.00  0.00    -0.036 SA 
ATOM     28  HG  CYS C   1      -4.790   9.879  66.442  1.00  0.00     0.000 H  
ENDBRANCH  10  26
TORSDOF 2
ENDMDL
MODEL       59
REMARK 921   NORMALIZED FREE ENERGY PREDICTED BY IDOCK:   -3.83 KCAL/MOL
REMARK 922        TOTAL FREE ENERGY PREDICTED BY IDOCK:   -3.70 KCAL/MOL
REMARK 923 INTER-LIGAND FREE ENERGY PREDICTED BY IDOCK:   -4.29 KCAL/MOL
REMARK 924 INTRA-LIGAND FREE ENERGY PREDICTED BY IDOCK:    0.59 KCAL/MOL
REMARK 927      BINDING AFFINITY PREDICTED BY RF-SCORE:    0.00 PKD
ROOT
HETATM    1 FE   UNL     1      -8.696  14.766  66.666  1.00  0.00    -0.184 Fe 
ATOM      2  N   GLY A   1      -9.358   6.951  65.792  1.00  0.00    -0.383 NA 
ATOM      3  CA  CYS B   1     -11.075  10.722  68.549  1.00  0.00    -0.262 C  
ATOM      4  CA  GLY A   1      -7.906   7.158  65.654  1.00  0.00    -0.112 C  
ATOM      5  H2  GLY A   1      -9.771   6.580  64.937  1.00  0.00     0.000 HD 
ATOM      6  H1  GLY A   1      -9.560   6.359  66.598  1.00  0.00     0.000 HD 
ATOM      7  OXT CYS C   1      -6.496   9.254  68.332  1.00  0.00    -0.053 OA 
ATOM      8  C   GLY A   1      -7.602   8.050  64.439  1.00  0.00    -0.116 C  
ATOM      9  C   CYS B   1     -11.285  11.428  67.166  1.00  0.00    -0.296 C  
ATOM     10  CA  CYS C   1      -7.381  11.041  67.026  1.00  0.00    -0.123 C  
ATOM     11  N   CYS B   1     -12.458  10.613  69.095  1.00  0.00    -0.737 NA 
ATOM     12  H2  CYS C   1      -8.894  10.624  65.585  1.00  0.00     0.000 HD 
ATOM     13  N   CYS C   1      -8.535  10.282  66.476  1.00  0.00    -0.124 NA 
ATOM     14  C   CYS C   1      -7.052  10.388  68.431  1.00  0.00    -0.078 C  
ATOM     15  H2  CYS B   1     -12.482  10.240  70.044  1.00  0.00     0.000 HD 
ATOM     16  H1  CYS B   1     -12.891  11.533  69.018  1.00  0.00     0.000 HD 
ATOM     17  O   CYS B   1     -12.137  12.513  67.321  1.00  0.00    -0.490 OA 
ATOM     18  O   CYS C   1      -7.544  10.981  69.439  1.00  0.00    -0.128 OA 
ATOM     19  OXT GLY A   1      -8.405   8.345  63.566  1.00  0.00    -0.143 OA 
ATOM     20  O   GLY A   1      -6.340   8.548  64.438  1.00  0.00    -0.066 OA 
ATOM     21  OXT CYS B   1     -10.898  11.251  66.013  1.00  0.00    -0.267 OA 
ATOM     22  H1  CYS C   1      -8.168   9.330  66.460  1.00  0.00     0.000 HD 
ENDROOT
BRANCH   3  23
ATOM     23  CB  CYS B   1     -10.418   9.330  68.666  1.00  0.00    -0.209 C  
ATOM     24  SG  CYS B   1     -10.644   8.516  70.308  1.00  0.00    -0.230 SA 
ATOM     25  HG  CYS B   1     -10.053   7.262  70.413  1.00  0.00     0.000 H  
ENDBRANCH   3  23
BRANCH  10  26
ATOM     26  CB  CYS C   1      -7.926  12.455  67.050  1.00  0.00    -0.106 C  
ATOM     27  SG  CYS C   1      -6.897  13.768  67.830  1.00  0.00    -0.179 SA 
ATOM     28  HG  CYS C   1      -7.397  15.064  67.852  1.00  0.00     0.000 H  
ENDBRANCH  10  26
TORSDOF 2
ENDMDL
MODEL       60
REMARK 921   NORMALIZED FREE ENERGY PREDICTED BY IDOCK:   -3.83 KCAL/MOL
REMARK 922        TOTAL FREE ENERGY PREDICTED BY IDOCK:   -3.70 KCAL/MOL
REMARK 923 INTER-LIGAND FREE ENERGY PREDICTED BY IDOCK:   -4.68 KCAL/MOL
REMARK 924 INTRA-LIGAND FREE ENERGY PREDICTED BY IDOCK:    0.98 KCAL/MOL
REMARK 927      BINDING AFFINITY PREDICTED BY RF-SCORE:    0.00 PKD
ROOT
HETATM    1 FE   UNL     1     -11.160  10.173  63.652  1.00  0.00    -0.351 Fe 
ATOM      2  N   GLY A   1      -6.772  11.609  70.052  1.00  0.00    -0.397 NA 
ATOM      3  CA  CYS B   1     -10.525   8.753  68.463  1.00  0.00    -0.175 C  
ATOM      4  CA  GLY A   1      -7.030  12.966  69.541  1.00  0.00     0.188 C  
ATOM      5  H2  GLY A   1      -5.778  11.381  70.035  1.00  0.00     0.000 HD 
ATOM      6  H1  GLY A   1      -7.170  11.497  70.984  1.00  0.00     0.000 HD 
ATOM      7  OXT CYS C   1     -10.582  13.556  68.773  1.00  0.00    -0.246 OA 
ATOM      8  C   GLY A   1      -6.429  13.136  68.135  1.00  0.00    -0.105 C  
ATOM      9  C   CYS B   1      -9.593   8.490  67.231  1.00  0.00    -0.171 C  
ATOM     10  CA  CYS C   1     -10.068  12.360  66.776  1.00  0.00    -0.214 C  
ATOM     11  N   CYS B   1     -10.679   7.403  69.073  1.00  0.00    -0.340 NA 
ATOM     12  H2  CYS C   1      -8.325  11.135  66.719  1.00  0.00     0.000 HD 
ATOM     13  N   CYS C   1      -9.021  11.491  67.375  1.00  0.00    -0.153 NA 
ATOM     14  C   CYS C   1     -11.066  12.722  67.951  1.00  0.00    -0.246 C  
ATOM     15  H2  CYS B   1     -11.336   7.392  69.854  1.00  0.00     0.000 HD 
ATOM     16  H1  CYS B   1     -10.938   6.756  68.328  1.00  0.00     0.000 HD 
ATOM     17  O   CYS B   1     -10.045   7.380  66.532  1.00  0.00    -0.198 OA 
ATOM     18  O   CYS C   1     -12.114  12.010  68.019  1.00  0.00    -0.514 OA 
ATOM     19  OXT GLY A   1      -5.641  12.363  67.611  1.00  0.00    -0.094 OA 
ATOM     20  O   GLY A   1      -6.900  14.225  67.477  1.00  0.00    -0.182 OA 
ATOM     21  OXT CYS B   1      -8.584   9.008  66.757  1.00  0.00    -0.120 OA 
ATOM     22  H1  CYS C   1      -8.653  12.089  68.115  1.00  0.00     0.000 HD 
ENDROOT
BRANCH   3  23
ATOM     23  CB  CYS B   1     -10.134   9.731  69.591  1.00  0.00    -0.229 C  
ATOM     24  SG  CYS B   1     -11.225   9.654  71.079  1.00  0.00    -0.396 SA 
ATOM     25  HG  CYS B   1     -10.872  10.534  72.095  1.00  0.00     0.000 H  
ENDBRANCH   3  23
BRANCH  10  26
ATOM     26  CB  CYS C   1     -10.613  11.472  65.676  1.00  0.00    -0.274 C  
ATOM     27  SG  CYS C   1     -10.577  12.109  63.949  1.00  0.00    -0.458 SA 
ATOM     28  HG  CYS C   1     -11.078  11.295  62.940  1.00  0.00     0.000 H  
ENDBRANCH  10  26
TORSDOF 2
ENDMDL
MODEL       61
REMARK 921   NORMALIZED FREE ENERGY PREDICTED BY IDOCK:   -3.83 KCAL/MOL
REMARK 922        TOTAL FREE ENERGY PREDICTED BY IDOCK:   -3.70 KCAL/MOL
REMARK 923 INTER-LIGAND FREE ENERGY PREDICTED BY IDOCK:   -4.21 KCAL/MOL
REMARK 924 INTRA-LIGAND FREE ENERGY PREDICTED BY IDOCK:    0.52 KCAL/MOL
REMARK 927      BINDING AFFINITY PREDICTED BY RF-SCORE:    0.00 PKD
ROOT
HETATM    1 FE   UNL     1     -11.370  16.285  65.691  1.00  0.00    -0.282 Fe 
ATOM      2  N   GLY A   1      -9.683  10.280  70.526  1.00  0.00    -0.194 NA 
ATOM      3  CA  CYS B   1      -7.529  13.442  67.344  1.00  0.00    -0.123 C  
ATOM      4  CA  GLY A   1     -10.930   9.825  69.887  1.00  0.00    -0.264 C  
ATOM      5  H2  GLY A   1      -9.796  10.405  71.532  1.00  0.00     0.000 HD 
ATOM      6  H1  GLY A   1      -8.916   9.644  70.307  1.00  0.00     0.000 HD 
ATOM      7  OXT CYS C   1     -10.869  10.164  66.222  1.00  0.00    -0.044 OA 
ATOM      8  C   GLY A   1     -12.086  10.784  70.217  1.00  0.00    -0.348 C  
ATOM      9  C   CYS B   1      -8.348  14.531  68.118  1.00  0.00    -0.147 C  
ATOM     10  CA  CYS C   1     -11.357  12.448  66.697  1.00  0.00    -0.339 C  
ATOM     11  N   CYS B   1      -6.113  13.831  67.599  1.00  0.00    -0.298 NA 
ATOM     12  H2  CYS C   1     -10.964  13.210  68.648  1.00  0.00     0.000 HD 
ATOM     13  N   CYS C   1     -10.632  12.501  67.994  1.00  0.00    -0.217 NA 
ATOM     14  C   CYS C   1     -10.628  11.344  65.828  1.00  0.00    -0.260 C  
ATOM     15  H2  CYS B   1      -5.444  13.256  67.086  1.00  0.00     0.000 HD 
ATOM     16  H1  CYS B   1      -6.024  14.826  67.389  1.00  0.00     0.000 HD 
ATOM     17  O   CYS B   1      -7.835  15.789  67.837  1.00  0.00    -0.132 OA 
ATOM     18  O   CYS C   1      -9.774  11.777  64.995  1.00  0.00    -0.240 OA 
ATOM     19  OXT GLY A   1     -12.054  11.653  71.076  1.00  0.00    -0.295 OA 
ATOM     20  O   GLY A   1     -13.167  10.620  69.414  1.00  0.00     0.210 OA 
ATOM     21  OXT CYS B   1      -9.298  14.536  68.898  1.00  0.00    -0.199 OA 
ATOM     22  H1  CYS C   1     -10.718  11.537  68.319  1.00  0.00     0.000 HD 
ENDROOT
BRANCH   3  23
ATOM     23  CB  CYS B   1      -7.662  11.938  67.661  1.00  0.00    -0.141 C  
ATOM     24  SG  CYS B   1      -6.620  10.841  66.602  1.00  0.00    -0.122 SA 
ATOM     25  HG  CYS B   1      -6.739   9.486  66.888  1.00  0.00     0.000 H  
ENDBRANCH   3  23
BRANCH  10  26
ATOM     26  CB  CYS C   1     -11.230  13.879  66.216  1.00  0.00    -0.309 C  
ATOM     27  SG  CYS C   1     -11.967  14.314  64.585  1.00  0.00    -0.472 SA 
ATOM     28  HG  CYS C   1     -11.851  15.626  64.143  1.00  0.00     0.000 H  
ENDBRANCH  10  26
TORSDOF 2
ENDMDL
MODEL       62
REMARK 921   NORMALIZED FREE ENERGY PREDICTED BY IDOCK:   -3.82 KCAL/MOL
REMARK 922        TOTAL FREE ENERGY PREDICTED BY IDOCK:   -3.69 KCAL/MOL
REMARK 923 INTER-LIGAND FREE ENERGY PREDICTED BY IDOCK:   -4.20 KCAL/MOL
REMARK 924 INTRA-LIGAND FREE ENERGY PREDICTED BY IDOCK:    0.52 KCAL/MOL
REMARK 927      BINDING AFFINITY PREDICTED BY RF-SCORE:    0.00 PKD
ROOT
HETATM    1 FE   UNL     1     -11.603   5.171  71.665  1.00  0.00    -0.164 Fe 
ATOM      2  N   GLY A   1      -6.668  11.210  70.454  1.00  0.00    -0.496 NA 
ATOM      3  CA  CYS B   1     -11.271   9.662  69.365  1.00  0.00    -0.077 C  
ATOM      4  CA  GLY A   1      -5.782  10.045  70.286  1.00  0.00    -0.055 C  
ATOM      5  H2  GLY A   1      -6.387  11.788  71.245  1.00  0.00     0.000 HD 
ATOM      6  H1  GLY A   1      -6.717  11.748  69.589  1.00  0.00     0.000 HD 
ATOM      7  OXT CYS C   1      -7.186   7.487  68.041  1.00  0.00    -0.085 OA 
ATOM      8  C   GLY A   1      -5.707   9.232  71.590  1.00  0.00    -0.074 C  
ATOM      9  C   CYS B   1     -11.357   9.348  70.898  1.00  0.00    -0.319 C  
ATOM     10  CA  CYS C   1      -8.450   6.879  69.969  1.00  0.00    -0.140 C  
ATOM     11  N   CYS B   1     -12.325  10.697  69.165  1.00  0.00    -0.755 NA 
ATOM     12  H2  CYS C   1      -8.656   8.281  71.560  1.00  0.00     0.000 HD 
ATOM     13  N   CYS C   1      -8.525   8.246  70.549  1.00  0.00    -0.125 NA 
ATOM     14  C   CYS C   1      -8.327   7.071  68.402  1.00  0.00    -0.124 C  
ATOM     15  H2  CYS B   1     -12.451  10.951  68.186  1.00  0.00     0.000 HD 
ATOM     16  H1  CYS B   1     -13.181  10.351  69.599  1.00  0.00     0.000 HD 
ATOM     17  O   CYS B   1     -12.684   9.173  71.266  1.00  0.00    -0.317 OA 
ATOM     18  O   CYS C   1      -9.412   6.967  67.750  1.00  0.00    -0.125 OA 
ATOM     19  OXT GLY A   1      -6.111   9.613  72.679  1.00  0.00    -0.286 OA 
ATOM     20  O   GLY A   1      -5.186   7.991  71.421  1.00  0.00    -0.030 OA 
ATOM     21  OXT CYS B   1     -10.558   9.235  71.825  1.00  0.00    -0.355 OA 
ATOM     22  H1  CYS C   1      -7.659   8.664  70.208  1.00  0.00     0.000 HD 
ENDROOT
BRANCH   3  23
ATOM     23  CB  CYS B   1      -9.976  10.184  68.708  1.00  0.00    -0.179 C  
ATOM     24  SG  CYS B   1     -10.108  10.475  66.889  1.00  0.00    -0.225 SA 
ATOM     25  HG  CYS B   1      -8.942  10.947  66.298  1.00  0.00     0.000 H  
ENDBRANCH   3  23
BRANCH  10  26
ATOM     26  CB  CYS C   1      -9.736   6.259  70.474  1.00  0.00    -0.173 C  
ATOM     27  SG  CYS C   1      -9.988   4.453  70.216  1.00  0.00    -0.100 SA 
ATOM     28  HG  CYS C   1     -11.168   3.884  70.680  1.00  0.00     0.000 H  
ENDBRANCH  10  26
TORSDOF 2
ENDMDL
MODEL       63
REMARK 921   NORMALIZED FREE ENERGY PREDICTED BY IDOCK:   -3.82 KCAL/MOL
REMARK 922        TOTAL FREE ENERGY PREDICTED BY IDOCK:   -3.69 KCAL/MOL
REMARK 923 INTER-LIGAND FREE ENERGY PREDICTED BY IDOCK:   -4.21 KCAL/MOL
REMARK 924 INTRA-LIGAND FREE ENERGY PREDICTED BY IDOCK:    0.52 KCAL/MOL
REMARK 927      BINDING AFFINITY PREDICTED BY RF-SCORE:    0.00 PKD
ROOT
HETATM    1 FE   UNL     1     -12.981  10.378  69.397  1.00  0.00    -0.536 Fe 
ATOM      2  N   GLY A   1      -7.985   4.320  68.611  1.00  0.00    -0.073 NA 
ATOM      3  CA  CYS B   1     -10.651   6.751  72.039  1.00  0.00    -0.213 C  
ATOM      4  CA  GLY A   1      -7.369   5.345  67.753  1.00  0.00    -0.073 C  
ATOM      5  H2  GLY A   1      -8.276   3.502  68.075  1.00  0.00     0.000 HD 
ATOM      6  H1  GLY A   1      -7.358   4.068  69.375  1.00  0.00     0.000 HD 
ATOM      7  OXT CYS C   1      -7.073   8.617  69.415  1.00  0.00    -0.052 OA 
ATOM      8  C   GLY A   1      -8.314   5.725  66.601  1.00  0.00    -0.109 C  
ATOM      9  C   CYS B   1     -11.817   6.614  71.000  1.00  0.00    -0.372 C  
ATOM     10  CA  CYS C   1      -9.380   8.810  68.844  1.00  0.00    -0.145 C  
ATOM     11  N   CYS B   1     -11.144   5.979  73.214  1.00  0.00    -0.442 NA 
ATOM     12  H2  CYS C   1     -10.484   7.050  68.373  1.00  0.00     0.000 HD 
ATOM     13  N   CYS C   1      -9.689   7.359  68.933  1.00  0.00    -0.149 NA 
ATOM     14  C   CYS C   1      -8.178   9.067  69.842  1.00  0.00    -0.124 C  
ATOM     15  H2  CYS B   1     -10.522   6.041  74.020  1.00  0.00     0.000 HD 
ATOM     16  H1  CYS B   1     -12.091   6.301  73.418  1.00  0.00     0.000 HD 
ATOM     17  O   CYS B   1     -13.031   6.860  71.625  1.00  0.00    -0.370 OA 
ATOM     18  O   CYS C   1      -8.502   9.509  70.987  1.00  0.00    -0.284 OA 
ATOM     19  OXT GLY A   1      -9.319   5.104  66.284  1.00  0.00    -0.139 OA 
ATOM     20  O   GLY A   1      -7.963   6.874  65.972  1.00  0.00    -0.099 OA 
ATOM     21  OXT CYS B   1     -11.911   6.339  69.806  1.00  0.00    -0.319 OA 
ATOM     22  H1  CYS C   1      -8.793   6.940  68.683  1.00  0.00     0.000 HD 
ENDROOT
BRANCH   3  23
ATOM     23  CB  CYS B   1      -9.219   6.265  71.731  1.00  0.00    -0.144 C  
ATOM     24  SG  CYS B   1      -8.015   6.523  73.108  1.00  0.00    -0.102 SA 
ATOM     25  HG  CYS B   1      -6.725   6.084  72.831  1.00  0.00     0.000 H  
ENDBRANCH   3  23
BRANCH  10  26
ATOM     26  CB  CYS C   1     -10.711   9.432  69.215  1.00  0.00    -0.211 C  
ATOM     27  SG  CYS C   1     -10.913  11.248  68.987  1.00  0.00    -0.252 SA 
ATOM     28  HG  CYS C   1     -12.134  11.818  69.327  1.00  0.00     0.000 H  
ENDBRANCH  10  26
TORSDOF 2
ENDMDL
MODEL       64
REMARK 921   NORMALIZED FREE ENERGY PREDICTED BY IDOCK:   -3.79 KCAL/MOL
REMARK 922        TOTAL FREE ENERGY PREDICTED BY IDOCK:   -3.66 KCAL/MOL
REMARK 923 INTER-LIGAND FREE ENERGY PREDICTED BY IDOCK:   -4.22 KCAL/MOL
REMARK 924 INTRA-LIGAND FREE ENERGY PREDICTED BY IDOCK:    0.56 KCAL/MOL
REMARK 927      BINDING AFFINITY PREDICTED BY RF-SCORE:    0.00 PKD
ROOT
HETATM    1 FE   UNL     1      -8.885  10.386  70.806  1.00  0.00    -0.290 Fe 
ATOM      2  N   GLY A   1      -7.391  10.911  63.075  1.00  0.00    -0.349 NA 
ATOM      3  CA  CYS B   1     -11.044  11.572  66.390  1.00  0.00    -0.269 C  
ATOM      4  CA  GLY A   1      -6.716   9.654  63.438  1.00  0.00    -0.109 C  
ATOM      5  H2  GLY A   1      -6.731  11.614  62.743  1.00  0.00     0.000 HD 
ATOM      6  H1  GLY A   1      -8.131  10.737  62.396  1.00  0.00     0.000 HD 
ATOM      7  OXT CYS C   1      -8.853   7.399  65.414  1.00  0.00    -0.047 OA 
ATOM      8  C   GLY A   1      -5.600   9.916  64.463  1.00  0.00    -0.090 C  
ATOM      9  C   CYS B   1      -9.955  12.362  67.195  1.00  0.00    -0.207 C  
ATOM     10  CA  CYS C   1      -8.235   8.834  67.214  1.00  0.00    -0.104 C  
ATOM     11  N   CYS B   1     -12.074  12.608  66.095  1.00  0.00    -0.579 NA 
ATOM     12  H2  CYS C   1      -7.470  10.775  66.780  1.00  0.00     0.000 HD 
ATOM     13  N   CYS C   1      -8.097  10.068  66.396  1.00  0.00    -0.118 NA 
ATOM     14  C   CYS C   1      -9.303   7.929  66.473  1.00  0.00    -0.200 C  
ATOM     15  H2  CYS B   1     -12.902  12.226  65.637  1.00  0.00     0.000 HD 
ATOM     16  H1  CYS B   1     -12.289  13.086  66.970  1.00  0.00     0.000 HD 
ATOM     17  O   CYS B   1     -10.566  13.137  68.170  1.00  0.00    -0.231 OA 
ATOM     18  O   CYS C   1     -10.488   8.003  66.920  1.00  0.00    -0.330 OA 
ATOM     19  OXT GLY A   1      -5.160  11.020  64.754  1.00  0.00    -0.239 OA 
ATOM     20  O   GLY A   1      -5.161   8.792  65.082  1.00  0.00    -0.037 OA 
ATOM     21  OXT CYS B   1      -8.731  12.466  67.162  1.00  0.00    -0.182 OA 
ATOM     22  H1  CYS C   1      -7.821   9.686  65.491  1.00  0.00     0.000 HD 
ENDROOT
BRANCH   3  23
ATOM     23  CB  CYS B   1     -10.719  10.849  65.067  1.00  0.00    -0.146 C  
ATOM     24  SG  CYS B   1     -10.837  11.918  63.565  1.00  0.00    -0.433 SA 
ATOM     25  HG  CYS B   1     -10.543  11.267  62.373  1.00  0.00     0.000 H  
ENDBRANCH   3  23
BRANCH  10  26
ATOM     26  CB  CYS C   1      -8.646   9.400  68.558  1.00  0.00    -0.123 C  
ATOM     27  SG  CYS C   1      -8.754   8.246  69.989  1.00  0.00    -0.135 SA 
ATOM     28  HG  CYS C   1      -9.131   8.765  71.222  1.00  0.00     0.000 H  
ENDBRANCH  10  26
TORSDOF 2
ENDMDL
MODEL       65
REMARK 921   NORMALIZED FREE ENERGY PREDICTED BY IDOCK:   -3.79 KCAL/MOL
REMARK 922        TOTAL FREE ENERGY PREDICTED BY IDOCK:   -3.65 KCAL/MOL
REMARK 923 INTER-LIGAND FREE ENERGY PREDICTED BY IDOCK:   -4.22 KCAL/MOL
REMARK 924 INTRA-LIGAND FREE ENERGY PREDICTED BY IDOCK:    0.57 KCAL/MOL
REMARK 927      BINDING AFFINITY PREDICTED BY RF-SCORE:    0.00 PKD
ROOT
HETATM    1 FE   UNL     1     -11.360   6.943  71.120  1.00  0.00    -0.236 Fe 
ATOM      2  N   GLY A   1      -9.631  11.585  64.977  1.00  0.00    -0.308 NA 
ATOM      3  CA  CYS B   1      -8.496   7.164  66.959  1.00  0.00    -0.122 C  
ATOM      4  CA  GLY A   1      -9.675  12.547  66.091  1.00  0.00    -0.254 C  
ATOM      5  H2  GLY A   1     -10.351  11.778  64.282  1.00  0.00     0.000 HD 
ATOM      6  H1  GLY A   1      -8.700  11.562  64.561  1.00  0.00     0.000 HD 
ATOM      7  OXT CYS C   1      -7.719  11.448  69.011  1.00  0.00    -0.125 OA 
ATOM      8  C   GLY A   1     -11.078  12.582  66.719  1.00  0.00    -0.279 C  
ATOM      9  C   CYS B   1     -10.050   6.994  67.074  1.00  0.00    -0.229 C  
ATOM     10  CA  CYS C   1      -9.634  10.096  69.443  1.00  0.00    -0.232 C  
ATOM     11  N   CYS B   1      -8.096   6.067  66.033  1.00  0.00    -0.108 NA 
ATOM     12  H2  CYS C   1     -11.005   9.702  67.860  1.00  0.00     0.000 HD 
ATOM     13  N   CYS C   1     -10.018   9.902  68.020  1.00  0.00    -0.147 NA 
ATOM     14  C   CYS C   1      -8.065  10.312  69.451  1.00  0.00    -0.163 C  
ATOM     15  H2  CYS B   1      -7.086   5.991  65.918  1.00  0.00     0.000 HD 
ATOM     16  H1  CYS B   1      -8.523   5.205  66.375  1.00  0.00     0.000 HD 
ATOM     17  O   CYS B   1     -10.359   5.658  67.287  1.00  0.00    -0.192 OA 
ATOM     18  O   CYS C   1      -7.372   9.281  69.713  1.00  0.00    -0.061 OA 
ATOM     19  OXT GLY A   1     -12.080  12.085  66.225  1.00  0.00    -0.596 OA 
ATOM     20  O   GLY A   1     -11.110  13.185  67.933  1.00  0.00    -0.245 OA 
ATOM     21  OXT CYS B   1     -11.028   7.735  67.010  1.00  0.00    -0.247 OA 
ATOM     22  H1  CYS C   1      -9.675  10.763  67.593  1.00  0.00     0.000 HD 
ENDROOT
BRANCH   3  23
ATOM     23  CB  CYS B   1      -7.851   8.466  66.442  1.00  0.00    -0.098 C  
ATOM     24  SG  CYS B   1      -6.005   8.482  66.510  1.00  0.00    -0.053 SA 
ATOM     25  HG  CYS B   1      -5.424   9.655  66.044  1.00  0.00     0.000 H  
ENDBRANCH   3  23
BRANCH  10  26
ATOM     26  CB  CYS C   1     -10.143   8.817  70.076  1.00  0.00    -0.190 C  
ATOM     27  SG  CYS C   1     -10.313   8.765  71.909  1.00  0.00    -0.336 SA 
ATOM     28  HG  CYS C   1     -10.780   7.592  72.490  1.00  0.00     0.000 H  
ENDBRANCH  10  26
TORSDOF 2
ENDMDL
MODEL       66
REMARK 921   NORMALIZED FREE ENERGY PREDICTED BY IDOCK:   -3.77 KCAL/MOL
REMARK 922        TOTAL FREE ENERGY PREDICTED BY IDOCK:   -3.64 KCAL/MOL
REMARK 923 INTER-LIGAND FREE ENERGY PREDICTED BY IDOCK:   -4.78 KCAL/MOL
REMARK 924 INTRA-LIGAND FREE ENERGY PREDICTED BY IDOCK:    1.15 KCAL/MOL
REMARK 927      BINDING AFFINITY PREDICTED BY RF-SCORE:    0.00 PKD
ROOT
HETATM    1 FE   UNL     1     -12.663  12.387  66.314  1.00  0.00    -0.348 Fe 
ATOM      2  N   GLY A   1      -7.602  18.174  68.095  1.00  0.00    -0.256 NA 
ATOM      3  CA  CYS B   1      -8.228  13.261  68.578  1.00  0.00    -0.084 C  
ATOM      4  CA  GLY A   1      -8.904  18.795  68.394  1.00  0.00    -0.342 C  
ATOM      5  H2  GLY A   1      -7.116  18.659  67.341  1.00  0.00     0.000 HD 
ATOM      6  H1  GLY A   1      -7.031  18.116  68.938  1.00  0.00     0.000 HD 
ATOM      7  OXT CYS C   1     -11.069  16.656  70.465  1.00  0.00    -0.260 OA 
ATOM      8  C   GLY A   1      -9.765  18.883  67.124  1.00  0.00    -0.303 C  
ATOM      9  C   CYS B   1      -8.578  13.315  67.051  1.00  0.00    -0.161 C  
ATOM     10  CA  CYS C   1     -11.506  15.560  68.394  1.00  0.00    -0.363 C  
ATOM     11  N   CYS B   1      -7.009  12.404  68.621  1.00  0.00    -0.086 NA 
ATOM     12  H2  CYS C   1     -10.151  15.828  66.772  1.00  0.00     0.000 HD 
ATOM     13  N   CYS C   1     -10.172  15.819  67.791  1.00  0.00    -0.246 NA 
ATOM     14  C   CYS C   1     -11.280  15.513  69.961  1.00  0.00    -0.315 C  
ATOM     15  H2  CYS B   1      -6.698  12.203  69.572  1.00  0.00     0.000 HD 
ATOM     16  H1  CYS B   1      -7.206  11.561  68.081  1.00  0.00     0.000 HD 
ATOM     17  O   CYS B   1      -8.518  12.038  66.512  1.00  0.00    -0.160 OA 
ATOM     18  O   CYS C   1     -11.157  14.354  70.462  1.00  0.00    -0.060 OA 
ATOM     19  OXT GLY A   1      -9.357  18.702  65.985  1.00  0.00    -0.490 OA 
ATOM     20  O   GLY A   1     -11.074  19.134  67.377  1.00  0.00    -0.426 OA 
ATOM     21  OXT CYS B   1      -8.873  14.191  66.241  1.00  0.00    -0.046 OA 
ATOM     22  H1  CYS C   1      -9.909  16.697  68.239  1.00  0.00     0.000 HD 
ENDROOT
BRANCH   3  23
ATOM     23  CB  CYS B   1      -7.929  14.535  69.395  1.00  0.00     0.067 C  
ATOM     24  SG  CYS B   1      -6.239  14.585  70.139  1.00  0.00    -0.169 SA 
ATOM     25  HG  CYS B   1      -5.971  15.733  70.875  1.00  0.00     0.000 H  
ENDBRANCH   3  23
BRANCH  10  26
ATOM     26  CB  CYS C   1     -11.896  14.255  67.729  1.00  0.00    -0.379 C  
ATOM     27  SG  CYS C   1     -12.373  14.297  65.951  1.00  0.00    -0.355 SA 
ATOM     28  HG  CYS C   1     -12.731  13.100  65.341  1.00  0.00     0.000 H  
ENDBRANCH  10  26
TORSDOF 2
ENDMDL
MODEL       67
REMARK 921   NORMALIZED FREE ENERGY PREDICTED BY IDOCK:   -3.77 KCAL/MOL
REMARK 922        TOTAL FREE ENERGY PREDICTED BY IDOCK:   -3.64 KCAL/MOL
REMARK 923 INTER-LIGAND FREE ENERGY PREDICTED BY IDOCK:   -4.17 KCAL/MOL
REMARK 924 INTRA-LIGAND FREE ENERGY PREDICTED BY IDOCK:    0.53 KCAL/MOL
REMARK 927      BINDING AFFINITY PREDICTED BY RF-SCORE:    0.00 PKD
ROOT
HETATM    1 FE   UNL     1      -8.052  12.912  66.205  1.00  0.00    -0.371 Fe 
ATOM      2  N   GLY A   1      -9.864   5.504  68.235  1.00  0.00    -0.136 NA 
ATOM      3  CA  CYS B   1     -11.053  10.226  69.263  1.00  0.00    -0.245 C  
ATOM      4  CA  GLY A   1      -8.395   5.451  68.141  1.00  0.00    -0.098 C  
ATOM      5  H2  GLY A   1     -10.309   4.895  67.548  1.00  0.00     0.000 HD 
ATOM      6  H1  GLY A   1     -10.170   5.291  69.184  1.00  0.00     0.000 HD 
ATOM      7  OXT CYS C   1      -6.743   8.196  69.954  1.00  0.00    -0.042 OA 
ATOM      8  C   GLY A   1      -7.934   5.771  66.710  1.00  0.00    -0.102 C  
ATOM      9  C   CYS B   1     -11.124  10.380  67.704  1.00  0.00    -0.293 C  
ATOM     10  CA  CYS C   1      -7.321   9.460  68.017  1.00  0.00    -0.079 C  
ATOM     11  N   CYS B   1     -12.448  10.513  69.702  1.00  0.00    -0.592 NA 
ATOM     12  H2  CYS C   1      -8.848   8.732  66.720  1.00  0.00     0.000 HD 
ATOM     13  N   CYS C   1      -8.564   8.707  67.700  1.00  0.00    -0.135 NA 
ATOM     14  C   CYS C   1      -7.125   9.347  69.584  1.00  0.00    -0.064 C  
ATOM     15  H2  CYS B   1     -12.549  10.532  70.717  1.00  0.00     0.000 HD 
ATOM     16  H1  CYS B   1     -12.736  11.385  69.258  1.00  0.00     0.000 HD 
ATOM     17  O   CYS B   1     -11.806  11.545  67.381  1.00  0.00    -0.607 OA 
ATOM     18  O   CYS C   1      -7.543  10.335  70.261  1.00  0.00    -0.201 OA 
ATOM     19  OXT GLY A   1      -8.665   5.818  65.730  1.00  0.00    -0.145 OA 
ATOM     20  O   GLY A   1      -6.611   6.061  66.622  1.00  0.00    -0.054 OA 
ATOM     21  OXT CYS B   1     -10.744   9.732  66.732  1.00  0.00    -0.170 OA 
ATOM     22  H1  CYS C   1      -8.344   7.780  68.065  1.00  0.00     0.000 HD 
ENDROOT
BRANCH   3  23
ATOM     23  CB  CYS B   1     -10.616   8.907  69.935  1.00  0.00    -0.221 C  
ATOM     24  SG  CYS B   1     -10.790   8.896  71.774  1.00  0.00    -0.371 SA 
ATOM     25  HG  CYS B   1     -10.397   7.708  72.379  1.00  0.00     0.000 H  
ENDBRANCH   3  23
BRANCH  10  26
ATOM     26  CB  CYS C   1      -7.647  10.836  67.475  1.00  0.00    -0.094 C  
ATOM     27  SG  CYS C   1      -6.296  12.085  67.409  1.00  0.00    -0.152 SA 
ATOM     28  HG  CYS C   1      -6.595  13.348  66.912  1.00  0.00     0.000 H  
ENDBRANCH  10  26
TORSDOF 2
ENDMDL
MODEL       68
REMARK 921   NORMALIZED FREE ENERGY PREDICTED BY IDOCK:   -3.77 KCAL/MOL
REMARK 922        TOTAL FREE ENERGY PREDICTED BY IDOCK:   -3.64 KCAL/MOL
REMARK 923 INTER-LIGAND FREE ENERGY PREDICTED BY IDOCK:   -4.18 KCAL/MOL
REMARK 924 INTRA-LIGAND FREE ENERGY PREDICTED BY IDOCK:    0.54 KCAL/MOL
REMARK 927      BINDING AFFINITY PREDICTED BY RF-SCORE:    0.00 PKD
ROOT
HETATM    1 FE   UNL     1      -6.699   8.943  72.675  1.00  0.00    -0.093 Fe 
ATOM      2  N   GLY A   1     -11.838  11.570  67.292  1.00  0.00    -0.604 NA 
ATOM      3  CA  CYS B   1     -10.619   7.472  69.839  1.00  0.00    -0.237 C  
ATOM      4  CA  GLY A   1     -10.573  12.174  66.837  1.00  0.00    -0.229 C  
ATOM      5  H2  GLY A   1     -12.520  12.278  67.561  1.00  0.00     0.000 HD 
ATOM      6  H1  GLY A   1     -12.207  10.938  66.583  1.00  0.00     0.000 HD 
ATOM      7  OXT CYS C   1      -7.808   9.750  66.665  1.00  0.00    -0.107 OA 
ATOM      8  C   GLY A   1     -10.015  13.128  67.906  1.00  0.00    -0.233 C  
ATOM      9  C   CYS B   1     -10.608   8.436  71.076  1.00  0.00    -0.214 C  
ATOM     10  CA  CYS C   1      -7.711  10.106  69.020  1.00  0.00    -0.100 C  
ATOM     11  N   CYS B   1     -11.705   6.506  70.165  1.00  0.00    -0.539 NA 
ATOM     12  H2  CYS C   1      -9.399  10.942  70.014  1.00  0.00     0.000 HD 
ATOM     13  N   CYS C   1      -9.162  10.373  69.202  1.00  0.00    -0.189 NA 
ATOM     14  C   CYS C   1      -7.592   9.153  67.761  1.00  0.00    -0.085 C  
ATOM     15  H2  CYS B   1     -11.785   5.752  69.482  1.00  0.00     0.000 HD 
ATOM     16  H1  CYS B   1     -11.541   6.167  71.114  1.00  0.00     0.000 HD 
ATOM     17  O   CYS B   1     -10.649   7.694  72.247  1.00  0.00    -0.218 OA 
ATOM     18  O   CYS C   1      -7.485   7.914  68.020  1.00  0.00    -0.102 OA 
ATOM     19  OXT GLY A   1     -10.635  13.529  68.881  1.00  0.00    -0.231 OA 
ATOM     20  O   GLY A   1      -8.716  13.461  67.705  1.00  0.00    -0.173 OA 
ATOM     21  OXT CYS B   1     -10.585   9.652  71.250  1.00  0.00    -0.320 OA 
ATOM     22  H1  CYS C   1      -9.413  10.778  68.300  1.00  0.00     0.000 HD 
ENDROOT
BRANCH   3  23
ATOM     23  CB  CYS B   1     -10.867   7.984  68.405  1.00  0.00     0.086 C  
ATOM     24  SG  CYS B   1     -10.741   6.683  67.099  1.00  0.00    -0.399 SA 
ATOM     25  HG  CYS B   1     -10.965   7.144  65.808  1.00  0.00     0.000 H  
ENDBRANCH   3  23
BRANCH  10  26
ATOM     26  CB  CYS C   1      -7.338   9.505  70.360  1.00  0.00    -0.141 C  
ATOM     27  SG  CYS C   1      -5.550   9.347  70.772  1.00  0.00    -0.052 SA 
ATOM     28  HG  CYS C   1      -5.208   8.795  72.001  1.00  0.00     0.000 H  
ENDBRANCH  10  26
TORSDOF 2
ENDMDL
MODEL       69
REMARK 921   NORMALIZED FREE ENERGY PREDICTED BY IDOCK:   -3.77 KCAL/MOL
REMARK 922        TOTAL FREE ENERGY PREDICTED BY IDOCK:   -3.64 KCAL/MOL
REMARK 923 INTER-LIGAND FREE ENERGY PREDICTED BY IDOCK:   -4.25 KCAL/MOL
REMARK 924 INTRA-LIGAND FREE ENERGY PREDICTED BY IDOCK:    0.61 KCAL/MOL
REMARK 927      BINDING AFFINITY PREDICTED BY RF-SCORE:    0.00 PKD
ROOT
HETATM    1 FE   UNL     1     -10.074  13.123  69.726  1.00  0.00    -0.388 Fe 
ATOM      2  N   GLY A   1      -8.779   5.362  70.329  1.00  0.00    -0.125 NA 
ATOM      3  CA  CYS B   1      -6.646   9.552  68.697  1.00  0.00    -0.052 C  
ATOM      4  CA  GLY A   1     -10.186   5.410  69.897  1.00  0.00    -0.281 C  
ATOM      5  H2  GLY A   1      -8.681   4.945  71.255  1.00  0.00     0.000 HD 
ATOM      6  H1  GLY A   1      -8.208   4.881  69.635  1.00  0.00     0.000 HD 
ATOM      7  OXT CYS C   1     -10.722   7.628  67.008  1.00  0.00    -0.348 OA 
ATOM      8  C   GLY A   1     -11.048   6.136  70.944  1.00  0.00    -0.307 C  
ATOM      9  C   CYS B   1      -7.077  10.126  70.090  1.00  0.00    -0.157 C  
ATOM     10  CA  CYS C   1     -10.648   9.346  68.659  1.00  0.00    -0.200 C  
ATOM     11  N   CYS B   1      -5.158   9.637  68.735  1.00  0.00    -0.037 NA 
ATOM     12  H2  CYS C   1      -9.765   8.930  70.552  1.00  0.00     0.000 HD 
ATOM     13  N   CYS C   1      -9.706   8.650  69.573  1.00  0.00    -0.177 NA 
ATOM     14  C   CYS C   1     -10.324   8.816  67.203  1.00  0.00    -0.293 C  
ATOM     15  H2  CYS B   1      -4.722   9.370  67.852  1.00  0.00     0.000 HD 
ATOM     16  H1  CYS B   1      -4.912  10.582  69.030  1.00  0.00     0.000 HD 
ATOM     17  O   CYS B   1      -6.382  11.299  70.348  1.00  0.00    -0.254 OA 
ATOM     18  O   CYS C   1      -9.565   9.557  66.506  1.00  0.00    -0.172 OA 
ATOM     19  OXT GLY A   1     -10.687   6.414  72.078  1.00  0.00    -0.216 OA 
ATOM     20  O   GLY A   1     -12.267   6.504  70.476  1.00  0.00    -0.325 OA 
ATOM     21  OXT CYS B   1      -7.850   9.791  70.985  1.00  0.00    -0.267 OA 
ATOM     22  H1  CYS C   1      -9.922   7.670  69.388  1.00  0.00     0.000 HD 
ENDROOT
BRANCH   3  23
ATOM     23  CB  CYS B   1      -7.018   8.123  68.250  1.00  0.00    -0.076 C  
ATOM     24  SG  CYS B   1      -6.068   7.508  66.790  1.00  0.00    -0.045 SA 
ATOM     25  HG  CYS B   1      -6.403   6.221  66.388  1.00  0.00     0.000 H  
ENDBRANCH   3  23
BRANCH  10  26
ATOM     26  CB  CYS C   1     -10.327  10.801  68.934  1.00  0.00    -0.202 C  
ATOM     27  SG  CYS C   1     -11.549  12.074  68.409  1.00  0.00    -0.326 SA 
ATOM     28  HG  CYS C   1     -11.254  13.409  68.662  1.00  0.00     0.000 H  
ENDBRANCH  10  26
TORSDOF 2
ENDMDL
MODEL       70
REMARK 921   NORMALIZED FREE ENERGY PREDICTED BY IDOCK:   -3.74 KCAL/MOL
REMARK 922        TOTAL FREE ENERGY PREDICTED BY IDOCK:   -3.60 KCAL/MOL
REMARK 923 INTER-LIGAND FREE ENERGY PREDICTED BY IDOCK:   -4.12 KCAL/MOL
REMARK 924 INTRA-LIGAND FREE ENERGY PREDICTED BY IDOCK:    0.52 KCAL/MOL
REMARK 927      BINDING AFFINITY PREDICTED BY RF-SCORE:    0.00 PKD
ROOT
HETATM    1 FE   UNL     1      -7.127   8.626  71.455  1.00  0.00    -0.048 Fe 
ATOM      2  N   GLY A   1     -12.052  12.497  66.655  1.00  0.00    -0.568 NA 
ATOM      3  CA  CYS B   1      -9.466   8.257  66.988  1.00  0.00    -0.176 C  
ATOM      4  CA  GLY A   1     -11.158  13.572  67.117  1.00  0.00    -0.293 C  
ATOM      5  H2  GLY A   1     -13.015  12.652  66.952  1.00  0.00     0.000 HD 
ATOM      6  H1  GLY A   1     -11.981  12.382  65.644  1.00  0.00     0.000 HD 
ATOM      7  OXT CYS C   1      -7.594  12.689  66.843  1.00  0.00    -0.040 OA 
ATOM      8  C   GLY A   1     -11.265  13.746  68.641  1.00  0.00    -0.278 C  
ATOM      9  C   CYS B   1     -10.082   8.181  68.428  1.00  0.00    -0.200 C  
ATOM     10  CA  CYS C   1      -8.016  11.491  68.860  1.00  0.00    -0.057 C  
ATOM     11  N   CYS B   1     -10.019   7.049  66.312  1.00  0.00    -0.435 NA 
ATOM     12  H2  CYS C   1     -10.024  11.003  69.377  1.00  0.00     0.000 HD 
ATOM     13  N   CYS C   1      -9.436  11.167  68.561  1.00  0.00    -0.188 NA 
ATOM     14  C   CYS C   1      -7.289  11.625  67.460  1.00  0.00    -0.119 C  
ATOM     15  H2  CYS B   1      -9.642   6.910  65.375  1.00  0.00     0.000 HD 
ATOM     16  H1  CYS B   1      -9.858   6.252  66.928  1.00  0.00     0.000 HD 
ATOM     17  O   CYS B   1      -9.945   6.893  68.926  1.00  0.00    -0.151 OA 
ATOM     18  O   CYS C   1      -6.662  10.594  67.067  1.00  0.00    -0.077 OA 
ATOM     19  OXT GLY A   1     -12.134  13.251  69.345  1.00  0.00    -0.300 OA 
ATOM     20  O   GLY A   1     -10.252  14.475  69.173  1.00  0.00    -0.226 OA 
ATOM     21  OXT CYS B   1     -10.648   8.960  69.191  1.00  0.00    -0.227 OA 
ATOM     22  H1  CYS C   1      -9.711  11.960  67.980  1.00  0.00     0.000 HD 
ENDROOT
BRANCH   3  23
ATOM     23  CB  CYS B   1      -9.711   9.463  66.057  1.00  0.00    -0.275 C  
ATOM     24  SG  CYS B   1      -8.771   9.402  64.468  1.00  0.00    -0.191 SA 
ATOM     25  HG  CYS B   1      -8.991  10.487  63.629  1.00  0.00     0.000 H  
ENDBRANCH   3  23
BRANCH  10  26
ATOM     26  CB  CYS C   1      -7.608  10.314  69.723  1.00  0.00    -0.162 C  
ATOM     27  SG  CYS C   1      -5.919  10.321  70.456  1.00  0.00    -0.112 SA 
ATOM     28  HG  CYS C   1      -5.544   9.242  71.248  1.00  0.00     0.000 H  
ENDBRANCH  10  26
TORSDOF 2
ENDMDL
MODEL       71
REMARK 921   NORMALIZED FREE ENERGY PREDICTED BY IDOCK:   -3.72 KCAL/MOL
REMARK 922        TOTAL FREE ENERGY PREDICTED BY IDOCK:   -3.58 KCAL/MOL
REMARK 923 INTER-LIGAND FREE ENERGY PREDICTED BY IDOCK:   -4.16 KCAL/MOL
REMARK 924 INTRA-LIGAND FREE ENERGY PREDICTED BY IDOCK:    0.58 KCAL/MOL
REMARK 927      BINDING AFFINITY PREDICTED BY RF-SCORE:    0.00 PKD
ROOT
HETATM    1 FE   UNL     1      -9.344   7.535  70.935  1.00  0.00    -0.145 Fe 
ATOM      2  N   GLY A   1     -10.682  11.319  64.140  1.00  0.00    -0.366 NA 
ATOM      3  CA  CYS B   1      -8.737   7.103  65.934  1.00  0.00    -0.130 C  
ATOM      4  CA  GLY A   1     -10.209  12.405  65.014  1.00  0.00    -0.283 C  
ATOM      5  H2  GLY A   1     -11.644  11.469  63.836  1.00  0.00     0.000 HD 
ATOM      6  H1  GLY A   1     -10.050  11.194  63.349  1.00  0.00     0.000 HD 
ATOM      7  OXT CYS C   1      -7.117  11.548  66.820  1.00  0.00    -0.141 OA 
ATOM      8  C   GLY A   1     -11.161  12.594  66.206  1.00  0.00    -0.311 C  
ATOM      9  C   CYS B   1     -10.060   7.036  66.772  1.00  0.00    -0.200 C  
ATOM     10  CA  CYS C   1      -8.607  10.367  68.257  1.00  0.00    -0.128 C  
ATOM     11  N   CYS B   1      -8.809   5.885  65.079  1.00  0.00    -0.363 NA 
ATOM     12  H2  CYS C   1     -10.554   9.868  67.550  1.00  0.00     0.000 HD 
ATOM     13  N   CYS C   1      -9.607  10.029  67.210  1.00  0.00    -0.153 NA 
ATOM     14  C   CYS C   1      -7.214  10.493  67.514  1.00  0.00    -0.090 C  
ATOM     15  H2  CYS B   1      -7.966   5.739  64.523  1.00  0.00     0.000 HD 
ATOM     16  H1  CYS B   1      -9.024   5.094  65.688  1.00  0.00     0.000 HD 
ATOM     17  O   CYS B   1     -10.229   5.755  67.276  1.00  0.00    -0.161 OA 
ATOM     18  O   CYS C   1      -6.474   9.463  67.559  1.00  0.00    -0.061 OA 
ATOM     19  OXT GLY A   1     -12.276  12.099  66.299  1.00  0.00    -0.604 OA 
ATOM     20  O   GLY A   1     -10.629  13.336  67.210  1.00  0.00    -0.246 OA 
ATOM     21  OXT CYS B   1     -10.960   7.818  67.070  1.00  0.00    -0.247 OA 
ATOM     22  H1  CYS C   1      -9.504  10.814  66.565  1.00  0.00     0.000 HD 
ENDROOT
BRANCH   3  23
ATOM     23  CB  CYS B   1      -8.412   8.298  65.013  1.00  0.00    -0.123 C  
ATOM     24  SG  CYS B   1      -7.769   7.824  63.348  1.00  0.00    -0.135 SA 
ATOM     25  HG  CYS B   1      -7.476   8.900  62.518  1.00  0.00     0.000 H  
ENDBRANCH   3  23
BRANCH  10  26
ATOM     26  CB  CYS C   1      -8.759   9.202  69.214  1.00  0.00    -0.139 C  
ATOM     27  SG  CYS C   1      -7.702   9.175  70.722  1.00  0.00    -0.132 SA 
ATOM     28  HG  CYS C   1      -7.840   8.106  71.600  1.00  0.00     0.000 H  
ENDBRANCH  10  26
TORSDOF 2
ENDMDL
MODEL       72
REMARK 921   NORMALIZED FREE ENERGY PREDICTED BY IDOCK:   -3.70 KCAL/MOL
REMARK 922        TOTAL FREE ENERGY PREDICTED BY IDOCK:   -3.56 KCAL/MOL
REMARK 923 INTER-LIGAND FREE ENERGY PREDICTED BY IDOCK:   -4.15 KCAL/MOL
REMARK 924 INTRA-LIGAND FREE ENERGY PREDICTED BY IDOCK:    0.59 KCAL/MOL
REMARK 927      BINDING AFFINITY PREDICTED BY RF-SCORE:    0.00 PKD
ROOT
HETATM    1 FE   UNL     1     -12.800   5.667  73.153  1.00  0.00    -0.517 Fe 
ATOM      2  N   GLY A   1      -6.190   9.766  71.817  1.00  0.00    -0.299 NA 
ATOM      3  CA  CYS B   1     -10.522   8.559  69.687  1.00  0.00    -0.221 C  
ATOM      4  CA  GLY A   1      -5.673   8.538  72.445  1.00  0.00    -0.059 C  
ATOM      5  H2  GLY A   1      -5.994  10.592  72.383  1.00  0.00     0.000 HD 
ATOM      6  H1  GLY A   1      -5.828   9.863  70.868  1.00  0.00     0.000 HD 
ATOM      7  OXT CYS C   1      -7.049   5.472  70.941  1.00  0.00    -0.064 OA 
ATOM      8  C   GLY A   1      -6.219   8.392  73.875  1.00  0.00    -0.121 C  
ATOM      9  C   CYS B   1     -11.136   8.979  71.066  1.00  0.00    -0.289 C  
ATOM     10  CA  CYS C   1      -8.936   5.974  72.307  1.00  0.00    -0.141 C  
ATOM     11  N   CYS B   1     -11.124   9.532  68.731  1.00  0.00    -0.456 NA 
ATOM     12  H2  CYS C   1      -9.176   7.953  73.060  1.00  0.00     0.000 HD 
ATOM     13  N   CYS C   1      -8.775   7.452  72.268  1.00  0.00    -0.115 NA 
ATOM     14  C   CYS C   1      -8.315   5.426  70.958  1.00  0.00    -0.119 C  
ATOM     15  H2  CYS B   1     -10.881   9.337  67.760  1.00  0.00     0.000 HD 
ATOM     16  H1  CYS B   1     -12.131   9.541  68.895  1.00  0.00     0.000 HD 
ATOM     17  O   CYS B   1     -12.503   9.175  70.929  1.00  0.00    -0.230 OA 
ATOM     18  O   CYS C   1      -9.145   5.195  70.026  1.00  0.00    -0.117 OA 
ATOM     19  OXT GLY A   1      -6.791   9.273  74.501  1.00  0.00    -0.388 OA 
ATOM     20  O   GLY A   1      -6.057   7.147  74.389  1.00  0.00    -0.076 OA 
ATOM     21  OXT CYS B   1     -10.709   9.181  72.201  1.00  0.00    -0.288 OA 
ATOM     22  H1  CYS C   1      -7.764   7.547  72.161  1.00  0.00     0.000 HD 
ENDROOT
BRANCH   3  23
ATOM     23  CB  CYS B   1      -9.000   8.545  69.439  1.00  0.00    -0.149 C  
ATOM     24  SG  CYS B   1      -8.511   8.056  67.726  1.00  0.00    -0.128 SA 
ATOM     25  HG  CYS B   1      -7.139   8.044  67.502  1.00  0.00     0.000 H  
ENDBRANCH   3  23
BRANCH  10  26
ATOM     26  CB  CYS C   1     -10.437   5.833  72.466  1.00  0.00    -0.207 C  
ATOM     27  SG  CYS C   1     -11.095   4.234  73.098  1.00  0.00    -0.169 SA 
ATOM     28  HG  CYS C   1     -12.471   4.104  73.244  1.00  0.00     0.000 H  
ENDBRANCH  10  26
TORSDOF 2
ENDMDL
MODEL       73
REMARK 921   NORMALIZED FREE ENERGY PREDICTED BY IDOCK:   -3.70 KCAL/MOL
REMARK 922        TOTAL FREE ENERGY PREDICTED BY IDOCK:   -3.56 KCAL/MOL
REMARK 923 INTER-LIGAND FREE ENERGY PREDICTED BY IDOCK:   -4.71 KCAL/MOL
REMARK 924 INTRA-LIGAND FREE ENERGY PREDICTED BY IDOCK:    1.15 KCAL/MOL
REMARK 927      BINDING AFFINITY PREDICTED BY RF-SCORE:    0.00 PKD
ROOT
HETATM    1 FE   UNL     1      -7.021  12.054  69.966  1.00  0.00    -0.232 Fe 
ATOM      2  N   GLY A   1     -10.967  16.027  64.405  1.00  0.00    -0.932 NA 
ATOM      3  CA  CYS B   1      -8.098  16.742  68.409  1.00  0.00    -0.219 C  
ATOM      4  CA  GLY A   1     -11.914  14.954  64.753  1.00  0.00    -0.361 C  
ATOM      5  H2  GLY A   1     -10.660  15.961  63.435  1.00  0.00     0.000 HD 
ATOM      6  H1  GLY A   1     -11.369  16.941  64.614  1.00  0.00     0.000 HD 
ATOM      7  OXT CYS C   1     -12.408  14.600  68.384  1.00  0.00    -0.148 OA 
ATOM      8  C   GLY A   1     -11.308  13.577  64.438  1.00  0.00    -0.382 C  
ATOM      9  C   CYS B   1      -7.168  15.674  67.737  1.00  0.00    -0.155 C  
ATOM     10  CA  CYS C   1     -10.338  13.422  68.275  1.00  0.00    -0.249 C  
ATOM     11  N   CYS B   1      -7.246  17.965  68.446  1.00  0.00    -0.246 NA 
ATOM     12  H2  CYS C   1      -9.074  13.698  66.583  1.00  0.00     0.000 HD 
ATOM     13  N   CYS C   1      -9.775  14.191  67.135  1.00  0.00    -0.241 NA 
ATOM     14  C   CYS C   1     -11.331  14.403  69.023  1.00  0.00    -0.269 C  
ATOM     15  H2  CYS B   1      -7.689  18.742  68.937  1.00  0.00     0.000 HD 
ATOM     16  H1  CYS B   1      -6.347  17.701  68.849  1.00  0.00     0.000 HD 
ATOM     17  O   CYS B   1      -5.911  15.715  68.321  1.00  0.00    -0.101 OA 
ATOM     18  O   CYS C   1     -10.856  14.993  70.040  1.00  0.00    -0.251 OA 
ATOM     19  OXT GLY A   1     -10.301  13.389  63.771  1.00  0.00    -0.160 OA 
ATOM     20  O   GLY A   1     -11.972  12.549  65.024  1.00  0.00    -0.386 OA 
ATOM     21  OXT CYS B   1      -7.280  14.843  66.838  1.00  0.00    -0.074 OA 
ATOM     22  H1  CYS C   1     -10.619  14.457  66.627  1.00  0.00     0.000 HD 
ENDROOT
BRANCH   3  23
ATOM     23  CB  CYS B   1      -9.458  17.142  67.800  1.00  0.00    -0.253 C  
ATOM     24  SG  CYS B   1      -9.952  18.893  68.121  1.00  0.00    -0.397 SA 
ATOM     25  HG  CYS B   1     -11.177  19.253  67.572  1.00  0.00     0.000 H  
ENDBRANCH   3  23
BRANCH  10  26
ATOM     26  CB  CYS C   1      -9.084  13.027  69.029  1.00  0.00     0.503 C  
ATOM     27  SG  CYS C   1      -8.010  11.721  68.301  1.00  0.00    -0.153 SA 
ATOM     28  HG  CYS C   1      -6.860  11.358  68.992  1.00  0.00     0.000 H  
ENDBRANCH  10  26
TORSDOF 2
ENDMDL
MODEL       74
REMARK 921   NORMALIZED FREE ENERGY PREDICTED BY IDOCK:   -3.67 KCAL/MOL
REMARK 922        TOTAL FREE ENERGY PREDICTED BY IDOCK:   -3.53 KCAL/MOL
REMARK 923 INTER-LIGAND FREE ENERGY PREDICTED BY IDOCK:   -4.90 KCAL/MOL
REMARK 924 INTRA-LIGAND FREE ENERGY PREDICTED BY IDOCK:    1.38 KCAL/MOL
REMARK 927      BINDING AFFINITY PREDICTED BY RF-SCORE:    0.00 PKD
ROOT
HETATM    1 FE   UNL     1     -11.063  20.495  69.429  1.00  0.00    -0.590 Fe 
ATOM      2  N   GLY A   1      -5.598  15.222  67.278  1.00  0.00    -0.295 NA 
ATOM      3  CA  CYS B   1      -7.274  19.773  66.160  1.00  0.00    -0.279 C  
ATOM      4  CA  GLY A   1      -6.786  14.375  67.481  1.00  0.00    -0.139 C  
ATOM      5  H2  GLY A   1      -4.850  14.988  67.930  1.00  0.00     0.000 HD 
ATOM      6  H1  GLY A   1      -5.285  15.173  66.309  1.00  0.00     0.000 HD 
ATOM      7  OXT CYS C   1      -9.785  15.683  65.793  1.00  0.00    -0.328 OA 
ATOM      8  C   GLY A   1      -7.259  14.449  68.943  1.00  0.00    -0.125 C  
ATOM      9  C   CYS B   1      -7.203  20.007  67.708  1.00  0.00    -0.291 C  
ATOM     10  CA  CYS C   1      -9.881  17.136  67.681  1.00  0.00    -0.270 C  
ATOM     11  N   CYS B   1      -6.298  20.761  65.617  1.00  0.00    -0.317 NA 
ATOM     12  H2  CYS C   1      -8.130  17.422  68.861  1.00  0.00     0.000 HD 
ATOM     13  N   CYS C   1      -8.413  17.205  67.905  1.00  0.00    -0.208 NA 
ATOM     14  C   CYS C   1     -10.079  16.868  66.133  1.00  0.00    -0.333 C  
ATOM     15  H2  CYS B   1      -6.287  20.790  64.598  1.00  0.00     0.000 HD 
ATOM     16  H1  CYS B   1      -6.511  21.666  66.038  1.00  0.00     0.000 HD 
ATOM     17  O   CYS B   1      -7.258  21.367  67.978  1.00  0.00    -0.043 OA 
ATOM     18  O   CYS C   1     -10.317  17.895  65.425  1.00  0.00    -0.580 OA 
ATOM     19  OXT GLY A   1      -6.616  14.931  69.865  1.00  0.00    -0.158 OA 
ATOM     20  O   GLY A   1      -8.513  13.968  69.128  1.00  0.00     0.065 OA 
ATOM     21  OXT CYS B   1      -7.103  19.298  68.707  1.00  0.00    -0.309 OA 
ATOM     22  H1  CYS C   1      -8.107  16.295  67.559  1.00  0.00     0.000 HD 
ENDROOT
BRANCH   3  23
ATOM     23  CB  CYS B   1      -6.952  18.405  65.523  1.00  0.00    -0.135 C  
ATOM     24  SG  CYS B   1      -5.181  18.183  65.047  1.00  0.00    -0.013 SA 
ATOM     25  HG  CYS B   1      -4.892  16.950  64.475  1.00  0.00     0.000 H  
ENDBRANCH   3  23
BRANCH  10  26
ATOM     26  CB  CYS C   1     -10.334  18.487  68.196  1.00  0.00    -0.356 C  
ATOM     27  SG  CYS C   1     -10.902  19.737  66.968  1.00  0.00    -0.201 SA 
ATOM     28  HG  CYS C   1     -11.318  20.976  67.440  1.00  0.00     0.000 H  
ENDBRANCH  10  26
TORSDOF 2
ENDMDL
MODEL       75
REMARK 921   NORMALIZED FREE ENERGY PREDICTED BY IDOCK:   -3.65 KCAL/MOL
REMARK 922        TOTAL FREE ENERGY PREDICTED BY IDOCK:   -3.50 KCAL/MOL
REMARK 923 INTER-LIGAND FREE ENERGY PREDICTED BY IDOCK:   -4.04 KCAL/MOL
REMARK 924 INTRA-LIGAND FREE ENERGY PREDICTED BY IDOCK:    0.54 KCAL/MOL
REMARK 927      BINDING AFFINITY PREDICTED BY RF-SCORE:    0.00 PKD
ROOT
HETATM    1 FE   UNL     1      -7.568  12.881  69.346  1.00  0.00    -0.236 Fe 
ATOM      2  N   GLY A   1     -11.026   5.857  68.354  1.00  0.00    -0.251 NA 
ATOM      3  CA  CYS B   1     -11.238   9.936  71.197  1.00  0.00    -0.334 C  
ATOM      4  CA  GLY A   1      -9.599   5.526  68.199  1.00  0.00    -0.119 C  
ATOM      5  H2  GLY A   1     -11.551   5.678  67.499  1.00  0.00     0.000 HD 
ATOM      6  H1  GLY A   1     -11.423   5.362  69.153  1.00  0.00     0.000 HD 
ATOM      7  OXT CYS C   1      -7.505   6.913  70.891  1.00  0.00    -0.080 OA 
ATOM      8  C   GLY A   1      -9.000   6.272  66.995  1.00  0.00    -0.115 C  
ATOM      9  C   CYS B   1     -11.188  10.699  69.828  1.00  0.00    -0.297 C  
ATOM     10  CA  CYS C   1      -7.691   8.926  69.627  1.00  0.00    -0.078 C  
ATOM     11  N   CYS B   1     -12.562  10.325  71.759  1.00  0.00    -0.413 NA 
ATOM     12  H2  CYS C   1      -9.262   9.115  68.201  1.00  0.00     0.000 HD 
ATOM     13  N   CYS C   1      -9.046   8.648  69.081  1.00  0.00    -0.142 NA 
ATOM     14  C   CYS C   1      -7.611   8.170  71.016  1.00  0.00    -0.083 C  
ATOM     15  H2  CYS B   1     -12.714   9.967  72.703  1.00  0.00     0.000 HD 
ATOM     16  H1  CYS B   1     -12.633  11.341  71.704  1.00  0.00     0.000 HD 
ATOM     17  O   CYS B   1     -11.587  12.015  70.012  1.00  0.00    -0.279 OA 
ATOM     18  O   CYS C   1      -7.847   8.880  72.041  1.00  0.00    -0.338 OA 
ATOM     19  OXT GLY A   1      -9.648   6.856  66.138  1.00  0.00    -0.085 OA 
ATOM     20  O   GLY A   1      -7.644   6.278  66.985  1.00  0.00    -0.092 OA 
ATOM     21  OXT CYS B   1     -10.900  10.417  68.667  1.00  0.00    -0.205 OA 
ATOM     22  H1  CYS C   1      -9.049   7.628  69.044  1.00  0.00     0.000 HD 
ENDROOT
BRANCH   3  23
ATOM     23  CB  CYS B   1     -11.130   8.399  71.281  1.00  0.00    -0.255 C  
ATOM     24  SG  CYS B   1     -12.746   7.534  71.509  1.00  0.00    -0.354 SA 
ATOM     25  HG  CYS B   1     -12.649   6.149  71.585  1.00  0.00     0.000 H  
ENDBRANCH   3  23
BRANCH  10  26
ATOM     26  CB  CYS C   1      -7.686  10.440  69.682  1.00  0.00    -0.144 C  
ATOM     27  SG  CYS C   1      -6.118  11.286  70.147  1.00  0.00    -0.142 SA 
ATOM     28  HG  CYS C   1      -6.113  12.675  70.198  1.00  0.00     0.000 H  
ENDBRANCH  10  26
TORSDOF 2
ENDMDL
MODEL       76
REMARK 921   NORMALIZED FREE ENERGY PREDICTED BY IDOCK:   -3.65 KCAL/MOL
REMARK 922        TOTAL FREE ENERGY PREDICTED BY IDOCK:   -3.50 KCAL/MOL
REMARK 923 INTER-LIGAND FREE ENERGY PREDICTED BY IDOCK:   -4.66 KCAL/MOL
REMARK 924 INTRA-LIGAND FREE ENERGY PREDICTED BY IDOCK:    1.17 KCAL/MOL
REMARK 927      BINDING AFFINITY PREDICTED BY RF-SCORE:    0.00 PKD
ROOT
HETATM    1 FE   UNL     1      -7.085  17.541  69.744  1.00  0.00    -0.235 Fe 
ATOM      2  N   GLY A   1     -10.842  11.736  65.941  1.00  0.00    -0.283 NA 
ATOM      3  CA  CYS B   1     -10.577  16.700  66.186  1.00  0.00    -0.215 C  
ATOM      4  CA  GLY A   1     -10.835  11.246  67.329  1.00  0.00    -0.267 C  
ATOM      5  H2  GLY A   1     -10.313  11.124  65.320  1.00  0.00     0.000 HD 
ATOM      6  H1  GLY A   1     -11.799  11.871  65.613  1.00  0.00     0.000 HD 
ATOM      7  OXT CYS C   1     -11.968  13.778  69.750  1.00  0.00    -0.305 OA 
ATOM      8  C   GLY A   1      -9.394  11.042  67.823  1.00  0.00    -0.158 C  
ATOM      9  C   CYS B   1      -9.030  16.462  66.118  1.00  0.00    -0.332 C  
ATOM     10  CA  CYS C   1      -9.747  14.611  69.504  1.00  0.00     0.124 C  
ATOM     11  N   CYS B   1     -10.862  17.475  64.945  1.00  0.00    -0.728 NA 
ATOM     12  H2  CYS C   1      -8.607  14.040  67.798  1.00  0.00     0.000 HD 
ATOM     13  N   CYS C   1      -9.573  14.188  68.090  1.00  0.00    -0.211 NA 
ATOM     14  C   CYS C   1     -11.299  14.854  69.704  1.00  0.00    -0.282 C  
ATOM     15  H2  CYS B   1     -11.833  17.782  64.882  1.00  0.00     0.000 HD 
ATOM     16  H1  CYS B   1     -10.197  18.248  64.907  1.00  0.00     0.000 HD 
ATOM     17  O   CYS B   1      -8.389  17.648  65.791  1.00  0.00    -0.537 OA 
ATOM     18  O   CYS C   1     -11.682  16.060  69.606  1.00  0.00    -0.328 OA 
ATOM     19  OXT GLY A   1      -8.401  11.042  67.109  1.00  0.00    -0.126 OA 
ATOM     20  O   GLY A   1      -9.298  10.911  69.170  1.00  0.00    -0.170 OA 
ATOM     21  OXT CYS B   1      -8.273  15.505  66.269  1.00  0.00    -0.147 OA 
ATOM     22  H1  CYS C   1     -10.172  13.363  68.045  1.00  0.00     0.000 HD 
ENDROOT
BRANCH   3  23
ATOM     23  CB  CYS B   1     -11.583  15.531  66.245  1.00  0.00     0.211 C  
ATOM     24  SG  CYS B   1     -12.137  14.919  64.593  1.00  0.00    -0.309 SA 
ATOM     25  HG  CYS B   1     -13.043  13.866  64.645  1.00  0.00     0.000 H  
ENDBRANCH   3  23
BRANCH  10  26
ATOM     26  CB  CYS C   1      -8.858  15.836  69.572  1.00  0.00    -0.169 C  
ATOM     27  SG  CYS C   1      -7.040  15.598  69.398  1.00  0.00    -0.197 SA 
ATOM     28  HG  CYS C   1      -6.225  16.722  69.460  1.00  0.00     0.000 H  
ENDBRANCH  10  26
TORSDOF 2
ENDMDL
MODEL       77
REMARK 921   NORMALIZED FREE ENERGY PREDICTED BY IDOCK:   -3.62 KCAL/MOL
REMARK 922        TOTAL FREE ENERGY PREDICTED BY IDOCK:   -3.47 KCAL/MOL
REMARK 923 INTER-LIGAND FREE ENERGY PREDICTED BY IDOCK:   -5.03 KCAL/MOL
REMARK 924 INTRA-LIGAND FREE ENERGY PREDICTED BY IDOCK:    1.56 KCAL/MOL
REMARK 927      BINDING AFFINITY PREDICTED BY RF-SCORE:    0.00 PKD
ROOT
HETATM    1 FE   UNL     1     -10.703  20.870  70.287  1.00  0.00    -0.677 Fe 
ATOM      2  N   GLY A   1      -8.336  14.435  66.380  1.00  0.00    -0.244 NA 
ATOM      3  CA  CYS B   1      -6.956  19.110  67.384  1.00  0.00    -0.207 C  
ATOM      4  CA  GLY A   1      -9.774  14.479  66.065  1.00  0.00    -0.303 C  
ATOM      5  H2  GLY A   1      -8.089  13.597  66.906  1.00  0.00     0.000 HD 
ATOM      6  H1  GLY A   1      -7.780  14.525  65.530  1.00  0.00     0.000 HD 
ATOM      7  OXT CYS C   1     -10.893  17.802  64.943  1.00  0.00    -0.815 OA 
ATOM      8  C   GLY A   1     -10.612  14.343  67.347  1.00  0.00    -0.270 C  
ATOM      9  C   CYS B   1      -7.314  18.730  68.862  1.00  0.00    -0.294 C  
ATOM     10  CA  CYS C   1     -10.879  18.294  67.276  1.00  0.00    -0.238 C  
ATOM     11  N   CYS B   1      -5.497  19.407  67.449  1.00  0.00    -0.166 NA 
ATOM     12  H2  CYS C   1      -9.758  17.049  68.592  1.00  0.00     0.000 HD 
ATOM     13  N   CYS C   1      -9.763  17.376  67.626  1.00  0.00    -0.264 NA 
ATOM     14  C   CYS C   1     -10.638  18.727  65.772  1.00  0.00    -0.271 C  
ATOM     15  H2  CYS B   1      -5.122  19.754  66.566  1.00  0.00     0.000 HD 
ATOM     16  H1  CYS B   1      -5.349  20.053  68.225  1.00  0.00     0.000 HD 
ATOM     17  O   CYS B   1      -6.758  19.657  69.731  1.00  0.00    -0.324 OA 
ATOM     18  O   CYS C   1     -10.060  19.845  65.609  1.00  0.00    -0.380 OA 
ATOM     19  OXT GLY A   1     -10.177  13.998  68.436  1.00  0.00    -0.228 OA 
ATOM     20  O   GLY A   1     -11.910  14.699  67.182  1.00  0.00    -0.391 OA 
ATOM     21  OXT CYS B   1      -7.940  17.830  69.418  1.00  0.00     0.094 OA 
ATOM     22  H1  CYS C   1      -9.866  16.646  66.921  1.00  0.00     0.000 HD 
ENDROOT
BRANCH   3  23
ATOM     23  CB  CYS B   1      -7.180  18.133  66.211  1.00  0.00    -0.266 C  
ATOM     24  SG  CYS B   1      -5.894  18.224  64.888  1.00  0.00     0.078 SA 
ATOM     25  HG  CYS B   1      -6.095  17.344  63.831  1.00  0.00     0.000 H  
ENDBRANCH   3  23
BRANCH  10  26
ATOM     26  CB  CYS C   1     -10.726  19.378  68.323  1.00  0.00    -0.044 C  
ATOM     27  SG  CYS C   1      -9.910  20.953  67.828  1.00  0.00     0.180 SA 
ATOM     28  HG  CYS C   1      -9.770  21.948  68.788  1.00  0.00     0.000 H  
ENDBRANCH  10  26
TORSDOF 2
ENDMDL
MODEL       78
REMARK 921   NORMALIZED FREE ENERGY PREDICTED BY IDOCK:   -3.62 KCAL/MOL
REMARK 922        TOTAL FREE ENERGY PREDICTED BY IDOCK:   -3.47 KCAL/MOL
REMARK 923 INTER-LIGAND FREE ENERGY PREDICTED BY IDOCK:   -4.16 KCAL/MOL
REMARK 924 INTRA-LIGAND FREE ENERGY PREDICTED BY IDOCK:    0.69 KCAL/MOL
REMARK 927      BINDING AFFINITY PREDICTED BY RF-SCORE:    0.00 PKD
ROOT
HETATM    1 FE   UNL     1      -5.813  12.396  68.657  1.00  0.00    -0.053 Fe 
ATOM      2  N   GLY A   1     -13.250  14.947  69.338  1.00  0.00     0.327 NA 
ATOM      3  CA  CYS B   1      -9.814  13.828  65.916  1.00  0.00    -0.260 C  
ATOM      4  CA  GLY A   1     -12.561  15.711  70.392  1.00  0.00    -0.336 C  
ATOM      5  H2  GLY A   1     -13.957  14.322  69.724  1.00  0.00     0.000 HD 
ATOM      6  H1  GLY A   1     -13.644  15.577  68.638  1.00  0.00     0.000 HD 
ATOM      7  OXT CYS C   1      -9.473  17.327  69.205  1.00  0.00    -0.180 OA 
ATOM      8  C   GLY A   1     -11.968  14.762  71.446  1.00  0.00    -0.345 C  
ATOM      9  C   CYS B   1      -9.621  12.525  66.766  1.00  0.00    -0.231 C  
ATOM     10  CA  CYS C   1      -8.549  15.147  69.484  1.00  0.00    -0.133 C  
ATOM     11  N   CYS B   1     -10.284  13.314  64.599  1.00  0.00    -0.566 NA 
ATOM     12  H2  CYS C   1      -9.858  13.469  69.580  1.00  0.00     0.000 HD 
ATOM     13  N   CYS C   1      -9.798  14.402  69.174  1.00  0.00    -0.406 NA 
ATOM     14  C   CYS C   1      -8.644  16.516  68.694  1.00  0.00    -0.243 C  
ATOM     15  H2  CYS B   1     -10.379  14.048  63.897  1.00  0.00     0.000 HD 
ATOM     16  H1  CYS B   1      -9.645  12.572  64.313  1.00  0.00     0.000 HD 
ATOM     17  O   CYS B   1      -8.932  11.579  66.021  1.00  0.00    -0.208 OA 
ATOM     18  O   CYS C   1      -8.037  16.549  67.580  1.00  0.00    -0.149 OA 
ATOM     19  OXT GLY A   1     -12.231  13.572  71.546  1.00  0.00    -0.192 OA 
ATOM     20  O   GLY A   1     -11.055  15.357  72.254  1.00  0.00    -0.321 OA 
ATOM     21  OXT CYS B   1      -9.935  12.148  67.893  1.00  0.00    -0.189 OA 
ATOM     22  H1  CYS C   1     -10.514  15.059  69.487  1.00  0.00     0.000 HD 
ENDROOT
BRANCH   3  23
ATOM     23  CB  CYS B   1     -10.779  14.952  66.348  1.00  0.00    -0.316 C  
ATOM     24  SG  CYS B   1     -10.633  16.505  65.359  1.00  0.00    -0.182 SA 
ATOM     25  HG  CYS B   1     -11.503  17.516  65.748  1.00  0.00     0.000 H  
ENDBRANCH   3  23
BRANCH  10  26
ATOM     26  CB  CYS C   1      -7.486  14.172  69.020  1.00  0.00    -0.082 C  
ATOM     27  SG  CYS C   1      -5.767  14.797  68.813  1.00  0.00    -0.090 SA 
ATOM     28  HG  CYS C   1      -4.792  13.903  68.387  1.00  0.00     0.000 H  
ENDBRANCH  10  26
TORSDOF 2
ENDMDL
MODEL       79
REMARK 921   NORMALIZED FREE ENERGY PREDICTED BY IDOCK:   -3.62 KCAL/MOL
REMARK 922        TOTAL FREE ENERGY PREDICTED BY IDOCK:   -3.46 KCAL/MOL
REMARK 923 INTER-LIGAND FREE ENERGY PREDICTED BY IDOCK:   -4.00 KCAL/MOL
REMARK 924 INTRA-LIGAND FREE ENERGY PREDICTED BY IDOCK:    0.53 KCAL/MOL
REMARK 927      BINDING AFFINITY PREDICTED BY RF-SCORE:    0.00 PKD
ROOT
HETATM    1 FE   UNL     1      -7.529   6.000  68.526  1.00  0.00    -0.069 Fe 
ATOM      2  N   GLY A   1      -8.559  13.818  68.858  1.00  0.00    -0.366 NA 
ATOM      3  CA  CYS B   1     -11.000   9.534  69.538  1.00  0.00    -0.195 C  
ATOM      4  CA  GLY A   1      -7.768  13.659  67.626  1.00  0.00    -0.178 C  
ATOM      5  H2  GLY A   1      -8.057  14.355  69.564  1.00  0.00     0.000 HD 
ATOM      6  H1  GLY A   1      -9.470  14.225  68.648  1.00  0.00     0.000 HD 
ATOM      7  OXT CYS C   1      -9.108  11.064  65.385  1.00  0.00    -0.198 OA 
ATOM      8  C   GLY A   1      -6.394  13.045  67.941  1.00  0.00    -0.134 C  
ATOM      9  C   CYS B   1      -9.738   9.131  70.374  1.00  0.00    -0.221 C  
ATOM     10  CA  CYS C   1      -7.997   9.580  66.884  1.00  0.00    -0.109 C  
ATOM     11  N   CYS B   1     -12.101   9.512  70.542  1.00  0.00    -0.457 NA 
ATOM     12  H2  CYS C   1      -7.464  10.275  68.827  1.00  0.00     0.000 HD 
ATOM     13  N   CYS C   1      -8.160  10.426  68.096  1.00  0.00    -0.109 NA 
ATOM     14  C   CYS C   1      -9.217   9.928  65.936  1.00  0.00    -0.176 C  
ATOM     15  H2  CYS B   1     -13.019   9.677  70.130  1.00  0.00     0.000 HD 
ATOM     16  H1  CYS B   1     -12.044   8.624  71.041  1.00  0.00     0.000 HD 
ATOM     17  O   CYS B   1     -10.033   8.029  71.164  1.00  0.00    -0.172 OA 
ATOM     18  O   CYS C   1     -10.203   9.132  65.998  1.00  0.00    -0.256 OA 
ATOM     19  OXT GLY A   1      -5.917  12.931  69.061  1.00  0.00    -0.074 OA 
ATOM     20  O   GLY A   1      -5.750  12.572  66.845  1.00  0.00    -0.319 OA 
ATOM     21  OXT CYS B   1      -8.589   9.550  70.502  1.00  0.00    -0.213 OA 
ATOM     22  H1  CYS C   1      -8.170  11.364  67.695  1.00  0.00     0.000 HD 
ENDROOT
BRANCH   3  23
ATOM     23  CB  CYS B   1     -11.088  10.878  68.783  1.00  0.00    -0.256 C  
ATOM     24  SG  CYS B   1     -11.861  12.247  69.752  1.00  0.00    -0.272 SA 
ATOM     25  HG  CYS B   1     -11.939  13.457  69.073  1.00  0.00     0.000 H  
ENDBRANCH   3  23
BRANCH  10  26
ATOM     26  CB  CYS C   1      -7.981   8.188  67.480  1.00  0.00    -0.122 C  
ATOM     27  SG  CYS C   1      -7.721   6.761  66.345  1.00  0.00    -0.100 SA 
ATOM     28  HG  CYS C   1      -7.706   5.484  66.892  1.00  0.00     0.000 H  
ENDBRANCH  10  26
TORSDOF 2
ENDMDL
MODEL       80
REMARK 921   NORMALIZED FREE ENERGY PREDICTED BY IDOCK:   -3.60 KCAL/MOL
REMARK 922        TOTAL FREE ENERGY PREDICTED BY IDOCK:   -3.45 KCAL/MOL
REMARK 923 INTER-LIGAND FREE ENERGY PREDICTED BY IDOCK:   -4.04 KCAL/MOL
REMARK 924 INTRA-LIGAND FREE ENERGY PREDICTED BY IDOCK:    0.59 KCAL/MOL
REMARK 927      BINDING AFFINITY PREDICTED BY RF-SCORE:    0.00 PKD
ROOT
HETATM    1 FE   UNL     1     -10.025  12.381  69.732  1.00  0.00    -0.371 Fe 
ATOM      2  N   GLY A   1      -8.971   4.915  72.064  1.00  0.00    -0.130 NA 
ATOM      3  CA  CYS B   1      -6.763   8.528  69.448  1.00  0.00    -0.045 C  
ATOM      4  CA  GLY A   1     -10.391   4.923  71.675  1.00  0.00    -0.170 C  
ATOM      5  H2  GLY A   1      -8.851   4.717  73.057  1.00  0.00     0.000 HD 
ATOM      6  H1  GLY A   1      -8.444   4.264  71.482  1.00  0.00     0.000 HD 
ATOM      7  OXT CYS C   1     -10.965   6.442  68.371  1.00  0.00    -0.287 OA 
ATOM      8  C   GLY A   1     -11.186   5.904  72.553  1.00  0.00    -0.294 C  
ATOM      9  C   CYS B   1      -7.120   9.423  70.684  1.00  0.00    -0.124 C  
ATOM     10  CA  CYS C   1     -10.769   8.487  69.580  1.00  0.00    -0.197 C  
ATOM     11  N   CYS B   1      -5.273   8.556  69.420  1.00  0.00    -0.030 NA 
ATOM     12  H2  CYS C   1      -9.826   8.478  71.491  1.00  0.00     0.000 HD 
ATOM     13  N   CYS C   1      -9.815   7.979  70.601  1.00  0.00    -0.184 NA 
ATOM     14  C   CYS C   1     -10.520   7.625  68.276  1.00  0.00    -0.174 C  
ATOM     15  H2  CYS B   1      -4.882   8.077  68.609  1.00  0.00     0.000 HD 
ATOM     16  H1  CYS B   1      -4.984   9.533  69.482  1.00  0.00     0.000 HD 
ATOM     17  O   CYS B   1      -6.376  10.593  70.643  1.00  0.00    -0.280 OA 
ATOM     18  O   CYS C   1      -9.765   8.154  67.404  1.00  0.00    -0.151 OA 
ATOM     19  OXT GLY A   1     -10.772   6.419  73.582  1.00  0.00    -0.273 OA 
ATOM     20  O   GLY A   1     -12.410   6.206  72.051  1.00  0.00    -0.290 OA 
ATOM     21  OXT CYS B   1      -7.868   9.334  71.655  1.00  0.00    -0.329 OA 
ATOM     22  H1  CYS C   1     -10.072   6.993  70.652  1.00  0.00     0.000 HD 
ENDROOT
BRANCH   3  23
ATOM     23  CB  CYS B   1      -7.201   7.051  69.353  1.00  0.00    -0.085 C  
ATOM     24  SG  CYS B   1      -6.927   6.279  67.698  1.00  0.00    -0.077 SA 
ATOM     25  HG  CYS B   1      -7.321   4.949  67.613  1.00  0.00     0.000 H  
ENDBRANCH   3  23
BRANCH  10  26
ATOM     26  CB  CYS C   1     -10.387   9.952  69.504  1.00  0.00    -0.229 C  
ATOM     27  SG  CYS C   1     -11.529  11.101  68.629  1.00  0.00    -0.320 SA 
ATOM     28  HG  CYS C   1     -11.180  12.444  68.559  1.00  0.00     0.000 H  
ENDBRANCH  10  26
TORSDOF 2
ENDMDL
MODEL       81
REMARK 921   NORMALIZED FREE ENERGY PREDICTED BY IDOCK:   -3.60 KCAL/MOL
REMARK 922        TOTAL FREE ENERGY PREDICTED BY IDOCK:   -3.45 KCAL/MOL
REMARK 923 INTER-LIGAND FREE ENERGY PREDICTED BY IDOCK:   -4.19 KCAL/MOL
REMARK 924 INTRA-LIGAND FREE ENERGY PREDICTED BY IDOCK:    0.74 KCAL/MOL
REMARK 927      BINDING AFFINITY PREDICTED BY RF-SCORE:    0.00 PKD
ROOT
HETATM    1 FE   UNL     1     -11.251   5.397  65.028  1.00  0.00    -0.448 Fe 
ATOM      2  N   GLY A   1     -10.349   9.166  71.903  1.00  0.00    -0.283 NA 
ATOM      3  CA  CYS B   1      -8.276   8.727  67.400  1.00  0.00    -0.109 C  
ATOM      4  CA  GLY A   1     -10.702   7.804  72.338  1.00  0.00    -0.290 C  
ATOM      5  H2  GLY A   1     -11.050   9.849  72.191  1.00  0.00     0.000 HD 
ATOM      6  H1  GLY A   1      -9.418   9.417  72.233  1.00  0.00     0.000 HD 
ATOM      7  OXT CYS C   1      -8.722   5.201  70.646  1.00  0.00    -0.122 OA 
ATOM      8  C   GLY A   1     -12.107   7.425  71.841  1.00  0.00    -0.307 C  
ATOM      9  C   CYS B   1      -9.743   8.916  66.881  1.00  0.00    -0.202 C  
ATOM     10  CA  CYS C   1     -10.263   5.570  68.866  1.00  0.00    -0.214 C  
ATOM     11  N   CYS B   1      -7.558   9.909  66.845  1.00  0.00    -0.095 NA 
ATOM     12  H2  CYS C   1     -11.391   7.378  68.826  1.00  0.00     0.000 HD 
ATOM     13  N   CYS C   1     -10.497   7.010  69.151  1.00  0.00    -0.201 NA 
ATOM     14  C   CYS C   1      -8.802   5.249  69.383  1.00  0.00    -0.100 C  
ATOM     15  H2  CYS B   1      -6.556   9.889  67.031  1.00  0.00     0.000 HD 
ATOM     16  H1  CYS B   1      -7.777   9.963  65.850  1.00  0.00     0.000 HD 
ATOM     17  O   CYS B   1      -9.723   9.238  65.531  1.00  0.00    -0.277 OA 
ATOM     18  O   CYS C   1      -7.891   5.267  68.498  1.00  0.00    -0.082 OA 
ATOM     19  OXT GLY A   1     -12.920   8.208  71.371  1.00  0.00    -0.306 OA 
ATOM     20  O   GLY A   1     -12.364   6.095  71.917  1.00  0.00    -0.251 OA 
ATOM     21  OXT CYS B   1     -10.869   8.862  67.369  1.00  0.00    -0.218 OA 
ATOM     22  H1  CYS C   1     -10.353   7.048  70.160  1.00  0.00     0.000 HD 
ENDROOT
BRANCH   3  23
ATOM     23  CB  CYS B   1      -7.945   8.646  68.905  1.00  0.00    -0.113 C  
ATOM     24  SG  CYS B   1      -7.432  10.252  69.659  1.00  0.00    -0.161 SA 
ATOM     25  HG  CYS B   1      -7.134  10.180  71.015  1.00  0.00     0.000 H  
ENDBRANCH   3  23
BRANCH  10  26
ATOM     26  CB  CYS C   1     -10.477   5.514  67.367  1.00  0.00    -0.219 C  
ATOM     27  SG  CYS C   1      -9.752   4.098  66.439  1.00  0.00    -0.189 SA 
ATOM     28  HG  CYS C   1      -9.948   4.047  65.065  1.00  0.00     0.000 H  
ENDBRANCH  10  26
TORSDOF 2
ENDMDL
MODEL       82
REMARK 921   NORMALIZED FREE ENERGY PREDICTED BY IDOCK:   -3.60 KCAL/MOL
REMARK 922        TOTAL FREE ENERGY PREDICTED BY IDOCK:   -3.45 KCAL/MOL
REMARK 923 INTER-LIGAND FREE ENERGY PREDICTED BY IDOCK:   -3.99 KCAL/MOL
REMARK 924 INTRA-LIGAND FREE ENERGY PREDICTED BY IDOCK:    0.55 KCAL/MOL
REMARK 927      BINDING AFFINITY PREDICTED BY RF-SCORE:    0.00 PKD
ROOT
HETATM    1 FE   UNL     1      -9.018   2.672  69.079  1.00  0.00    -0.060 Fe 
ATOM      2  N   GLY A   1      -8.108  10.434  70.175  1.00  0.00    -0.387 NA 
ATOM      3  CA  CYS B   1     -11.350   6.742  70.965  1.00  0.00    -0.309 C  
ATOM      4  CA  GLY A   1      -7.584  10.249  68.811  1.00  0.00    -0.093 C  
ATOM      5  H2  GLY A   1      -7.387  10.765  70.816  1.00  0.00     0.000 HD 
ATOM      6  H1  GLY A   1      -8.919  11.053  70.165  1.00  0.00     0.000 HD 
ATOM      7  OXT CYS C   1      -9.838   8.284  66.663  1.00  0.00    -0.227 OA 
ATOM      8  C   GLY A   1      -6.361   9.316  68.825  1.00  0.00    -0.048 C  
ATOM      9  C   CYS B   1     -10.101   5.979  71.526  1.00  0.00    -0.192 C  
ATOM     10  CA  CYS C   1      -8.884   6.431  67.822  1.00  0.00    -0.112 C  
ATOM     11  N   CYS B   1     -12.250   6.847  72.149  1.00  0.00    -0.474 NA 
ATOM     12  H2  CYS C   1      -7.900   6.765  69.681  1.00  0.00     0.000 HD 
ATOM     13  N   CYS C   1      -8.647   7.148  69.102  1.00  0.00    -0.133 NA 
ATOM     14  C   CYS C   1     -10.122   7.144  67.140  1.00  0.00    -0.225 C  
ATOM     15  H2  CYS B   1     -13.157   7.256  71.924  1.00  0.00     0.000 HD 
ATOM     16  H1  CYS B   1     -12.325   5.917  72.561  1.00  0.00     0.000 HD 
ATOM     17  O   CYS B   1     -10.518   4.886  72.272  1.00  0.00    -0.205 OA 
ATOM     18  O   CYS C   1     -11.246   6.582  67.320  1.00  0.00    -0.376 OA 
ATOM     19  OXT GLY A   1      -5.752   8.973  69.828  1.00  0.00    -0.032 OA 
ATOM     20  O   GLY A   1      -6.031   8.842  67.598  1.00  0.00    -0.046 OA 
ATOM     21  OXT CYS B   1      -8.881   6.119  71.474  1.00  0.00    -0.135 OA 
ATOM     22  H1  CYS C   1      -8.500   8.105  68.781  1.00  0.00     0.000 HD 
ENDROOT
BRANCH   3  23
ATOM     23  CB  CYS B   1     -11.237   8.149  70.342  1.00  0.00    -0.221 C  
ATOM     24  SG  CYS B   1     -11.779   9.521  71.454  1.00  0.00    -0.413 SA 
ATOM     25  HG  CYS B   1     -11.677  10.788  70.892  1.00  0.00     0.000 H  
ENDBRANCH   3  23
BRANCH  10  26
ATOM     26  CB  CYS C   1      -9.102   5.010  68.299  1.00  0.00    -0.115 C  
ATOM     27  SG  CYS C   1      -9.390   3.704  67.033  1.00  0.00    -0.191 SA 
ATOM     28  HG  CYS C   1      -9.590   2.401  67.471  1.00  0.00     0.000 H  
ENDBRANCH  10  26
TORSDOF 2
ENDMDL
MODEL       83
REMARK 921   NORMALIZED FREE ENERGY PREDICTED BY IDOCK:   -3.59 KCAL/MOL
REMARK 922        TOTAL FREE ENERGY PREDICTED BY IDOCK:   -3.43 KCAL/MOL
REMARK 923 INTER-LIGAND FREE ENERGY PREDICTED BY IDOCK:   -4.01 KCAL/MOL
REMARK 924 INTRA-LIGAND FREE ENERGY PREDICTED BY IDOCK:    0.58 KCAL/MOL
REMARK 927      BINDING AFFINITY PREDICTED BY RF-SCORE:    0.00 PKD
ROOT
HETATM    1 FE   UNL     1     -11.283   5.911  69.360  1.00  0.00    -0.236 Fe 
ATOM      2  N   GLY A   1      -7.271  12.706  69.434  1.00  0.00    -0.316 NA 
ATOM      3  CA  CYS B   1     -11.848  10.877  70.122  1.00  0.00    -0.353 C  
ATOM      4  CA  GLY A   1      -6.725  12.035  68.242  1.00  0.00    -0.061 C  
ATOM      5  H2  GLY A   1      -6.557  12.854  70.146  1.00  0.00     0.000 HD 
ATOM      6  H1  GLY A   1      -7.732  13.578  69.173  1.00  0.00     0.000 HD 
ATOM      7  OXT CYS C   1      -9.342  10.712  66.016  1.00  0.00    -0.174 OA 
ATOM      8  C   GLY A   1      -6.030  10.721  68.634  1.00  0.00    -0.039 C  
ATOM      9  C   CYS B   1     -11.119   9.822  71.023  1.00  0.00    -0.361 C  
ATOM     10  CA  CYS C   1      -9.411   8.934  67.602  1.00  0.00    -0.136 C  
ATOM     11  N   CYS B   1     -12.745  11.586  71.078  1.00  0.00    -0.361 NA 
ATOM     12  H2  CYS C   1      -8.598   9.246  69.547  1.00  0.00     0.000 HD 
ATOM     13  N   CYS C   1      -9.038   9.758  68.783  1.00  0.00    -0.132 NA 
ATOM     14  C   CYS C   1     -10.139   9.913  66.593  1.00  0.00    -0.233 C  
ATOM     15  H2  CYS B   1     -13.357  12.262  70.622  1.00  0.00     0.000 HD 
ATOM     16  H1  CYS B   1     -13.257  10.877  71.603  1.00  0.00     0.000 HD 
ATOM     17  O   CYS B   1     -12.045   9.176  71.829  1.00  0.00    -0.330 OA 
ATOM     18  O   CYS C   1     -11.407   9.898  66.633  1.00  0.00     0.270 OA 
ATOM     19  OXT GLY A   1      -5.745  10.391  69.777  1.00  0.00    -0.041 OA 
ATOM     20  O   GLY A   1      -5.796   9.899  67.580  1.00  0.00    -0.052 OA 
ATOM     21  OXT CYS B   1      -9.959   9.450  71.190  1.00  0.00    -0.289 OA 
ATOM     22  H1  CYS C   1      -8.460  10.482  68.356  1.00  0.00     0.000 HD 
ENDROOT
BRANCH   3  23
ATOM     23  CB  CYS B   1     -11.074  11.950  69.329  1.00  0.00    -0.203 C  
ATOM     24  SG  CYS B   1     -11.811  13.642  69.414  1.00  0.00    -0.348 SA 
ATOM     25  HG  CYS B   1     -11.113  14.608  68.700  1.00  0.00     0.000 H  
ENDBRANCH   3  23
BRANCH  10  26
ATOM     26  CB  CYS C   1     -10.269   7.858  68.236  1.00  0.00    -0.203 C  
ATOM     27  SG  CYS C   1     -10.876   6.490  67.164  1.00  0.00    -0.405 SA 
ATOM     28  HG  CYS C   1     -11.663   5.503  67.745  1.00  0.00     0.000 H  
ENDBRANCH  10  26
TORSDOF 2
ENDMDL
MODEL       84
REMARK 921   NORMALIZED FREE ENERGY PREDICTED BY IDOCK:   -3.58 KCAL/MOL
REMARK 922        TOTAL FREE ENERGY PREDICTED BY IDOCK:   -3.42 KCAL/MOL
REMARK 923 INTER-LIGAND FREE ENERGY PREDICTED BY IDOCK:   -4.52 KCAL/MOL
REMARK 924 INTRA-LIGAND FREE ENERGY PREDICTED BY IDOCK:    1.10 KCAL/MOL
REMARK 927      BINDING AFFINITY PREDICTED BY RF-SCORE:    0.00 PKD
ROOT
HETATM    1 FE   UNL     1      -6.240   8.792  69.832  1.00  0.00    -0.032 Fe 
ATOM      2  N   GLY A   1     -13.463   8.727  73.012  1.00  0.00    -0.938 NA 
ATOM      3  CA  CYS B   1      -9.089   6.361  73.229  1.00  0.00    -0.128 C  
ATOM      4  CA  GLY A   1     -13.753   8.944  71.584  1.00  0.00    -0.395 C  
ATOM      5  H2  GLY A   1     -13.761   9.516  73.583  1.00  0.00     0.000 HD 
ATOM      6  H1  GLY A   1     -13.876   7.851  73.331  1.00  0.00     0.000 HD 
ATOM      7  OXT CYS C   1     -11.978   6.584  69.385  1.00  0.00    -0.070 OA 
ATOM      8  C   GLY A   1     -13.130  10.265  71.102  1.00  0.00    -0.390 C  
ATOM      9  C   CYS B   1      -8.491   7.808  73.305  1.00  0.00    -0.178 C  
ATOM     10  CA  CYS C   1     -10.136   8.053  69.750  1.00  0.00    -0.196 C  
ATOM     11  N   CYS B   1      -8.690   5.754  74.530  1.00  0.00    -0.117 NA 
ATOM     12  H2  CYS C   1     -10.178   9.377  71.418  1.00  0.00     0.000 HD 
ATOM     13  N   CYS C   1     -10.530   8.466  71.122  1.00  0.00    -0.205 NA 
ATOM     14  C   CYS C   1     -10.721   6.596  69.543  1.00  0.00    -0.260 C  
ATOM     15  H2  CYS B   1      -8.940   4.768  74.602  1.00  0.00     0.000 HD 
ATOM     16  H1  CYS B   1      -7.690   5.920  74.653  1.00  0.00     0.000 HD 
ATOM     17  O   CYS B   1      -7.179   7.748  73.753  1.00  0.00    -0.105 OA 
ATOM     18  O   CYS C   1      -9.905   5.645  69.744  1.00  0.00    -0.162 OA 
ATOM     19  OXT GLY A   1     -12.677  11.135  71.832  1.00  0.00    -0.346 OA 
ATOM     20  O   GLY A   1     -13.073  10.372  69.751  1.00  0.00    -0.015 OA 
ATOM     21  OXT CYS B   1      -8.896   8.947  73.081  1.00  0.00    -0.214 OA 
ATOM     22  H1  CYS C   1     -11.546   8.386  71.080  1.00  0.00     0.000 HD 
ENDROOT
BRANCH   3  23
ATOM     23  CB  CYS B   1     -10.600   6.110  73.043  1.00  0.00    -0.241 C  
ATOM     24  SG  CYS B   1     -11.132   4.375  73.388  1.00  0.00    -0.288 SA 
ATOM     25  HG  CYS B   1     -12.493   4.148  73.221  1.00  0.00     0.000 H  
ENDBRANCH   3  23
BRANCH  10  26
ATOM     26  CB  CYS C   1      -8.627   8.172  69.812  1.00  0.00    -0.133 C  
ATOM     27  SG  CYS C   1      -7.619   6.858  69.008  1.00  0.00    -0.106 SA 
ATOM     28  HG  CYS C   1      -6.235   6.967  69.065  1.00  0.00     0.000 H  
ENDBRANCH  10  26
TORSDOF 2
ENDMDL
MODEL       85
REMARK 921   NORMALIZED FREE ENERGY PREDICTED BY IDOCK:   -3.53 KCAL/MOL
REMARK 922        TOTAL FREE ENERGY PREDICTED BY IDOCK:   -3.37 KCAL/MOL
REMARK 923 INTER-LIGAND FREE ENERGY PREDICTED BY IDOCK:   -4.23 KCAL/MOL
REMARK 924 INTRA-LIGAND FREE ENERGY PREDICTED BY IDOCK:    0.86 KCAL/MOL
REMARK 927      BINDING AFFINITY PREDICTED BY RF-SCORE:    0.00 PKD
ROOT
HETATM    1 FE   UNL     1     -12.239  16.816  70.384  1.00  0.00    -0.392 Fe 
ATOM      2  N   GLY A   1      -5.219  14.700  67.465  1.00  0.00    -0.337 NA 
ATOM      3  CA  CYS B   1      -8.771  18.149  66.955  1.00  0.00    -0.258 C  
ATOM      4  CA  GLY A   1      -5.907  13.404  67.593  1.00  0.00    -0.086 C  
ATOM      5  H2  GLY A   1      -4.396  14.752  68.064  1.00  0.00     0.000 HD 
ATOM      6  H1  GLY A   1      -4.990  14.889  66.489  1.00  0.00     0.000 HD 
ATOM      7  OXT CYS C   1      -9.296  13.431  66.155  1.00  0.00    -0.184 OA 
ATOM      8  C   GLY A   1      -6.252  13.119  69.064  1.00  0.00    -0.094 C  
ATOM      9  C   CYS B   1      -8.690  18.235  68.518  1.00  0.00    -0.308 C  
ATOM     10  CA  CYS C   1      -9.863  14.502  68.208  1.00  0.00    -0.229 C  
ATOM     11  N   CYS B   1      -8.360  19.511  66.513  1.00  0.00    -0.316 NA 
ATOM     12  H2  CYS C   1      -8.322  15.405  69.369  1.00  0.00     0.000 HD 
ATOM     13  N   CYS C   1      -8.556  15.181  68.402  1.00  0.00    -0.154 NA 
ATOM     14  C   CYS C   1     -10.044  14.329  66.645  1.00  0.00    -0.273 C  
ATOM     15  H2  CYS B   1      -8.440  19.643  65.505  1.00  0.00     0.000 HD 
ATOM     16  H1  CYS B   1      -8.909  20.186  67.047  1.00  0.00     0.000 HD 
ATOM     17  O   CYS B   1      -9.304  19.400  68.954  1.00  0.00    -0.381 OA 
ATOM     18  O   CYS C   1     -10.754  15.213  66.074  1.00  0.00    -0.310 OA 
ATOM     19  OXT GLY A   1      -5.811  13.739  70.022  1.00  0.00    -0.118 OA 
ATOM     20  O   GLY A   1      -7.159  12.122  69.222  1.00  0.00    -0.063 OA 
ATOM     21  OXT CYS B   1      -8.218  17.545  69.420  1.00  0.00     0.113 OA 
ATOM     22  H1  CYS C   1      -7.916  14.535  67.939  1.00  0.00     0.000 HD 
ENDROOT
BRANCH   3  23
ATOM     23  CB  CYS B   1      -7.941  17.128  66.148  1.00  0.00    -0.262 C  
ATOM     24  SG  CYS B   1      -6.233  17.695  65.731  1.00  0.00     0.007 SA 
ATOM     25  HG  CYS B   1      -5.486  16.776  65.004  1.00  0.00     0.000 H  
ENDBRANCH   3  23
BRANCH  10  26
ATOM     26  CB  CYS C   1     -10.814  15.461  68.896  1.00  0.00    -0.251 C  
ATOM     27  SG  CYS C   1     -12.159  14.753  69.936  1.00  0.00    -0.332 SA 
ATOM     28  HG  CYS C   1     -13.031  15.632  70.566  1.00  0.00     0.000 H  
ENDBRANCH  10  26
TORSDOF 2
ENDMDL
MODEL       86
REMARK 921   NORMALIZED FREE ENERGY PREDICTED BY IDOCK:   -3.52 KCAL/MOL
REMARK 922        TOTAL FREE ENERGY PREDICTED BY IDOCK:   -3.36 KCAL/MOL
REMARK 923 INTER-LIGAND FREE ENERGY PREDICTED BY IDOCK:   -3.92 KCAL/MOL
REMARK 924 INTRA-LIGAND FREE ENERGY PREDICTED BY IDOCK:    0.57 KCAL/MOL
REMARK 927      BINDING AFFINITY PREDICTED BY RF-SCORE:    0.00 PKD
ROOT
HETATM    1 FE   UNL     1     -10.801  14.368  67.193  1.00  0.00    -0.262 Fe 
ATOM      2  N   GLY A   1      -7.163   7.938  69.968  1.00  0.00    -0.061 NA 
ATOM      3  CA  CYS B   1      -6.745  11.441  66.457  1.00  0.00    -0.070 C  
ATOM      4  CA  GLY A   1      -8.578   7.528  69.986  1.00  0.00    -0.139 C  
ATOM      5  H2  GLY A   1      -6.763   7.959  70.905  1.00  0.00     0.000 HD 
ATOM      6  H1  GLY A   1      -6.626   7.340  69.340  1.00  0.00     0.000 HD 
ATOM      7  OXT CYS C   1     -10.316   8.234  66.818  1.00  0.00    -0.310 OA 
ATOM      8  C   GLY A   1      -9.389   8.429  70.933  1.00  0.00    -0.166 C  
ATOM      9  C   CYS B   1      -7.039  12.432  67.635  1.00  0.00    -0.133 C  
ATOM     10  CA  CYS C   1     -10.428  10.451  67.689  1.00  0.00    -0.233 C  
ATOM     11  N   CYS B   1      -5.374  11.826  66.017  1.00  0.00    -0.473 NA 
ATOM     12  H2  CYS C   1      -9.100  11.019  69.255  1.00  0.00     0.000 HD 
ATOM     13  N   CYS C   1      -9.158  10.385  68.459  1.00  0.00    -0.139 NA 
ATOM     14  C   CYS C   1     -10.259   9.452  66.472  1.00  0.00    -0.238 C  
ATOM     15  H2  CYS B   1      -5.064  11.317  65.189  1.00  0.00     0.000 HD 
ATOM     16  H1  CYS B   1      -5.366  12.838  65.888  1.00  0.00     0.000 HD 
ATOM     17  O   CYS B   1      -6.688  13.720  67.260  1.00  0.00    -0.230 OA 
ATOM     18  O   CYS C   1      -9.911   9.982  65.373  1.00  0.00    -0.281 OA 
ATOM     19  OXT GLY A   1      -8.908   9.208  71.743  1.00  0.00    -0.341 OA 
ATOM     20  O   GLY A   1     -10.730   8.328  70.756  1.00  0.00    -0.211 OA 
ATOM     21  OXT CYS B   1      -7.482  12.342  68.778  1.00  0.00    -0.110 OA 
ATOM     22  H1  CYS C   1      -9.106   9.392  68.689  1.00  0.00     0.000 HD 
ENDROOT
BRANCH   3  23
ATOM     23  CB  CYS B   1      -6.757   9.910  66.653  1.00  0.00    -0.080 C  
ATOM     24  SG  CYS B   1      -5.712   8.979  65.448  1.00  0.00    -0.047 SA 
ATOM     25  HG  CYS B   1      -5.723   7.601  65.624  1.00  0.00     0.000 H  
ENDBRANCH   3  23
BRANCH  10  26
ATOM     26  CB  CYS C   1     -10.505  11.925  67.347  1.00  0.00    -0.217 C  
ATOM     27  SG  CYS C   1     -12.009  12.536  66.478  1.00  0.00    -0.184 SA 
ATOM     28  HG  CYS C   1     -12.079  13.888  66.164  1.00  0.00     0.000 H  
ENDBRANCH  10  26
TORSDOF 2
ENDMDL
MODEL       87
REMARK 921   NORMALIZED FREE ENERGY PREDICTED BY IDOCK:   -3.52 KCAL/MOL
REMARK 922        TOTAL FREE ENERGY PREDICTED BY IDOCK:   -3.35 KCAL/MOL
REMARK 923 INTER-LIGAND FREE ENERGY PREDICTED BY IDOCK:   -3.92 KCAL/MOL
REMARK 924 INTRA-LIGAND FREE ENERGY PREDICTED BY IDOCK:    0.56 KCAL/MOL
REMARK 927      BINDING AFFINITY PREDICTED BY RF-SCORE:    0.00 PKD
ROOT
HETATM    1 FE   UNL     1      -5.911  11.567  68.656  1.00  0.00    -0.045 Fe 
ATOM      2  N   GLY A   1     -12.148   7.021  70.303  1.00  0.00    -0.618 NA 
ATOM      3  CA  CYS B   1      -8.556   7.626  66.913  1.00  0.00    -0.123 C  
ATOM      4  CA  GLY A   1     -12.648   8.368  70.631  1.00  0.00     0.343 C  
ATOM      5  H2  GLY A   1     -12.120   6.418  71.125  1.00  0.00     0.000 HD 
ATOM      6  H1  GLY A   1     -12.697   6.609  69.549  1.00  0.00     0.000 HD 
ATOM      7  OXT CYS C   1     -11.992  10.827  67.970  1.00  0.00    -0.537 OA 
ATOM      8  C   GLY A   1     -11.821   8.989  71.768  1.00  0.00    -0.372 C  
ATOM      9  C   CYS B   1      -7.609   7.699  68.160  1.00  0.00    -0.114 C  
ATOM     10  CA  CYS C   1      -9.805  10.863  68.919  1.00  0.00    -0.192 C  
ATOM     11  N   CYS B   1      -8.074   6.418  66.185  1.00  0.00    -0.112 NA 
ATOM     12  H2  CYS C   1      -9.184   9.246  70.159  1.00  0.00     0.000 HD 
ATOM     13  N   CYS C   1      -9.805   9.448  69.375  1.00  0.00    -0.170 NA 
ATOM     14  C   CYS C   1     -10.767  10.921  67.662  1.00  0.00    -0.242 C  
ATOM     15  H2  CYS B   1      -8.546   6.279  65.291  1.00  0.00     0.000 HD 
ATOM     16  H1  CYS B   1      -7.061   6.499  66.091  1.00  0.00     0.000 HD 
ATOM     17  O   CYS B   1      -6.294   7.518  67.759  1.00  0.00    -0.049 OA 
ATOM     18  O   CYS C   1     -10.193  10.867  66.531  1.00  0.00    -0.217 OA 
ATOM     19  OXT GLY A   1     -11.029   8.381  72.473  1.00  0.00    -0.356 OA 
ATOM     20  O   GLY A   1     -12.004  10.327  71.899  1.00  0.00    -0.164 OA 
ATOM     21  OXT CYS B   1      -7.751   7.861  69.370  1.00  0.00    -0.100 OA 
ATOM     22  H1  CYS C   1     -10.796   9.287  69.553  1.00  0.00     0.000 HD 
ENDROOT
BRANCH   3  23
ATOM     23  CB  CYS B   1     -10.087   7.504  67.053  1.00  0.00    -0.261 C  
ATOM     24  SG  CYS B   1     -10.734   5.783  66.881  1.00  0.00    -0.259 SA 
ATOM     25  HG  CYS B   1     -12.113   5.673  67.008  1.00  0.00     0.000 H  
ENDBRANCH   3  23
BRANCH  10  26
ATOM     26  CB  CYS C   1      -8.333  11.102  68.655  1.00  0.00    -0.154 C  
ATOM     27  SG  CYS C   1      -7.831  12.727  67.949  1.00  0.00    -0.172 SA 
ATOM     28  HG  CYS C   1      -6.480  12.947  67.706  1.00  0.00     0.000 H  
ENDBRANCH  10  26
TORSDOF 2
ENDMDL
MODEL       88
REMARK 921   NORMALIZED FREE ENERGY PREDICTED BY IDOCK:   -3.51 KCAL/MOL
REMARK 922        TOTAL FREE ENERGY PREDICTED BY IDOCK:   -3.35 KCAL/MOL
REMARK 923 INTER-LIGAND FREE ENERGY PREDICTED BY IDOCK:   -3.99 KCAL/MOL
REMARK 924 INTRA-LIGAND FREE ENERGY PREDICTED BY IDOCK:    0.64 KCAL/MOL
REMARK 927      BINDING AFFINITY PREDICTED BY RF-SCORE:    0.00 PKD
ROOT
HETATM    1 FE   UNL     1      -5.842  15.157  68.076  1.00  0.00    -0.084 Fe 
ATOM      2  N   GLY A   1     -10.904  10.794  63.878  1.00  0.00    -0.382 NA 
ATOM      3  CA  CYS B   1     -10.697  13.760  67.869  1.00  0.00    -0.247 C  
ATOM      4  CA  GLY A   1      -9.718   9.922  63.940  1.00  0.00     0.115 C  
ATOM      5  H2  GLY A   1     -11.122  11.069  62.921  1.00  0.00     0.000 HD 
ATOM      6  H1  GLY A   1     -11.699  10.348  64.335  1.00  0.00     0.000 HD 
ATOM      7  OXT CYS C   1      -8.367   9.580  67.348  1.00  0.00    -0.123 OA 
ATOM      8  C   GLY A   1      -8.518  10.594  63.252  1.00  0.00    -0.119 C  
ATOM      9  C   CYS B   1      -9.911  14.723  66.915  1.00  0.00    -0.243 C  
ATOM     10  CA  CYS C   1      -7.398  11.708  66.884  1.00  0.00    -0.125 C  
ATOM     11  N   CYS B   1     -11.916  14.541  68.221  1.00  0.00    -0.518 NA 
ATOM     12  H2  CYS C   1      -8.200  12.893  65.305  1.00  0.00     0.000 HD 
ATOM     13  N   CYS C   1      -8.481  12.185  65.984  1.00  0.00    -0.350 NA 
ATOM     14  C   CYS C   1      -8.075  10.688  67.888  1.00  0.00    -0.111 C  
ATOM     15  H2  CYS B   1     -12.502  14.073  68.912  1.00  0.00     0.000 HD 
ATOM     16  H1  CYS B   1     -11.612  15.468  68.519  1.00  0.00     0.000 HD 
ATOM     17  O   CYS B   1      -9.874  15.997  67.464  1.00  0.00    -0.231 OA 
ATOM     18  O   CYS C   1      -8.399  11.166  69.019  1.00  0.00    -0.134 OA 
ATOM     19  OXT GLY A   1      -8.582  11.585  62.539  1.00  0.00    -0.265 OA 
ATOM     20  O   GLY A   1      -7.330  10.010  63.550  1.00  0.00    -0.133 OA 
ATOM     21  OXT CYS B   1      -9.348  14.627  65.827  1.00  0.00    -0.215 OA 
ATOM     22  H1  CYS C   1      -8.819  11.309  65.584  1.00  0.00     0.000 HD 
ENDROOT
BRANCH   3  23
ATOM     23  CB  CYS B   1     -11.157  12.358  67.418  1.00  0.00    -0.272 C  
ATOM     24  SG  CYS B   1     -11.694  11.251  68.797  1.00  0.00    -0.335 SA 
ATOM     25  HG  CYS B   1     -12.109   9.989  68.390  1.00  0.00     0.000 H  
ENDBRANCH   3  23
BRANCH  10  26
ATOM     26  CB  CYS C   1      -6.896  13.008  67.478  1.00  0.00    -0.151 C  
ATOM     27  SG  CYS C   1      -5.406  12.950  68.559  1.00  0.00    -0.066 SA 
ATOM     28  HG  CYS C   1      -4.946  14.143  69.104  1.00  0.00     0.000 H  
ENDBRANCH  10  26
TORSDOF 2
ENDMDL
MODEL       89
REMARK 921   NORMALIZED FREE ENERGY PREDICTED BY IDOCK:   -3.51 KCAL/MOL
REMARK 922        TOTAL FREE ENERGY PREDICTED BY IDOCK:   -3.34 KCAL/MOL
REMARK 923 INTER-LIGAND FREE ENERGY PREDICTED BY IDOCK:   -3.92 KCAL/MOL
REMARK 924 INTRA-LIGAND FREE ENERGY PREDICTED BY IDOCK:    0.58 KCAL/MOL
REMARK 927      BINDING AFFINITY PREDICTED BY RF-SCORE:    0.00 PKD
ROOT
HETATM    1 FE   UNL     1      -7.436  12.093  69.898  1.00  0.00    -0.328 Fe 
ATOM      2  N   GLY A   1     -11.964   6.215  72.585  1.00  0.00    -0.528 NA 
ATOM      3  CA  CYS B   1      -7.285   7.214  71.218  1.00  0.00    -0.074 C  
ATOM      4  CA  GLY A   1     -12.839   6.850  71.585  1.00  0.00    -0.335 C  
ATOM      5  H2  GLY A   1     -12.355   6.278  73.524  1.00  0.00     0.000 HD 
ATOM      6  H1  GLY A   1     -11.763   5.250  72.323  1.00  0.00     0.000 HD 
ATOM      7  OXT CYS C   1     -11.153   7.421  68.362  1.00  0.00     0.011 OA 
ATOM      8  C   GLY A   1     -13.143   8.304  71.980  1.00  0.00    -0.327 C  
ATOM      9  C   CYS B   1      -7.454   8.474  72.134  1.00  0.00    -0.071 C  
ATOM     10  CA  CYS C   1     -10.232   9.309  69.489  1.00  0.00    -0.207 C  
ATOM     11  N   CYS B   1      -6.188   6.452  71.880  1.00  0.00    -0.041 NA 
ATOM     12  H2  CYS C   1     -10.251   9.358  71.619  1.00  0.00     0.000 HD 
ATOM     13  N   CYS C   1     -10.218   8.696  70.843  1.00  0.00    -0.198 NA 
ATOM     14  C   CYS C   1     -10.096   8.112  68.461  1.00  0.00    -0.200 C  
ATOM     15  H2  CYS B   1      -5.899   5.630  71.349  1.00  0.00     0.000 HD 
ATOM     16  H1  CYS B   1      -5.421   7.103  72.051  1.00  0.00     0.000 HD 
ATOM     17  O   CYS B   1      -6.209   9.015  72.421  1.00  0.00    -0.205 OA 
ATOM     18  O   CYS C   1      -8.923   7.893  68.027  1.00  0.00    -0.128 OA 
ATOM     19  OXT GLY A   1     -12.911   8.798  73.074  1.00  0.00    -0.272 OA 
ATOM     20  O   GLY A   1     -13.660   9.042  70.965  1.00  0.00    -0.158 OA 
ATOM     21  OXT CYS B   1      -8.395   9.072  72.653  1.00  0.00    -0.319 OA 
ATOM     22  H1  CYS C   1     -11.008   8.053  70.788  1.00  0.00     0.000 HD 
ENDROOT
BRANCH   3  23
ATOM     23  CB  CYS B   1      -8.444   6.229  70.958  1.00  0.00    -0.128 C  
ATOM     24  SG  CYS B   1      -7.975   4.448  71.096  1.00  0.00    -0.082 SA 
ATOM     25  HG  CYS B   1      -9.019   3.561  70.863  1.00  0.00     0.000 H  
ENDBRANCH   3  23
BRANCH  10  26
ATOM     26  CB  CYS C   1      -9.059  10.265  69.571  1.00  0.00    -0.167 C  
ATOM     27  SG  CYS C   1      -8.714  11.341  68.118  1.00  0.00    -0.161 SA 
ATOM     28  HG  CYS C   1      -7.638  12.218  68.193  1.00  0.00     0.000 H  
ENDBRANCH  10  26
TORSDOF 2
ENDMDL
MODEL       90
REMARK 921   NORMALIZED FREE ENERGY PREDICTED BY IDOCK:   -3.49 KCAL/MOL
REMARK 922        TOTAL FREE ENERGY PREDICTED BY IDOCK:   -3.32 KCAL/MOL
REMARK 923 INTER-LIGAND FREE ENERGY PREDICTED BY IDOCK:   -4.00 KCAL/MOL
REMARK 924 INTRA-LIGAND FREE ENERGY PREDICTED BY IDOCK:    0.68 KCAL/MOL
REMARK 927      BINDING AFFINITY PREDICTED BY RF-SCORE:    0.00 PKD
ROOT
HETATM    1 FE   UNL     1     -12.079  13.054  64.546  1.00  0.00    -0.326 Fe 
ATOM      2  N   GLY A   1      -8.343   9.711  70.641  1.00  0.00    -0.335 NA 
ATOM      3  CA  CYS B   1      -7.919  13.457  67.392  1.00  0.00    -0.163 C  
ATOM      4  CA  GLY A   1      -8.800   8.539  69.875  1.00  0.00    -0.137 C  
ATOM      5  H2  GLY A   1      -8.770   9.748  71.567  1.00  0.00     0.000 HD 
ATOM      6  H1  GLY A   1      -7.325   9.731  70.693  1.00  0.00     0.000 HD 
ATOM      7  OXT CYS C   1      -8.000   8.773  66.289  1.00  0.00    -0.103 OA 
ATOM      8  C   GLY A   1     -10.335   8.510  69.797  1.00  0.00    -0.212 C  
ATOM      9  C   CYS B   1      -9.408  13.754  67.782  1.00  0.00    -0.213 C  
ATOM     10  CA  CYS C   1      -9.920  10.184  66.231  1.00  0.00    -0.242 C  
ATOM     11  N   CYS B   1      -7.196  14.683  67.833  1.00  0.00    -0.141 NA 
ATOM     12  H2  CYS C   1     -10.628  11.050  68.045  1.00  0.00     0.000 HD 
ATOM     13  N   CYS C   1      -9.766  10.721  67.609  1.00  0.00    -0.164 NA 
ATOM     14  C   CYS C   1      -8.463   9.815  65.735  1.00  0.00    -0.133 C  
ATOM     15  H2  CYS B   1      -6.210  14.679  67.572  1.00  0.00     0.000 HD 
ATOM     16  H1  CYS B   1      -7.702  15.488  67.463  1.00  0.00     0.000 HD 
ATOM     17  O   CYS B   1      -9.751  15.035  67.374  1.00  0.00    -0.214 OA 
ATOM     18  O   CYS C   1      -7.891  10.688  65.013  1.00  0.00    -0.100 OA 
ATOM     19  OXT GLY A   1     -11.086   9.202  70.470  1.00  0.00    -0.242 OA 
ATOM     20  O   GLY A   1     -10.810   7.663  68.849  1.00  0.00    -0.146 OA 
ATOM     21  OXT CYS B   1     -10.311  13.147  68.354  1.00  0.00    -0.245 OA 
ATOM     22  H1  CYS C   1      -9.308   9.943  68.084  1.00  0.00     0.000 HD 
ENDROOT
BRANCH   3  23
ATOM     23  CB  CYS B   1      -7.154  12.240  67.952  1.00  0.00    -0.105 C  
ATOM     24  SG  CYS B   1      -5.462  12.012  67.245  1.00  0.00    -0.124 SA 
ATOM     25  HG  CYS B   1      -4.773  10.916  67.749  1.00  0.00     0.000 H  
ENDBRANCH   3  23
BRANCH  10  26
ATOM     26  CB  CYS C   1     -10.601  11.339  65.525  1.00  0.00    -0.246 C  
ATOM     27  SG  CYS C   1     -10.578  11.364  63.684  1.00  0.00    -0.410 SA 
ATOM     28  HG  CYS C   1     -11.203  12.423  63.036  1.00  0.00     0.000 H  
ENDBRANCH  10  26
TORSDOF 2
ENDMDL
MODEL       91
REMARK 921   NORMALIZED FREE ENERGY PREDICTED BY IDOCK:   -3.48 KCAL/MOL
REMARK 922        TOTAL FREE ENERGY PREDICTED BY IDOCK:   -3.31 KCAL/MOL
REMARK 923 INTER-LIGAND FREE ENERGY PREDICTED BY IDOCK:   -4.07 KCAL/MOL
REMARK 924 INTRA-LIGAND FREE ENERGY PREDICTED BY IDOCK:    0.75 KCAL/MOL
REMARK 927      BINDING AFFINITY PREDICTED BY RF-SCORE:    0.00 PKD
ROOT
HETATM    1 FE   UNL     1     -10.703  13.412  63.564  1.00  0.00    -0.450 Fe 
ATOM      2  N   GLY A   1     -11.304  16.340  70.869  1.00  0.00    -0.466 NA 
ATOM      3  CA  CYS B   1      -9.362  17.375  66.404  1.00  0.00    -0.252 C  
ATOM      4  CA  GLY A   1     -11.032  14.915  71.125  1.00  0.00     0.050 C  
ATOM      5  H2  GLY A   1     -12.220  16.619  71.218  1.00  0.00     0.000 HD 
ATOM      6  H1  GLY A   1     -10.558  16.921  71.252  1.00  0.00     0.000 HD 
ATOM      7  OXT CYS C   1      -8.180  13.628  69.185  1.00  0.00     0.158 OA 
ATOM      8  C   GLY A   1     -12.155  14.039  70.547  1.00  0.00    -0.353 C  
ATOM      9  C   CYS B   1     -10.784  16.985  65.872  1.00  0.00    -0.139 C  
ATOM     10  CA  CYS C   1      -9.779  13.520  67.420  1.00  0.00    -0.229 C  
ATOM     11  N   CYS B   1      -9.231  18.808  66.017  1.00  0.00    -0.469 NA 
ATOM     12  H2  CYS C   1     -11.569  14.667  67.570  1.00  0.00     0.000 HD 
ATOM     13  N   CYS C   1     -10.595  14.678  67.872  1.00  0.00    -0.242 NA 
ATOM     14  C   CYS C   1      -8.306  13.790  67.935  1.00  0.00    -0.172 C  
ATOM     15  H2  CYS B   1      -8.309  19.193  66.227  1.00  0.00     0.000 HD 
ATOM     16  H1  CYS B   1      -9.478  18.884  65.030  1.00  0.00     0.000 HD 
ATOM     17  O   CYS B   1     -10.939  17.446  64.573  1.00  0.00    -0.850 OA 
ATOM     18  O   CYS C   1      -7.514  14.301  67.084  1.00  0.00    -0.117 OA 
ATOM     19  OXT GLY A   1     -13.236  14.452  70.154  1.00  0.00    -0.024 OA 
ATOM     20  O   GLY A   1     -11.821  12.727  70.454  1.00  0.00    -0.288 OA 
ATOM     21  OXT CYS B   1     -11.767  16.397  66.319  1.00  0.00     0.790 OA 
ATOM     22  H1  CYS C   1     -10.453  14.650  68.882  1.00  0.00     0.000 HD 
ENDROOT
BRANCH   3  23
ATOM     23  CB  CYS B   1      -8.987  17.260  67.897  1.00  0.00    -0.235 C  
ATOM     24  SG  CYS B   1      -7.236  17.704  68.279  1.00  0.00    -0.236 SA 
ATOM     25  HG  CYS B   1      -6.898  17.601  69.623  1.00  0.00     0.000 H  
ENDBRANCH   3  23
BRANCH  10  26
ATOM     26  CB  CYS C   1      -9.989  13.562  65.921  1.00  0.00    -0.283 C  
ATOM     27  SG  CYS C   1     -10.087  11.962  65.014  1.00  0.00    -0.260 SA 
ATOM     28  HG  CYS C   1     -10.280  12.000  63.638  1.00  0.00     0.000 H  
ENDBRANCH  10  26
TORSDOF 2
ENDMDL
MODEL       92
REMARK 921   NORMALIZED FREE ENERGY PREDICTED BY IDOCK:   -3.43 KCAL/MOL
REMARK 922        TOTAL FREE ENERGY PREDICTED BY IDOCK:   -3.26 KCAL/MOL
REMARK 923 INTER-LIGAND FREE ENERGY PREDICTED BY IDOCK:   -3.82 KCAL/MOL
REMARK 924 INTRA-LIGAND FREE ENERGY PREDICTED BY IDOCK:    0.56 KCAL/MOL
REMARK 927      BINDING AFFINITY PREDICTED BY RF-SCORE:    0.00 PKD
ROOT
HETATM    1 FE   UNL     1      -9.654  16.382  67.388  1.00  0.00    -0.213 Fe 
ATOM      2  N   GLY A   1     -10.099   8.661  65.812  1.00  0.00    -0.295 NA 
ATOM      3  CA  CYS B   1     -10.827  11.935  69.489  1.00  0.00     0.050 C  
ATOM      4  CA  GLY A   1      -8.837   9.041  65.155  1.00  0.00    -0.182 C  
ATOM      5  H2  GLY A   1     -10.791   8.331  65.140  1.00  0.00     0.000 HD 
ATOM      6  H1  GLY A   1      -9.927   7.976  66.547  1.00  0.00     0.000 HD 
ATOM      7  OXT CYS C   1      -6.622  11.014  67.336  1.00  0.00    -0.062 OA 
ATOM      8  C   GLY A   1      -9.096  10.075  64.046  1.00  0.00    -0.257 C  
ATOM      9  C   CYS B   1     -11.612  12.744  68.400  1.00  0.00    -0.325 C  
ATOM     10  CA  CYS C   1      -8.065  12.809  66.719  1.00  0.00     0.117 C  
ATOM     11  N   CYS B   1     -11.872  11.621  70.505  1.00  0.00    -0.488 NA 
ATOM     12  H2  CYS C   1      -9.993  12.366  65.929  1.00  0.00     0.000 HD 
ATOM     13  N   CYS C   1      -9.290  11.982  66.560  1.00  0.00    -0.219 NA 
ATOM     14  C   CYS C   1      -7.166  12.064  67.790  1.00  0.00    -0.108 C  
ATOM     15  H2  CYS B   1     -11.495  11.158  71.332  1.00  0.00     0.000 HD 
ATOM     16  H1  CYS B   1     -12.359  12.490  70.723  1.00  0.00     0.000 HD 
ATOM     17  O   CYS B   1     -12.402  13.707  69.012  1.00  0.00    -0.280 OA 
ATOM     18  O   CYS C   1      -7.257  12.499  68.979  1.00  0.00    -0.084 OA 
ATOM     19  OXT GLY A   1     -10.196  10.361  63.596  1.00  0.00    -0.179 OA 
ATOM     20  O   GLY A   1      -7.972  10.707  63.625  1.00  0.00    -0.076 OA 
ATOM     21  OXT CYS B   1     -11.702  12.722  67.174  1.00  0.00    -0.348 OA 
ATOM     22  H1  CYS C   1      -8.899  11.083  66.279  1.00  0.00     0.000 HD 
ENDROOT
BRANCH   3  23
ATOM     23  CB  CYS B   1     -10.090  10.620  69.159  1.00  0.00    -0.216 C  
ATOM     24  SG  CYS B   1     -10.812   9.120  69.959  1.00  0.00    -0.225 SA 
ATOM     25  HG  CYS B   1     -10.148   7.936  69.661  1.00  0.00     0.000 H  
ENDBRANCH   3  23
BRANCH  10  26
ATOM     26  CB  CYS C   1      -8.647  14.144  67.138  1.00  0.00    -0.214 C  
ATOM     27  SG  CYS C   1      -7.500  15.576  67.303  1.00  0.00    -0.215 SA 
ATOM     28  HG  CYS C   1      -8.033  16.800  67.686  1.00  0.00     0.000 H  
ENDBRANCH  10  26
TORSDOF 2
ENDMDL
MODEL       93
REMARK 921   NORMALIZED FREE ENERGY PREDICTED BY IDOCK:   -3.43 KCAL/MOL
REMARK 922        TOTAL FREE ENERGY PREDICTED BY IDOCK:   -3.25 KCAL/MOL
REMARK 923 INTER-LIGAND FREE ENERGY PREDICTED BY IDOCK:   -3.83 KCAL/MOL
REMARK 924 INTRA-LIGAND FREE ENERGY PREDICTED BY IDOCK:    0.57 KCAL/MOL
REMARK 927      BINDING AFFINITY PREDICTED BY RF-SCORE:    0.00 PKD
ROOT
HETATM    1 FE   UNL     1     -11.052  11.393  63.579  1.00  0.00    -0.306 Fe 
ATOM      2  N   GLY A   1      -8.350   5.426  67.981  1.00  0.00    -0.099 NA 
ATOM      3  CA  CYS B   1      -9.275  10.311  68.188  1.00  0.00    -0.136 C  
ATOM      4  CA  GLY A   1      -7.699   5.176  66.684  1.00  0.00    -0.092 C  
ATOM      5  H2  GLY A   1      -8.985   4.670  68.237  1.00  0.00     0.000 HD 
ATOM      6  H1  GLY A   1      -7.652   5.596  68.705  1.00  0.00     0.000 HD 
ATOM      7  OXT CYS C   1      -6.080   8.175  65.291  1.00  0.00    -0.044 OA 
ATOM      8  C   GLY A   1      -8.751   4.919  65.592  1.00  0.00    -0.135 C  
ATOM      9  C   CYS B   1     -10.651   9.917  67.548  1.00  0.00    -0.275 C  
ATOM     10  CA  CYS C   1      -8.302   8.736  64.634  1.00  0.00    -0.166 C  
ATOM     11  N   CYS B   1      -9.661  10.892  69.505  1.00  0.00    -0.431 NA 
ATOM     12  H2  CYS C   1      -9.943   7.780  65.599  1.00  0.00     0.000 HD 
ATOM     13  N   CYS C   1      -8.980   8.068  65.775  1.00  0.00    -0.322 NA 
ATOM     14  C   CYS C   1      -6.868   9.158  65.158  1.00  0.00    -0.077 C  
ATOM     15  H2  CYS B   1      -8.868  11.277  70.018  1.00  0.00     0.000 HD 
ATOM     16  H1  CYS B   1     -10.396  11.579  69.335  1.00  0.00     0.000 HD 
ATOM     17  O   CYS B   1     -11.550  10.964  67.692  1.00  0.00    -0.531 OA 
ATOM     18  O   CYS C   1      -6.759  10.362  65.544  1.00  0.00    -0.122 OA 
ATOM     19  OXT GLY A   1      -9.937   4.703  65.797  1.00  0.00    -0.195 OA 
ATOM     20  O   GLY A   1      -8.253   5.007  64.333  1.00  0.00    -0.114 OA 
ATOM     21  OXT CYS B   1     -11.112   8.930  66.979  1.00  0.00     0.065 OA 
ATOM     22  H1  CYS C   1      -8.332   7.309  65.987  1.00  0.00     0.000 HD 
ENDROOT
BRANCH   3  23
ATOM     23  CB  CYS B   1      -8.165   9.272  68.446  1.00  0.00    -0.115 C  
ATOM     24  SG  CYS B   1      -8.266   8.441  70.093  1.00  0.00    -0.122 SA 
ATOM     25  HG  CYS B   1      -7.266   7.504  70.325  1.00  0.00     0.000 H  
ENDBRANCH   3  23
BRANCH  10  26
ATOM     26  CB  CYS C   1      -9.265   9.863  64.320  1.00  0.00    -0.265 C  
ATOM     27  SG  CYS C   1      -9.056  10.764  62.727  1.00  0.00    -0.344 SA 
ATOM     28  HG  CYS C   1      -9.939  11.797  62.439  1.00  0.00     0.000 H  
ENDBRANCH  10  26
TORSDOF 2
ENDMDL
MODEL       94
REMARK 921   NORMALIZED FREE ENERGY PREDICTED BY IDOCK:   -3.42 KCAL/MOL
REMARK 922        TOTAL FREE ENERGY PREDICTED BY IDOCK:   -3.24 KCAL/MOL
REMARK 923 INTER-LIGAND FREE ENERGY PREDICTED BY IDOCK:   -3.79 KCAL/MOL
REMARK 924 INTRA-LIGAND FREE ENERGY PREDICTED BY IDOCK:    0.55 KCAL/MOL
REMARK 927      BINDING AFFINITY PREDICTED BY RF-SCORE:    0.00 PKD
ROOT
HETATM    1 FE   UNL     1     -10.593  10.267  70.130  1.00  0.00    -0.200 Fe 
ATOM      2  N   GLY A   1      -9.759   2.845  67.582  1.00  0.00    -0.301 NA 
ATOM      3  CA  CYS B   1     -10.181   5.502  71.769  1.00  0.00    -0.202 C  
ATOM      4  CA  GLY A   1      -8.828   3.580  66.710  1.00  0.00    -0.134 C  
ATOM      5  H2  GLY A   1     -10.515   2.414  67.051  1.00  0.00     0.000 HD 
ATOM      6  H1  GLY A   1      -9.256   2.161  68.147  1.00  0.00     0.000 HD 
ATOM      7  OXT CYS C   1      -6.597   5.838  68.574  1.00  0.00    -0.047 OA 
ATOM      8  C   GLY A   1      -9.587   4.611  65.858  1.00  0.00    -0.185 C  
ATOM      9  C   CYS B   1     -11.381   6.185  71.027  1.00  0.00    -0.282 C  
ATOM     10  CA  CYS C   1      -8.504   7.269  68.587  1.00  0.00    -0.129 C  
ATOM     11  N   CYS B   1     -10.828   4.852  72.944  1.00  0.00    -0.232 NA 
ATOM     12  H2  CYS C   1     -10.429   6.436  68.216  1.00  0.00     0.000 HD 
ATOM     13  N   CYS C   1      -9.519   6.183  68.600  1.00  0.00    -0.124 NA 
ATOM     14  C   CYS C   1      -7.216   6.678  69.294  1.00  0.00    -0.090 C  
ATOM     15  H2  CYS B   1     -10.156   4.426  73.582  1.00  0.00     0.000 HD 
ATOM     16  H1  CYS B   1     -11.417   5.552  73.397  1.00  0.00     0.000 HD 
ATOM     17  O   CYS B   1     -12.170   6.866  71.942  1.00  0.00    -0.322 OA 
ATOM     18  O   CYS C   1      -7.081   6.971  70.521  1.00  0.00    -0.061 OA 
ATOM     19  OXT GLY A   1     -10.802   4.656  65.727  1.00  0.00    -0.293 OA 
ATOM     20  O   GLY A   1      -8.777   5.535  65.283  1.00  0.00    -0.153 OA 
ATOM     21  OXT CYS B   1     -11.784   6.250  69.867  1.00  0.00    -0.408 OA 
ATOM     22  H1  CYS C   1      -9.031   5.437  68.105  1.00  0.00     0.000 HD 
ENDROOT
BRANCH   3  23
ATOM     23  CB  CYS B   1      -9.291   4.444  71.085  1.00  0.00    -0.148 C  
ATOM     24  SG  CYS B   1      -9.631   2.706  71.611  1.00  0.00    -0.152 SA 
ATOM     25  HG  CYS B   1      -8.829   1.753  70.994  1.00  0.00     0.000 H  
ENDBRANCH   3  23
BRANCH  10  26
ATOM     26  CB  CYS C   1      -9.228   8.378  69.322  1.00  0.00    -0.154 C  
ATOM     27  SG  CYS C   1      -8.363   9.990  69.532  1.00  0.00    -0.173 SA 
ATOM     28  HG  CYS C   1      -9.028  11.007  70.206  1.00  0.00     0.000 H  
ENDBRANCH  10  26
TORSDOF 2
ENDMDL
MODEL       95
REMARK 921   NORMALIZED FREE ENERGY PREDICTED BY IDOCK:   -3.40 KCAL/MOL
REMARK 922        TOTAL FREE ENERGY PREDICTED BY IDOCK:   -3.22 KCAL/MOL
REMARK 923 INTER-LIGAND FREE ENERGY PREDICTED BY IDOCK:   -3.80 KCAL/MOL
REMARK 924 INTRA-LIGAND FREE ENERGY PREDICTED BY IDOCK:    0.58 KCAL/MOL
REMARK 927      BINDING AFFINITY PREDICTED BY RF-SCORE:    0.00 PKD
ROOT
HETATM    1 FE   UNL     1      -9.880   7.162  65.372  1.00  0.00    -0.388 Fe 
ATOM      2  N   GLY A   1      -9.713   8.252  73.186  1.00  0.00    -0.220 NA 
ATOM      3  CA  CYS B   1      -6.715   7.392  69.308  1.00  0.00    -0.041 C  
ATOM      4  CA  GLY A   1     -10.879   7.369  73.020  1.00  0.00    -0.375 C  
ATOM      5  H2  GLY A   1      -9.977   9.160  73.567  1.00  0.00     0.000 HD 
ATOM      6  H1  GLY A   1      -8.998   7.797  73.753  1.00  0.00     0.000 HD 
ATOM      7  OXT CYS C   1     -10.172   4.445  70.897  1.00  0.00    -0.164 OA 
ATOM      8  C   GLY A   1     -11.958   8.054  72.165  1.00  0.00    -0.348 C  
ATOM      9  C   CYS B   1      -7.523   8.551  68.629  1.00  0.00    -0.093 C  
ATOM     10  CA  CYS C   1     -10.470   6.005  69.120  1.00  0.00    -0.257 C  
ATOM     11  N   CYS B   1      -5.326   7.930  69.368  1.00  0.00    -0.026 NA 
ATOM     12  H2  CYS C   1     -10.323   8.090  69.532  1.00  0.00     0.000 HD 
ATOM     13  N   CYS C   1      -9.970   7.192  69.862  1.00  0.00    -0.180 NA 
ATOM     14  C   CYS C   1      -9.736   4.750  69.747  1.00  0.00    -0.202 C  
ATOM     15  H2  CYS B   1      -4.651   7.250  69.717  1.00  0.00     0.000 HD 
ATOM     16  H1  CYS B   1      -5.092   8.281  68.439  1.00  0.00     0.000 HD 
ATOM     17  O   CYS B   1      -6.832   9.016  67.520  1.00  0.00    -0.075 OA 
ATOM     18  O   CYS C   1      -8.712   4.343  69.118  1.00  0.00    -0.081 OA 
ATOM     19  OXT GLY A   1     -11.971   9.241  71.870  1.00  0.00    -0.362 OA 
ATOM     20  O   GLY A   1     -12.902   7.198  71.700  1.00  0.00    -0.361 OA 
ATOM     21  OXT CYS B   1      -8.583   9.135  68.844  1.00  0.00    -0.127 OA 
ATOM     22  H1  CYS C   1     -10.217   6.954  70.823  1.00  0.00     0.000 HD 
ENDROOT
BRANCH   3  23
ATOM     23  CB  CYS B   1      -7.069   6.862  70.713  1.00  0.00    -0.068 C  
ATOM     24  SG  CYS B   1      -5.639   6.149  71.641  1.00  0.00    -0.027 SA 
ATOM     25  HG  CYS B   1      -5.958   5.672  72.906  1.00  0.00     0.000 H  
ENDBRANCH   3  23
BRANCH  10  26
ATOM     26  CB  CYS C   1     -10.104   6.357  67.692  1.00  0.00    -0.151 C  
ATOM     27  SG  CYS C   1     -10.516   5.147  66.367  1.00  0.00    -0.258 SA 
ATOM     28  HG  CYS C   1     -10.179   5.470  65.058  1.00  0.00     0.000 H  
ENDBRANCH  10  26
TORSDOF 2
ENDMDL
MODEL       96
REMARK 921   NORMALIZED FREE ENERGY PREDICTED BY IDOCK:   -3.38 KCAL/MOL
REMARK 922        TOTAL FREE ENERGY PREDICTED BY IDOCK:   -3.20 KCAL/MOL
REMARK 923 INTER-LIGAND FREE ENERGY PREDICTED BY IDOCK:   -3.72 KCAL/MOL
REMARK 924 INTRA-LIGAND FREE ENERGY PREDICTED BY IDOCK:    0.52 KCAL/MOL
REMARK 927      BINDING AFFINITY PREDICTED BY RF-SCORE:    0.00 PKD
ROOT
HETATM    1 FE   UNL     1      -8.228   2.686  70.940  1.00  0.00    -0.048 Fe 
ATOM      2  N   GLY A   1      -7.989  10.528  70.084  1.00  0.00    -0.384 NA 
ATOM      3  CA  CYS B   1     -10.282   6.962  72.690  1.00  0.00    -0.188 C  
ATOM      4  CA  GLY A   1      -7.936  10.060  68.688  1.00  0.00    -0.097 C  
ATOM      5  H2  GLY A   1      -7.142  11.031  70.347  1.00  0.00     0.000 HD 
ATOM      6  H1  GLY A   1      -8.827  11.088  70.242  1.00  0.00     0.000 HD 
ATOM      7  OXT CYS C   1     -10.516   7.549  67.919  1.00  0.00    -0.203 OA 
ATOM      8  C   GLY A   1      -6.673   9.216  68.449  1.00  0.00    -0.059 C  
ATOM      9  C   CYS B   1      -8.832   6.409  72.907  1.00  0.00    -0.123 C  
ATOM     10  CA  CYS C   1      -9.001   6.059  69.001  1.00  0.00    -0.124 C  
ATOM     11  N   CYS B   1     -10.736   7.291  74.071  1.00  0.00    -0.572 NA 
ATOM     12  H2  CYS C   1      -7.498   6.858  70.283  1.00  0.00     0.000 HD 
ATOM     13  N   CYS C   1      -8.439   7.061  69.945  1.00  0.00    -0.139 NA 
ATOM     14  C   CYS C   1     -10.476   6.536  68.679  1.00  0.00    -0.218 C  
ATOM     15  H2  CYS B   1     -11.710   7.593  74.108  1.00  0.00     0.000 HD 
ATOM     16  H1  CYS B   1     -10.550   6.477  74.658  1.00  0.00     0.000 HD 
ATOM     17  O   CYS B   1      -8.831   5.496  73.953  1.00  0.00    -0.121 OA 
ATOM     18  O   CYS C   1     -11.393   5.976  69.355  1.00  0.00    -0.398 OA 
ATOM     19  OXT GLY A   1      -5.723   9.142  69.216  1.00  0.00    -0.035 OA 
ATOM     20  O   GLY A   1      -6.719   8.490  67.304  1.00  0.00    -0.061 OA 
ATOM     21  OXT CYS B   1      -7.729   6.592  72.398  1.00  0.00    -0.095 OA 
ATOM     22  H1  CYS C   1      -8.531   7.925  69.410  1.00  0.00     0.000 HD 
ENDROOT
BRANCH   3  23
ATOM     23  CB  CYS B   1     -10.564   8.192  71.803  1.00  0.00    -0.250 C  
ATOM     24  SG  CYS B   1     -12.319   8.770  71.836  1.00  0.00    -0.391 SA 
ATOM     25  HG  CYS B   1     -12.573   9.878  71.037  1.00  0.00     0.000 H  
ENDBRANCH   3  23
BRANCH  10  26
ATOM     26  CB  CYS C   1      -8.864   4.776  69.795  1.00  0.00    -0.093 C  
ATOM     27  SG  CYS C   1      -9.311   3.193  68.969  1.00  0.00    -0.122 SA 
ATOM     28  HG  CYS C   1      -9.185   2.016  69.697  1.00  0.00     0.000 H  
ENDBRANCH  10  26
TORSDOF 2
ENDMDL
MODEL       97
REMARK 921   NORMALIZED FREE ENERGY PREDICTED BY IDOCK:   -3.36 KCAL/MOL
REMARK 922        TOTAL FREE ENERGY PREDICTED BY IDOCK:   -3.17 KCAL/MOL
REMARK 923 INTER-LIGAND FREE ENERGY PREDICTED BY IDOCK:   -3.71 KCAL/MOL
REMARK 924 INTRA-LIGAND FREE ENERGY PREDICTED BY IDOCK:    0.54 KCAL/MOL
REMARK 927      BINDING AFFINITY PREDICTED BY RF-SCORE:    0.00 PKD
ROOT
HETATM    1 FE   UNL     1      -7.285   6.798  64.538  1.00  0.00    -0.051 Fe 
ATOM      2  N   GLY A   1     -10.890  10.118  70.724  1.00  0.00    -0.383 NA 
ATOM      3  CA  CYS B   1      -8.886  11.254  66.312  1.00  0.00    -0.191 C  
ATOM      4  CA  GLY A   1      -9.969   9.169  71.372  1.00  0.00    -0.303 C  
ATOM      5  H2  GLY A   1     -11.865   9.888  70.913  1.00  0.00     0.000 HD 
ATOM      6  H1  GLY A   1     -10.667  11.075  70.995  1.00  0.00     0.000 HD 
ATOM      7  OXT CYS C   1      -6.530   9.398  70.076  1.00  0.00    -0.048 OA 
ATOM      8  C   GLY A   1     -10.304   7.725  70.963  1.00  0.00    -0.202 C  
ATOM      9  C   CYS B   1      -9.734  10.042  65.793  1.00  0.00    -0.257 C  
ATOM     10  CA  CYS C   1      -7.409   8.093  68.285  1.00  0.00    -0.095 C  
ATOM     11  N   CYS B   1      -9.453  12.414  65.568  1.00  0.00    -0.439 NA 
ATOM     12  H2  CYS C   1      -9.517   8.033  67.981  1.00  0.00     0.000 HD 
ATOM     13  N   CYS C   1      -8.788   8.646  68.345  1.00  0.00    -0.142 NA 
ATOM     14  C   CYS C   1      -6.452   9.234  68.822  1.00  0.00    -0.048 C  
ATOM     15  H2  CYS B   1      -8.945  13.282  65.738  1.00  0.00     0.000 HD 
ATOM     16  H1  CYS B   1      -9.485  12.160  64.580  1.00  0.00     0.000 HD 
ATOM     17  O   CYS B   1      -9.827  10.094  64.410  1.00  0.00    -0.322 OA 
ATOM     18  O   CYS C   1      -5.889   9.942  67.931  1.00  0.00    -0.040 OA 
ATOM     19  OXT GLY A   1     -11.327   7.378  70.390  1.00  0.00    -0.276 OA 
ATOM     20  O   GLY A   1      -9.317   6.841  71.250  1.00  0.00    -0.164 OA 
ATOM     21  OXT CYS B   1     -10.327   9.093  66.303  1.00  0.00    -0.244 OA 
ATOM     22  H1  CYS C   1      -8.873   8.883  69.334  1.00  0.00     0.000 HD 
ENDROOT
BRANCH   3  23
ATOM     23  CB  CYS B   1      -8.838  11.639  67.805  1.00  0.00    -0.159 C  
ATOM     24  SG  CYS B   1     -10.104  12.884  68.313  1.00  0.00    -0.235 SA 
ATOM     25  HG  CYS B   1     -10.060  13.231  69.658  1.00  0.00     0.000 H  
ENDBRANCH   3  23
BRANCH  10  26
ATOM     26  CB  CYS C   1      -7.282   7.741  66.817  1.00  0.00    -0.088 C  
ATOM     27  SG  CYS C   1      -5.807   6.779  66.280  1.00  0.00    -0.026 SA 
ATOM     28  HG  CYS C   1      -5.690   6.457  64.933  1.00  0.00     0.000 H  
ENDBRANCH  10  26
TORSDOF 2
ENDMDL
MODEL       98
REMARK 921   NORMALIZED FREE ENERGY PREDICTED BY IDOCK:   -3.31 KCAL/MOL
REMARK 922        TOTAL FREE ENERGY PREDICTED BY IDOCK:   -3.12 KCAL/MOL
REMARK 923 INTER-LIGAND FREE ENERGY PREDICTED BY IDOCK:   -4.21 KCAL/MOL
REMARK 924 INTRA-LIGAND FREE ENERGY PREDICTED BY IDOCK:    1.08 KCAL/MOL
REMARK 927      BINDING AFFINITY PREDICTED BY RF-SCORE:    0.00 PKD
ROOT
HETATM    1 FE   UNL     1     -10.896  13.041  65.523  1.00  0.00    -0.267 Fe 
ATOM      2  N   GLY A   1      -5.965  18.686  67.995  1.00  0.00    -0.193 NA 
ATOM      3  CA  CYS B   1      -7.660  14.175  69.239  1.00  0.00     0.058 C  
ATOM      4  CA  GLY A   1      -7.132  19.465  67.549  1.00  0.00    -0.214 C  
ATOM      5  H2  GLY A   1      -5.135  18.897  67.442  1.00  0.00     0.000 HD 
ATOM      6  H1  GLY A   1      -5.802  18.825  68.992  1.00  0.00     0.000 HD 
ATOM      7  OXT CYS C   1     -10.312  18.176  68.885  1.00  0.00    -0.356 OA 
ATOM      8  C   GLY A   1      -7.379  19.256  66.046  1.00  0.00    -0.279 C  
ATOM      9  C   CYS B   1      -7.353  13.821  67.743  1.00  0.00    -0.164 C  
ATOM     10  CA  CYS C   1     -10.084  16.574  67.134  1.00  0.00    -0.274 C  
ATOM     11  N   CYS B   1      -6.749  13.274  70.001  1.00  0.00    -0.351 NA 
ATOM     12  H2  CYS C   1      -8.169  16.266  66.252  1.00  0.00     0.000 HD 
ATOM     13  N   CYS C   1      -8.597  16.548  67.133  1.00  0.00    -0.179 NA 
ATOM     14  C   CYS C   1     -10.518  16.957  68.608  1.00  0.00    -0.352 C  
ATOM     15  H2  CYS B   1      -6.889  13.327  71.010  1.00  0.00     0.000 HD 
ATOM     16  H1  CYS B   1      -6.871  12.331  69.632  1.00  0.00     0.000 HD 
ATOM     17  O   CYS B   1      -7.328  12.443  67.585  1.00  0.00    -0.109 OA 
ATOM     18  O   CYS C   1     -10.830  15.982  69.357  1.00  0.00    -0.253 OA 
ATOM     19  OXT GLY A   1      -6.592  18.728  65.272  1.00  0.00    -0.407 OA 
ATOM     20  O   GLY A   1      -8.605  19.669  65.638  1.00  0.00    -0.353 OA 
ATOM     21  OXT CYS B   1      -7.124  14.452  66.713  1.00  0.00     0.280 OA 
ATOM     22  H1  CYS C   1      -8.373  17.494  67.442  1.00  0.00     0.000 HD 
ENDROOT
BRANCH   3  23
ATOM     23  CB  CYS B   1      -7.476  15.602  69.797  1.00  0.00    -0.046 C  
ATOM     24  SG  CYS B   1      -5.735  16.026  70.244  1.00  0.00    -0.106 SA 
ATOM     25  HG  CYS B   1      -5.569  17.312  70.746  1.00  0.00     0.000 H  
ENDBRANCH   3  23
BRANCH  10  26
ATOM     26  CB  CYS C   1     -10.417  15.169  66.675  1.00  0.00    -0.287 C  
ATOM     27  SG  CYS C   1     -11.339  14.969  65.093  1.00  0.00    -0.355 SA 
ATOM     28  HG  CYS C   1     -11.645  13.680  64.672  1.00  0.00     0.000 H  
ENDBRANCH  10  26
TORSDOF 2
ENDMDL
MODEL       99
REMARK 921   NORMALIZED FREE ENERGY PREDICTED BY IDOCK:   -3.29 KCAL/MOL
REMARK 922        TOTAL FREE ENERGY PREDICTED BY IDOCK:   -3.10 KCAL/MOL
REMARK 923 INTER-LIGAND FREE ENERGY PREDICTED BY IDOCK:   -3.64 KCAL/MOL
REMARK 924 INTRA-LIGAND FREE ENERGY PREDICTED BY IDOCK:    0.54 KCAL/MOL
REMARK 927      BINDING AFFINITY PREDICTED BY RF-SCORE:    0.00 PKD
ROOT
HETATM    1 FE   UNL     1     -12.814  10.724  68.727  1.00  0.00    -0.408 Fe 
ATOM      2  N   GLY A   1      -5.375  12.161  66.515  1.00  0.00    -0.450 NA 
ATOM      3  CA  CYS B   1      -9.522   9.873  64.984  1.00  0.00    -0.280 C  
ATOM      4  CA  GLY A   1      -5.219  11.836  67.943  1.00  0.00    -0.051 C  
ATOM      5  H2  GLY A   1      -5.094  13.120  66.312  1.00  0.00     0.000 HD 
ATOM      6  H1  GLY A   1      -4.872  11.488  65.938  1.00  0.00     0.000 HD 
ATOM      7  OXT CYS C   1      -6.977   8.749  68.912  1.00  0.00    -0.060 OA 
ATOM      8  C   GLY A   1      -5.978  12.850  68.814  1.00  0.00    -0.072 C  
ATOM      9  C   CYS B   1     -10.222  11.216  65.389  1.00  0.00    -0.271 C  
ATOM     10  CA  CYS C   1      -8.891  10.170  68.931  1.00  0.00    -0.154 C  
ATOM     11  N   CYS B   1      -9.768   9.786  63.517  1.00  0.00    -0.464 NA 
ATOM     12  H2  CYS C   1      -8.818  12.026  67.887  1.00  0.00     0.000 HD 
ATOM     13  N   CYS C   1      -8.422  11.086  67.859  1.00  0.00    -0.125 NA 
ATOM     14  C   CYS C   1      -8.214   8.768  68.641  1.00  0.00    -0.117 C  
ATOM     15  H2  CYS B   1      -9.437   8.911  63.110  1.00  0.00     0.000 HD 
ATOM     16  H1  CYS B   1     -10.764   9.944  63.362  1.00  0.00     0.000 HD 
ATOM     17  O   CYS B   1     -11.485  11.275  64.818  1.00  0.00    -0.081 OA 
ATOM     18  O   CYS C   1      -8.936   7.930  68.018  1.00  0.00    -0.128 OA 
ATOM     19  OXT GLY A   1      -6.437  13.912  68.417  1.00  0.00    -0.086 OA 
ATOM     20  O   GLY A   1      -6.152  12.438  70.095  1.00  0.00    -0.151 OA 
ATOM     21  OXT CYS B   1      -9.926  12.202  66.061  1.00  0.00    -0.227 OA 
ATOM     22  H1  CYS C   1      -7.409  11.038  67.973  1.00  0.00     0.000 HD 
ENDROOT
BRANCH   3  23
ATOM     23  CB  CYS B   1      -8.016   9.633  65.218  1.00  0.00    -0.115 C  
ATOM     24  SG  CYS B   1      -7.442   7.928  64.800  1.00  0.00    -0.102 SA 
ATOM     25  HG  CYS B   1      -6.085   7.712  65.011  1.00  0.00     0.000 H  
ENDBRANCH   3  23
BRANCH  10  26
ATOM     26  CB  CYS C   1     -10.395  10.241  68.761  1.00  0.00    -0.195 C  
ATOM     27  SG  CYS C   1     -11.453   9.519  70.084  1.00  0.00    -0.104 SA 
ATOM     28  HG  CYS C   1     -12.832   9.585  69.929  1.00  0.00     0.000 H  
ENDBRANCH  10  26
TORSDOF 2
ENDMDL
MODEL      100
REMARK 921   NORMALIZED FREE ENERGY PREDICTED BY IDOCK:   -3.26 KCAL/MOL
REMARK 922        TOTAL FREE ENERGY PREDICTED BY IDOCK:   -3.07 KCAL/MOL
REMARK 923 INTER-LIGAND FREE ENERGY PREDICTED BY IDOCK:   -3.58 KCAL/MOL
REMARK 924 INTRA-LIGAND FREE ENERGY PREDICTED BY IDOCK:    0.51 KCAL/MOL
REMARK 927      BINDING AFFINITY PREDICTED BY RF-SCORE:    0.00 PKD
ROOT
HETATM    1 FE   UNL     1      -6.434  14.563  69.745  1.00  0.00    -0.094 Fe 
ATOM      2  N   GLY A   1     -12.558  12.381  65.270  1.00  0.00    -0.588 NA 
ATOM      3  CA  CYS B   1     -11.342  13.373  69.993  1.00  0.00     0.061 C  
ATOM      4  CA  GLY A   1     -11.462  11.568  64.716  1.00  0.00    -0.072 C  
ATOM      5  H2  GLY A   1     -12.929  13.035  64.583  1.00  0.00     0.000 HD 
ATOM      6  H1  GLY A   1     -13.288  11.781  65.655  1.00  0.00     0.000 HD 
ATOM      7  OXT CYS C   1      -9.523   9.816  67.310  1.00  0.00    -0.149 OA 
ATOM      8  C   GLY A   1     -10.361  12.471  64.136  1.00  0.00    -0.390 C  
ATOM      9  C   CYS B   1     -10.672  14.653  69.385  1.00  0.00    -0.222 C  
ATOM     10  CA  CYS C   1      -8.480  11.942  67.581  1.00  0.00    -0.156 C  
ATOM     11  N   CYS B   1     -12.401  13.929  70.883  1.00  0.00    -0.361 NA 
ATOM     12  H2  CYS C   1      -9.462  13.683  66.843  1.00  0.00     0.000 HD 
ATOM     13  N   CYS C   1      -9.669  12.753  67.208  1.00  0.00    -0.202 NA 
ATOM     14  C   CYS C   1      -9.039  10.591  68.188  1.00  0.00    -0.141 C  
ATOM     15  H2  CYS B   1     -12.883  13.211  71.423  1.00  0.00     0.000 HD 
ATOM     16  H1  CYS B   1     -11.967  14.643  71.469  1.00  0.00     0.000 HD 
ATOM     17  O   CYS B   1     -10.422  15.573  70.393  1.00  0.00    -0.313 OA 
ATOM     18  O   CYS C   1      -9.101  10.543  69.455  1.00  0.00    -0.181 OA 
ATOM     19  OXT GLY A   1     -10.473  13.671  63.930  1.00  0.00    -0.118 OA 
ATOM     20  O   GLY A   1      -9.193  11.819  63.910  1.00  0.00     0.021 OA 
ATOM     21  OXT CYS B   1     -10.336  15.029  68.264  1.00  0.00    -0.230 OA 
ATOM     22  H1  CYS C   1     -10.151  12.129  66.561  1.00  0.00     0.000 HD 
ENDROOT
BRANCH   3  23
ATOM     23  CB  CYS B   1     -11.999  12.294  69.107  1.00  0.00    -0.249 C  
ATOM     24  SG  CYS B   1     -12.680  10.853  70.041  1.00  0.00     0.020 SA 
ATOM     25  HG  CYS B   1     -13.272   9.881  69.243  1.00  0.00     0.000 H  
ENDBRANCH   3  23
BRANCH  10  26
ATOM     26  CB  CYS C   1      -7.764  12.869  68.542  1.00  0.00    -0.109 C  
ATOM     27  SG  CYS C   1      -6.167  12.304  69.264  1.00  0.00    -0.105 SA 
ATOM     28  HG  CYS C   1      -5.510  13.154  70.147  1.00  0.00     0.000 H  
ENDBRANCH  10  26
TORSDOF 2
ENDMDL
MODEL      101
REMARK 921   NORMALIZED FREE ENERGY PREDICTED BY IDOCK:   -3.26 KCAL/MOL
REMARK 922        TOTAL FREE ENERGY PREDICTED BY IDOCK:   -3.06 KCAL/MOL
REMARK 923 INTER-LIGAND FREE ENERGY PREDICTED BY IDOCK:   -4.07 KCAL/MOL
REMARK 924 INTRA-LIGAND FREE ENERGY PREDICTED BY IDOCK:    1.01 KCAL/MOL
REMARK 927      BINDING AFFINITY PREDICTED BY RF-SCORE:    0.00 PKD
ROOT
HETATM    1 FE   UNL     1      -8.486  17.189  65.426  1.00  0.00    -0.159 Fe 
ATOM      2  N   GLY A   1      -9.678   9.387  65.397  1.00  0.00    -0.439 NA 
ATOM      3  CA  CYS B   1     -12.091  13.694  66.025  1.00  0.00    -0.441 C  
ATOM      4  CA  GLY A   1      -8.408   9.506  66.134  1.00  0.00    -0.115 C  
ATOM      5  H2  GLY A   1      -9.563   8.871  64.526  1.00  0.00     0.000 HD 
ATOM      6  H1  GLY A   1     -10.398   8.975  65.990  1.00  0.00     0.000 HD 
ATOM      7  OXT CYS C   1      -8.532  12.034  68.807  1.00  0.00    -0.068 OA 
ATOM      8  C   GLY A   1      -7.321  10.127  65.240  1.00  0.00    -0.141 C  
ATOM      9  C   CYS B   1     -11.345  14.121  64.714  1.00  0.00    -0.371 C  
ATOM     10  CA  CYS C   1      -8.207  13.561  67.005  1.00  0.00    -0.033 C  
ATOM     11  N   CYS B   1     -13.529  13.750  65.637  1.00  0.00    -0.459 NA 
ATOM     12  H2  CYS C   1      -8.634  12.926  65.017  1.00  0.00     0.000 HD 
ATOM     13  N   CYS C   1      -8.920  12.753  65.980  1.00  0.00    -0.409 NA 
ATOM     14  C   CYS C   1      -8.863  13.186  68.397  1.00  0.00    -0.117 C  
ATOM     15  H2  CYS B   1     -14.159  13.574  66.419  1.00  0.00     0.000 HD 
ATOM     16  H1  CYS B   1     -13.692  14.653  65.191  1.00  0.00     0.000 HD 
ATOM     17  O   CYS B   1     -11.951  15.247  64.177  1.00  0.00    -0.485 OA 
ATOM     18  O   CYS C   1      -9.755  13.986  68.815  1.00  0.00    -0.205 OA 
ATOM     19  OXT GLY A   1      -7.408  10.275  64.029  1.00  0.00    -0.133 OA 
ATOM     20  O   GLY A   1      -6.239  10.564  65.932  1.00  0.00    -0.107 OA 
ATOM     21  OXT CYS B   1     -10.390  13.703  64.063  1.00  0.00    -0.232 OA 
ATOM     22  H1  CYS C   1      -8.761  11.803  66.318  1.00  0.00     0.000 HD 
ENDROOT
BRANCH   3  23
ATOM     23  CB  CYS B   1     -11.844  12.329  66.699  1.00  0.00    -0.289 C  
ATOM     24  SG  CYS B   1     -12.250  12.284  68.501  1.00  0.00     0.380 SA 
ATOM     25  HG  CYS B   1     -12.028  11.054  69.108  1.00  0.00     0.000 H  
ENDBRANCH   3  23
BRANCH  10  26
ATOM     26  CB  CYS C   1      -8.443  14.971  66.505  1.00  0.00    -0.058 C  
ATOM     27  SG  CYS C   1      -7.539  16.347  67.330  1.00  0.00    -0.186 SA 
ATOM     28  HG  CYS C   1      -7.756  17.641  66.871  1.00  0.00     0.000 H  
ENDBRANCH  10  26
TORSDOF 2
ENDMDL
MODEL      102
REMARK 921   NORMALIZED FREE ENERGY PREDICTED BY IDOCK:   -3.20 KCAL/MOL
REMARK 922        TOTAL FREE ENERGY PREDICTED BY IDOCK:   -2.99 KCAL/MOL
REMARK 923 INTER-LIGAND FREE ENERGY PREDICTED BY IDOCK:   -3.53 KCAL/MOL
REMARK 924 INTRA-LIGAND FREE ENERGY PREDICTED BY IDOCK:    0.54 KCAL/MOL
REMARK 927      BINDING AFFINITY PREDICTED BY RF-SCORE:    0.00 PKD
ROOT
HETATM    1 FE   UNL     1      -5.946  15.350  69.230  1.00  0.00    -0.097 Fe 
ATOM      2  N   GLY A   1     -11.469   9.742  68.646  1.00  0.00    -0.488 NA 
ATOM      3  CA  CYS B   1      -7.336  11.388  66.413  1.00  0.00    -0.006 C  
ATOM      4  CA  GLY A   1     -12.268  10.933  68.981  1.00  0.00    -0.042 C  
ATOM      5  H2  GLY A   1     -11.530   9.028  69.371  1.00  0.00     0.000 HD 
ATOM      6  H1  GLY A   1     -11.736   9.378  67.731  1.00  0.00     0.000 HD 
ATOM      7  OXT CYS C   1     -11.447  13.847  66.886  1.00  0.00    -0.321 OA 
ATOM      8  C   GLY A   1     -11.865  11.483  70.359  1.00  0.00    -0.320 C  
ATOM      9  C   CYS B   1      -6.747  11.401  67.866  1.00  0.00    -0.064 C  
ATOM     10  CA  CYS C   1      -9.596  14.053  68.376  1.00  0.00    -0.222 C  
ATOM     11  N   CYS B   1      -6.483  10.392  65.705  1.00  0.00    -0.118 NA 
ATOM     12  H2  CYS C   1      -9.010  12.370  69.542  1.00  0.00     0.000 HD 
ATOM     13  N   CYS C   1      -9.450  12.600  68.651  1.00  0.00    -0.404 NA 
ATOM     14  C   CYS C   1     -10.221  14.167  66.925  1.00  0.00    -0.267 C  
ATOM     15  H2  CYS B   1      -6.692  10.326  64.709  1.00  0.00     0.000 HD 
ATOM     16  H1  CYS B   1      -5.510  10.633  65.892  1.00  0.00     0.000 HD 
ATOM     17  O   CYS B   1      -5.363  11.479  67.808  1.00  0.00    -0.044 OA 
ATOM     18  O   CYS C   1      -9.392  14.374  65.986  1.00  0.00    -0.242 OA 
ATOM     19  OXT GLY A   1     -11.170  10.893  71.174  1.00  0.00     0.325 OA 
ATOM     20  O   GLY A   1     -12.314  12.742  70.589  1.00  0.00    -0.360 OA 
ATOM     21  OXT CYS B   1      -7.202  11.349  69.006  1.00  0.00    -0.109 OA 
ATOM     22  H1  CYS C   1     -10.409  12.270  68.542  1.00  0.00     0.000 HD 
ENDROOT
BRANCH   3  23
ATOM     23  CB  CYS B   1      -8.809  11.023  66.131  1.00  0.00    -0.190 C  
ATOM     24  SG  CYS B   1      -9.069   9.281  65.576  1.00  0.00    -0.226 SA 
ATOM     25  HG  CYS B   1     -10.396   8.952  65.322  1.00  0.00     0.000 H  
ENDBRANCH   3  23
BRANCH  10  26
ATOM     26  CB  CYS C   1      -8.172  14.543  68.537  1.00  0.00    -0.154 C  
ATOM     27  SG  CYS C   1      -7.851  16.349  68.373  1.00  0.00    -0.185 SA 
ATOM     28  HG  CYS C   1      -6.545  16.798  68.521  1.00  0.00     0.000 H  
ENDBRANCH  10  26
TORSDOF 2
ENDMDL
MODEL      103
REMARK 921   NORMALIZED FREE ENERGY PREDICTED BY IDOCK:   -3.18 KCAL/MOL
REMARK 922        TOTAL FREE ENERGY PREDICTED BY IDOCK:   -2.98 KCAL/MOL
REMARK 923 INTER-LIGAND FREE ENERGY PREDICTED BY IDOCK:   -3.59 KCAL/MOL
REMARK 924 INTRA-LIGAND FREE ENERGY PREDICTED BY IDOCK:    0.61 KCAL/MOL
REMARK 927      BINDING AFFINITY PREDICTED BY RF-SCORE:    0.00 PKD
ROOT
HETATM    1 FE   UNL     1     -11.768   8.747  72.958  1.00  0.00    -0.323 Fe 
ATOM      2  N   GLY A   1      -7.402   6.676  66.718  1.00  0.00    -0.077 NA 
ATOM      3  CA  CYS B   1      -7.345   9.674  70.690  1.00  0.00    -0.096 C  
ATOM      4  CA  GLY A   1      -8.751   6.776  66.135  1.00  0.00    -0.148 C  
ATOM      5  H2  GLY A   1      -7.035   5.726  66.662  1.00  0.00     0.000 HD 
ATOM      6  H1  GLY A   1      -6.774   7.351  66.284  1.00  0.00     0.000 HD 
ATOM      7  OXT CYS C   1     -10.476   9.900  67.041  1.00  0.00    -0.237 OA 
ATOM      8  C   GLY A   1      -9.699   5.758  66.790  1.00  0.00    -0.153 C  
ATOM      9  C   CYS B   1      -7.800   8.391  71.467  1.00  0.00    -0.120 C  
ATOM     10  CA  CYS C   1     -10.901   8.752  69.087  1.00  0.00    -0.053 C  
ATOM     11  N   CYS B   1      -6.024   9.996  71.301  1.00  0.00    -0.265 NA 
ATOM     12  H2  CYS C   1      -9.704   7.066  69.600  1.00  0.00     0.000 HD 
ATOM     13  N   CYS C   1      -9.655   7.941  69.077  1.00  0.00    -0.154 NA 
ATOM     14  C   CYS C   1     -10.568  10.081  68.292  1.00  0.00    -0.226 C  
ATOM     15  H2  CYS B   1      -5.627  10.869  70.952  1.00  0.00     0.000 HD 
ATOM     16  H1  CYS B   1      -6.144   9.992  72.314  1.00  0.00     0.000 HD 
ATOM     17  O   CYS B   1      -7.609   8.577  72.829  1.00  0.00    -0.283 OA 
ATOM     18  O   CYS C   1     -10.261  11.084  69.006  1.00  0.00    -0.210 OA 
ATOM     19  OXT GLY A   1      -9.347   4.831  67.506  1.00  0.00    -0.125 OA 
ATOM     20  O   GLY A   1     -11.010   6.007  66.546  1.00  0.00    -0.245 OA 
ATOM     21  OXT CYS B   1      -8.260   7.291  71.168  1.00  0.00    -0.106 OA 
ATOM     22  H1  CYS C   1      -9.481   7.840  68.077  1.00  0.00     0.000 HD 
ENDROOT
BRANCH   3  23
ATOM     23  CB  CYS B   1      -7.163   9.681  69.158  1.00  0.00    -0.068 C  
ATOM     24  SG  CYS B   1      -5.502   9.111  68.585  1.00  0.00    -0.041 SA 
ATOM     25  HG  CYS B   1      -5.338   9.117  67.205  1.00  0.00     0.000 H  
ENDBRANCH   3  23
BRANCH  10  26
ATOM     26  CB  CYS C   1     -11.160   8.901  70.572  1.00  0.00    -0.251 C  
ATOM     27  SG  CYS C   1     -12.500  10.044  71.108  1.00  0.00    -0.411 SA 
ATOM     28  HG  CYS C   1     -12.738  10.181  72.471  1.00  0.00     0.000 H  
ENDBRANCH  10  26
TORSDOF 2
ENDMDL
MODEL      104
REMARK 921   NORMALIZED FREE ENERGY PREDICTED BY IDOCK:   -3.18 KCAL/MOL
REMARK 922        TOTAL FREE ENERGY PREDICTED BY IDOCK:   -2.98 KCAL/MOL
REMARK 923 INTER-LIGAND FREE ENERGY PREDICTED BY IDOCK:   -3.50 KCAL/MOL
REMARK 924 INTRA-LIGAND FREE ENERGY PREDICTED BY IDOCK:    0.52 KCAL/MOL
REMARK 927      BINDING AFFINITY PREDICTED BY RF-SCORE:    0.00 PKD
ROOT
HETATM    1 FE   UNL     1      -9.883   6.543  73.097  1.00  0.00    -0.153 Fe 
ATOM      2  N   GLY A   1     -10.195  10.112  66.066  1.00  0.00    -0.243 NA 
ATOM      3  CA  CYS B   1      -8.581   5.941  68.249  1.00  0.00    -0.113 C  
ATOM      4  CA  GLY A   1      -9.835  11.223  66.964  1.00  0.00    -0.191 C  
ATOM      5  H2  GLY A   1     -11.102  10.261  65.624  1.00  0.00     0.000 HD 
ATOM      6  H1  GLY A   1      -9.460   9.956  65.377  1.00  0.00     0.000 HD 
ATOM      7  OXT CYS C   1      -7.042  10.398  69.216  1.00  0.00    -0.069 OA 
ATOM      8  C   GLY A   1     -10.945  11.459  68.002  1.00  0.00    -0.237 C  
ATOM      9  C   CYS B   1     -10.010   5.914  68.892  1.00  0.00    -0.157 C  
ATOM     10  CA  CYS C   1      -8.737   9.278  70.464  1.00  0.00    -0.236 C  
ATOM     11  N   CYS B   1      -8.547   4.696  67.431  1.00  0.00    -0.104 NA 
ATOM     12  H2  CYS C   1     -10.571   8.774  69.504  1.00  0.00     0.000 HD 
ATOM     13  N   CYS C   1      -9.582   8.915  69.296  1.00  0.00    -0.160 NA 
ATOM     14  C   CYS C   1      -7.251   9.368  69.922  1.00  0.00    -0.083 C  
ATOM     15  H2  CYS B   1      -7.636   4.525  67.005  1.00  0.00     0.000 HD 
ATOM     16  H1  CYS B   1      -8.856   3.928  68.028  1.00  0.00     0.000 HD 
ATOM     17  O   CYS B   1     -10.266   4.651  69.407  1.00  0.00    -0.184 OA 
ATOM     18  O   CYS C   1      -6.539   8.333  70.103  1.00  0.00    -0.036 OA 
ATOM     19  OXT GLY A   1     -12.068  10.977  67.951  1.00  0.00    -0.600 OA 
ATOM     20  O   GLY A   1     -10.550  12.229  69.047  1.00  0.00    -0.175 OA 
ATOM     21  OXT CYS B   1     -10.932   6.713  69.035  1.00  0.00    -0.265 OA 
ATOM     22  H1  CYS C   1      -9.379   9.677  68.648  1.00  0.00     0.000 HD 
ENDROOT
BRANCH   3  23
ATOM     23  CB  CYS B   1      -8.112   7.102  67.347  1.00  0.00    -0.112 C  
ATOM     24  SG  CYS B   1      -6.348   6.986  66.810  1.00  0.00    -0.051 SA 
ATOM     25  HG  CYS B   1      -5.926   8.031  65.997  1.00  0.00     0.000 H  
ENDBRANCH   3  23
BRANCH  10  26
ATOM     26  CB  CYS C   1      -9.038   8.147  71.426  1.00  0.00    -0.153 C  
ATOM     27  SG  CYS C   1      -8.189   8.149  73.060  1.00  0.00    -0.179 SA 
ATOM     28  HG  CYS C   1      -8.465   7.111  73.942  1.00  0.00     0.000 H  
ENDBRANCH  10  26
TORSDOF 2
ENDMDL
MODEL      105
REMARK 921   NORMALIZED FREE ENERGY PREDICTED BY IDOCK:   -3.14 KCAL/MOL
REMARK 922        TOTAL FREE ENERGY PREDICTED BY IDOCK:   -2.94 KCAL/MOL
REMARK 923 INTER-LIGAND FREE ENERGY PREDICTED BY IDOCK:   -3.44 KCAL/MOL
REMARK 924 INTRA-LIGAND FREE ENERGY PREDICTED BY IDOCK:    0.51 KCAL/MOL
REMARK 927      BINDING AFFINITY PREDICTED BY RF-SCORE:    0.00 PKD
ROOT
HETATM    1 FE   UNL     1      -5.533  10.779  70.474  1.00  0.00    -0.043 Fe 
ATOM      2  N   GLY A   1     -13.192   9.014  71.190  1.00  0.00    -0.537 NA 
ATOM      3  CA  CYS B   1      -8.719   6.866  70.807  1.00  0.00    -0.145 C  
ATOM      4  CA  GLY A   1     -13.215  10.113  70.210  1.00  0.00     0.211 C  
ATOM      5  H2  GLY A   1     -13.681   9.262  72.050  1.00  0.00     0.000 HD 
ATOM      6  H1  GLY A   1     -13.563   8.159  70.777  1.00  0.00     0.000 HD 
ATOM      7  OXT CYS C   1     -10.798   9.647  67.473  1.00  0.00    -0.286 OA 
ATOM      8  C   GLY A   1     -12.656  11.403  70.833  1.00  0.00    -0.356 C  
ATOM      9  C   CYS B   1      -8.306   7.894  71.917  1.00  0.00    -0.121 C  
ATOM     10  CA  CYS C   1      -9.233  10.448  69.084  1.00  0.00    -0.191 C  
ATOM     11  N   CYS B   1      -8.521   5.546  71.469  1.00  0.00    -0.126 NA 
ATOM     12  H2  CYS C   1      -9.746  10.385  71.151  1.00  0.00     0.000 HD 
ATOM     13  N   CYS C   1      -9.932   9.897  70.275  1.00  0.00    -0.350 NA 
ATOM     14  C   CYS C   1      -9.605   9.496  67.874  1.00  0.00    -0.133 C  
ATOM     15  H2  CYS B   1      -8.673   4.758  70.839  1.00  0.00     0.000 HD 
ATOM     16  H1  CYS B   1      -7.589   5.547  71.886  1.00  0.00     0.000 HD 
ATOM     17  O   CYS B   1      -7.110   7.498  72.498  1.00  0.00    -0.066 OA 
ATOM     18  O   CYS C   1      -8.747   8.603  67.596  1.00  0.00    -0.134 OA 
ATOM     19  OXT GLY A   1     -12.452  11.576  72.026  1.00  0.00     0.008 OA 
ATOM     20  O   GLY A   1     -12.344  12.353  69.916  1.00  0.00    -0.175 OA 
ATOM     21  OXT CYS B   1      -8.779   8.926  72.388  1.00  0.00    -0.400 OA 
ATOM     22  H1  CYS C   1     -10.906   9.910  69.968  1.00  0.00     0.000 HD 
ENDROOT
BRANCH   3  23
ATOM     23  CB  CYS B   1     -10.127   6.864  70.177  1.00  0.00    -0.182 C  
ATOM     24  SG  CYS B   1     -10.374   5.585  68.867  1.00  0.00    -0.203 SA 
ATOM     25  HG  CYS B   1     -11.643   5.582  68.300  1.00  0.00     0.000 H  
ENDBRANCH   3  23
BRANCH  10  26
ATOM     26  CB  CYS C   1      -7.788  10.429  69.539  1.00  0.00    -0.155 C  
ATOM     27  SG  CYS C   1      -6.514  11.128  68.409  1.00  0.00    -0.058 SA 
ATOM     28  HG  CYS C   1      -5.188  11.110  68.826  1.00  0.00     0.000 H  
ENDBRANCH  10  26
TORSDOF 2
ENDMDL
MODEL      106
REMARK 921   NORMALIZED FREE ENERGY PREDICTED BY IDOCK:   -3.13 KCAL/MOL
REMARK 922        TOTAL FREE ENERGY PREDICTED BY IDOCK:   -2.92 KCAL/MOL
REMARK 923 INTER-LIGAND FREE ENERGY PREDICTED BY IDOCK:   -3.46 KCAL/MOL
REMARK 924 INTRA-LIGAND FREE ENERGY PREDICTED BY IDOCK:    0.54 KCAL/MOL
REMARK 927      BINDING AFFINITY PREDICTED BY RF-SCORE:    0.00 PKD
ROOT
HETATM    1 FE   UNL     1      -9.917   2.451  69.474  1.00  0.00    -0.130 Fe 
ATOM      2  N   GLY A   1      -9.892  10.273  68.425  1.00  0.00    -0.152 NA 
ATOM      3  CA  CYS B   1      -8.715   6.028  66.108  1.00  0.00    -0.146 C  
ATOM      4  CA  GLY A   1      -9.411  10.143  69.811  1.00  0.00    -0.167 C  
ATOM      5  H2  GLY A   1     -10.780  10.771  68.377  1.00  0.00     0.000 HD 
ATOM      6  H1  GLY A   1      -9.181  10.711  67.839  1.00  0.00     0.000 HD 
ATOM      7  OXT CYS C   1      -6.707   7.669  70.164  1.00  0.00    -0.047 OA 
ATOM      8  C   GLY A   1     -10.483   9.483  70.694  1.00  0.00    -0.308 C  
ATOM      9  C   CYS B   1     -10.135   5.562  66.581  1.00  0.00    -0.209 C  
ATOM     10  CA  CYS C   1      -8.504   6.103  70.110  1.00  0.00    -0.133 C  
ATOM     11  N   CYS B   1      -8.818   5.994  64.622  1.00  0.00    -0.355 NA 
ATOM     12  H2  CYS C   1     -10.386   6.708  69.318  1.00  0.00     0.000 HD 
ATOM     13  N   CYS C   1      -9.390   6.905  69.226  1.00  0.00    -0.145 NA 
ATOM     14  C   CYS C   1      -7.020   6.516  69.741  1.00  0.00    -0.067 C  
ATOM     15  H2  CYS B   1      -7.933   6.198  64.157  1.00  0.00     0.000 HD 
ATOM     16  H1  CYS B   1      -9.204   5.086  64.361  1.00  0.00     0.000 HD 
ATOM     17  O   CYS B   1     -10.520   4.439  65.864  1.00  0.00    -0.250 OA 
ATOM     18  O   CYS C   1      -6.420   5.742  68.933  1.00  0.00    -0.041 OA 
ATOM     19  OXT GLY A   1     -11.651   9.315  70.373  1.00  0.00    -0.254 OA 
ATOM     20  O   GLY A   1     -10.002   9.038  71.882  1.00  0.00    -0.332 OA 
ATOM     21  OXT CYS B   1     -10.967   5.948  67.399  1.00  0.00    -0.284 OA 
ATOM     22  H1  CYS C   1      -9.111   7.857  69.463  1.00  0.00     0.000 HD 
ENDROOT
BRANCH   3  23
ATOM     23  CB  CYS B   1      -8.131   7.401  66.502  1.00  0.00    -0.117 C  
ATOM     24  SG  CYS B   1      -8.335   8.713  65.218  1.00  0.00    -0.176 SA 
ATOM     25  HG  CYS B   1      -7.810   9.950  65.573  1.00  0.00     0.000 H  
ENDBRANCH   3  23
BRANCH  10  26
ATOM     26  CB  CYS C   1      -8.917   4.688  69.759  1.00  0.00    -0.094 C  
ATOM     27  SG  CYS C   1      -8.243   3.309  70.777  1.00  0.00    -0.057 SA 
ATOM     28  HG  CYS C   1      -8.623   2.012  70.455  1.00  0.00     0.000 H  
ENDBRANCH  10  26
TORSDOF 2
ENDMDL
MODEL      107
REMARK 921   NORMALIZED FREE ENERGY PREDICTED BY IDOCK:   -3.11 KCAL/MOL
REMARK 922        TOTAL FREE ENERGY PREDICTED BY IDOCK:   -2.90 KCAL/MOL
REMARK 923 INTER-LIGAND FREE ENERGY PREDICTED BY IDOCK:   -3.48 KCAL/MOL
REMARK 924 INTRA-LIGAND FREE ENERGY PREDICTED BY IDOCK:    0.58 KCAL/MOL
REMARK 927      BINDING AFFINITY PREDICTED BY RF-SCORE:    0.00 PKD
ROOT
HETATM    1 FE   UNL     1     -13.185   8.604  70.544  1.00  0.00    -0.507 Fe 
ATOM      2  N   GLY A   1      -7.646   9.218  64.955  1.00  0.00    -0.105 NA 
ATOM      3  CA  CYS B   1      -8.967   6.399  68.838  1.00  0.00    -0.123 C  
ATOM      4  CA  GLY A   1      -7.824  10.619  65.373  1.00  0.00    -0.070 C  
ATOM      5  H2  GLY A   1      -7.907   9.078  63.979  1.00  0.00     0.000 HD 
ATOM      6  H1  GLY A   1      -6.693   8.907  65.140  1.00  0.00     0.000 HD 
ATOM      7  OXT CYS C   1      -7.731  11.047  69.029  1.00  0.00    -0.131 OA 
ATOM      8  C   GLY A   1      -9.261  11.088  65.094  1.00  0.00    -0.205 C  
ATOM      9  C   CYS B   1     -10.389   6.438  68.180  1.00  0.00    -0.192 C  
ATOM     10  CA  CYS C   1      -9.983  10.275  68.903  1.00  0.00    -0.201 C  
ATOM     11  N   CYS B   1      -8.611   4.952  68.801  1.00  0.00    -0.089 NA 
ATOM     12  H2  CYS C   1     -10.626   9.227  67.163  1.00  0.00     0.000 HD 
ATOM     13  N   CYS C   1      -9.787   9.401  67.716  1.00  0.00    -0.162 NA 
ATOM     14  C   CYS C   1      -8.584  10.337  69.641  1.00  0.00    -0.107 C  
ATOM     15  H2  CYS B   1      -7.730   4.747  69.275  1.00  0.00     0.000 HD 
ATOM     16  H1  CYS B   1      -9.399   4.431  69.186  1.00  0.00     0.000 HD 
ATOM     17  O   CYS B   1     -11.183   5.439  68.723  1.00  0.00     0.226 OA 
ATOM     18  O   CYS C   1      -8.445   9.541  70.620  1.00  0.00    -0.200 OA 
ATOM     19  OXT GLY A   1     -10.074  10.488  64.404  1.00  0.00    -0.340 OA 
ATOM     20  O   GLY A   1      -9.589  12.235  65.740  1.00  0.00    -0.241 OA 
ATOM     21  OXT CYS B   1     -10.948   7.113  67.318  1.00  0.00    -0.310 OA 
ATOM     22  H1  CYS C   1      -9.035   9.884  67.225  1.00  0.00     0.000 HD 
ENDROOT
BRANCH   3  23
ATOM     23  CB  CYS B   1      -7.774   7.186  68.256  1.00  0.00    -0.120 C  
ATOM     24  SG  CYS B   1      -6.198   6.990  69.200  1.00  0.00    -0.032 SA 
ATOM     25  HG  CYS B   1      -5.124   7.698  68.675  1.00  0.00     0.000 H  
ENDBRANCH   3  23
BRANCH  10  26
ATOM     26  CB  CYS C   1     -11.100   9.558  69.633  1.00  0.00    -0.171 C  
ATOM     27  SG  CYS C   1     -12.048  10.495  70.903  1.00  0.00    -0.399 SA 
ATOM     28  HG  CYS C   1     -13.073   9.838  71.573  1.00  0.00     0.000 H  
ENDBRANCH  10  26
TORSDOF 2
ENDMDL
MODEL      108
REMARK 921   NORMALIZED FREE ENERGY PREDICTED BY IDOCK:   -3.11 KCAL/MOL
REMARK 922        TOTAL FREE ENERGY PREDICTED BY IDOCK:   -2.89 KCAL/MOL
REMARK 923 INTER-LIGAND FREE ENERGY PREDICTED BY IDOCK:   -3.41 KCAL/MOL
REMARK 924 INTRA-LIGAND FREE ENERGY PREDICTED BY IDOCK:    0.52 KCAL/MOL
REMARK 927      BINDING AFFINITY PREDICTED BY RF-SCORE:    0.00 PKD
ROOT
HETATM    1 FE   UNL     1      -8.385   4.014  66.515  1.00  0.00    -0.098 Fe 
ATOM      2  N   GLY A   1     -11.297   9.100  71.801  1.00  0.00    -0.370 NA 
ATOM      3  CA  CYS B   1      -8.255   8.885  67.868  1.00  0.00    -0.110 C  
ATOM      4  CA  GLY A   1     -10.989   7.925  72.635  1.00  0.00    -0.378 C  
ATOM      5  H2  GLY A   1     -12.295   9.307  71.793  1.00  0.00     0.000 HD 
ATOM      6  H1  GLY A   1     -10.745   9.904  72.098  1.00  0.00     0.000 HD 
ATOM      7  OXT CYS C   1      -7.603   6.603  72.055  1.00  0.00    -0.094 OA 
ATOM      8  C   GLY A   1     -11.821   6.712  72.187  1.00  0.00    -0.298 C  
ATOM      9  C   CYS B   1      -9.427   8.080  67.206  1.00  0.00    -0.155 C  
ATOM     10  CA  CYS C   1      -8.616   5.604  70.142  1.00  0.00    -0.127 C  
ATOM     11  N   CYS B   1      -8.141  10.097  67.008  1.00  0.00    -0.116 NA 
ATOM     12  H2  CYS C   1     -10.464   6.381  69.421  1.00  0.00     0.000 HD 
ATOM     13  N   CYS C   1      -9.622   6.675  69.915  1.00  0.00    -0.155 NA 
ATOM     14  C   CYS C   1      -7.380   6.301  70.845  1.00  0.00    -0.080 C  
ATOM     15  H2  CYS B   1      -7.355  10.694  67.265  1.00  0.00     0.000 HD 
ATOM     16  H1  CYS B   1      -8.102   9.783  66.038  1.00  0.00     0.000 HD 
ATOM     17  O   CYS B   1      -9.242   8.032  65.832  1.00  0.00    -0.156 OA 
ATOM     18  O   CYS C   1      -6.424   6.627  70.076  1.00  0.00    -0.038 OA 
ATOM     19  OXT GLY A   1     -12.776   6.759  71.425  1.00  0.00    -0.346 OA 
ATOM     20  O   GLY A   1     -11.364   5.534  72.679  1.00  0.00    -0.282 OA 
ATOM     21  OXT CYS B   1     -10.443   7.511  67.599  1.00  0.00    -0.223 OA 
ATOM     22  H1  CYS C   1      -9.773   7.021  70.863  1.00  0.00     0.000 HD 
ENDROOT
BRANCH   3  23
ATOM     23  CB  CYS B   1      -8.315   9.359  69.335  1.00  0.00    -0.125 C  
ATOM     24  SG  CYS B   1      -6.765  10.162  69.939  1.00  0.00    -0.127 SA 
ATOM     25  HG  CYS B   1      -6.819  10.590  71.261  1.00  0.00     0.000 H  
ENDBRANCH   3  23
BRANCH  10  26
ATOM     26  CB  CYS C   1      -8.390   5.090  68.734  1.00  0.00    -0.084 C  
ATOM     27  SG  CYS C   1      -7.275   3.643  68.507  1.00  0.00    -0.051 SA 
ATOM     28  HG  CYS C   1      -7.069   3.172  67.216  1.00  0.00     0.000 H  
ENDBRANCH  10  26
TORSDOF 2
ENDMDL
MODEL      109
REMARK 921   NORMALIZED FREE ENERGY PREDICTED BY IDOCK:   -3.06 KCAL/MOL
REMARK 922        TOTAL FREE ENERGY PREDICTED BY IDOCK:   -2.84 KCAL/MOL
REMARK 923 INTER-LIGAND FREE ENERGY PREDICTED BY IDOCK:   -3.90 KCAL/MOL
REMARK 924 INTRA-LIGAND FREE ENERGY PREDICTED BY IDOCK:    1.06 KCAL/MOL
REMARK 927      BINDING AFFINITY PREDICTED BY RF-SCORE:    0.00 PKD
ROOT
HETATM    1 FE   UNL     1      -7.431  12.227  69.712  1.00  0.00    -0.312 Fe 
ATOM      2  N   GLY A   1     -10.258   4.859  69.622  1.00  0.00    -0.238 NA 
ATOM      3  CA  CYS B   1     -11.250   9.390  71.426  1.00  0.00    -0.381 C  
ATOM      4  CA  GLY A   1      -8.815   4.637  69.813  1.00  0.00    -0.089 C  
ATOM      5  H2  GLY A   1     -10.588   4.464  68.741  1.00  0.00     0.000 HD 
ATOM      6  H1  GLY A   1     -10.784   4.500  70.418  1.00  0.00     0.000 HD 
ATOM      7  OXT CYS C   1      -7.386   6.723  72.489  1.00  0.00    -0.088 OA 
ATOM      8  C   GLY A   1      -8.021   5.177  68.612  1.00  0.00    -0.086 C  
ATOM      9  C   CYS B   1     -10.959   9.863  69.960  1.00  0.00    -0.291 C  
ATOM     10  CA  CYS C   1      -7.411   8.415  70.810  1.00  0.00    -0.065 C  
ATOM     11  N   CYS B   1     -12.679   9.760  71.631  1.00  0.00    -0.388 NA 
ATOM     12  H2  CYS C   1      -8.665   8.168  69.105  1.00  0.00     0.000 HD 
ATOM     13  N   CYS C   1      -8.610   7.909  70.090  1.00  0.00    -0.133 NA 
ATOM     14  C   CYS C   1      -7.579   7.964  72.318  1.00  0.00    -0.098 C  
ATOM     15  H2  CYS B   1     -13.001   9.587  72.583  1.00  0.00     0.000 HD 
ATOM     16  H1  CYS B   1     -12.788  10.734  71.345  1.00  0.00     0.000 HD 
ATOM     17  O   CYS B   1     -11.453  11.147  69.777  1.00  0.00    -0.265 OA 
ATOM     18  O   CYS C   1      -8.054   8.841  73.103  1.00  0.00    -0.412 OA 
ATOM     19  OXT GLY A   1      -8.509   5.514  67.543  1.00  0.00    -0.107 OA 
ATOM     20  O   GLY A   1      -6.693   5.305  68.858  1.00  0.00    -0.049 OA 
ATOM     21  OXT CYS B   1     -10.427   9.381  68.963  1.00  0.00    -0.208 OA 
ATOM     22  H1  CYS C   1      -8.555   6.907  70.274  1.00  0.00     0.000 HD 
ENDROOT
BRANCH   3  23
ATOM     23  CB  CYS B   1     -11.085   7.918  71.858  1.00  0.00    -0.267 C  
ATOM     24  SG  CYS B   1     -12.604   6.888  71.651  1.00  0.00    -0.326 SA 
ATOM     25  HG  CYS B   1     -12.455   5.562  72.040  1.00  0.00     0.000 H  
ENDBRANCH   3  23
BRANCH  10  26
ATOM     26  CB  CYS C   1      -7.493   9.903  70.537  1.00  0.00    -0.036 C  
ATOM     27  SG  CYS C   1      -6.219  10.656  69.441  1.00  0.00    -0.060 SA 
ATOM     28  HG  CYS C   1      -6.294  12.021  69.191  1.00  0.00     0.000 H  
ENDBRANCH  10  26
TORSDOF 2
ENDMDL
MODEL      110
REMARK 921   NORMALIZED FREE ENERGY PREDICTED BY IDOCK:   -3.06 KCAL/MOL
REMARK 922        TOTAL FREE ENERGY PREDICTED BY IDOCK:   -2.84 KCAL/MOL
REMARK 923 INTER-LIGAND FREE ENERGY PREDICTED BY IDOCK:   -3.53 KCAL/MOL
REMARK 924 INTRA-LIGAND FREE ENERGY PREDICTED BY IDOCK:    0.69 KCAL/MOL
REMARK 927      BINDING AFFINITY PREDICTED BY RF-SCORE:    0.00 PKD
ROOT
HETATM    1 FE   UNL     1      -9.975   4.226  70.124  1.00  0.00    -0.140 Fe 
ATOM      2  N   GLY A   1     -11.392  11.506  67.428  1.00  0.00    -0.388 NA 
ATOM      3  CA  CYS B   1      -8.893   7.353  66.301  1.00  0.00    -0.159 C  
ATOM      4  CA  GLY A   1     -11.190  11.741  68.867  1.00  0.00    -0.253 C  
ATOM      5  H2  GLY A   1     -12.337  11.752  67.133  1.00  0.00     0.000 HD 
ATOM      6  H1  GLY A   1     -10.685  11.999  66.882  1.00  0.00     0.000 HD 
ATOM      7  OXT CYS C   1      -8.155  10.115  70.172  1.00  0.00    -0.146 OA 
ATOM      8  C   GLY A   1     -12.256  10.998  69.690  1.00  0.00    -0.300 C  
ATOM      9  C   CYS B   1     -10.248   6.637  66.630  1.00  0.00    -0.138 C  
ATOM     10  CA  CYS C   1      -9.529   8.167  70.173  1.00  0.00    -0.167 C  
ATOM     11  N   CYS B   1      -8.678   7.038  64.860  1.00  0.00    -0.352 NA 
ATOM     12  H2  CYS C   1     -11.293   8.140  68.979  1.00  0.00     0.000 HD 
ATOM     13  N   CYS C   1     -10.364   8.559  69.007  1.00  0.00    -0.215 NA 
ATOM     14  C   CYS C   1      -8.123   8.866  69.964  1.00  0.00    -0.116 C  
ATOM     15  H2  CYS B   1      -7.780   7.372  64.509  1.00  0.00     0.000 HD 
ATOM     16  H1  CYS B   1      -8.801   6.032  64.743  1.00  0.00     0.000 HD 
ATOM     17  O   CYS B   1     -10.231   5.347  66.121  1.00  0.00    -0.181 OA 
ATOM     18  O   CYS C   1      -7.220   8.138  69.449  1.00  0.00    -0.064 OA 
ATOM     19  OXT GLY A   1     -13.270  10.492  69.232  1.00  0.00     0.411 OA 
ATOM     20  O   GLY A   1     -11.947  10.898  71.007  1.00  0.00    -0.326 OA 
ATOM     21  OXT CYS B   1     -11.292   6.940  67.203  1.00  0.00    -0.290 OA 
ATOM     22  H1  CYS C   1     -10.348   9.577  69.074  1.00  0.00     0.000 HD 
ENDROOT
BRANCH   3  23
ATOM     23  CB  CYS B   1      -8.707   8.874  66.477  1.00  0.00    -0.130 C  
ATOM     24  SG  CYS B   1      -9.523   9.898  65.173  1.00  0.00    -0.286 SA 
ATOM     25  HG  CYS B   1      -9.356  11.268  65.332  1.00  0.00     0.000 H  
ENDBRANCH   3  23
BRANCH  10  26
ATOM     26  CB  CYS C   1      -9.552   6.655  70.075  1.00  0.00    -0.156 C  
ATOM     27  SG  CYS C   1      -8.736   5.686  71.411  1.00  0.00    -0.133 SA 
ATOM     28  HG  CYS C   1      -8.757   4.299  71.321  1.00  0.00     0.000 H  
ENDBRANCH  10  26
TORSDOF 2
ENDMDL
MODEL      111
REMARK 921   NORMALIZED FREE ENERGY PREDICTED BY IDOCK:   -3.03 KCAL/MOL
REMARK 922        TOTAL FREE ENERGY PREDICTED BY IDOCK:   -2.81 KCAL/MOL
REMARK 923 INTER-LIGAND FREE ENERGY PREDICTED BY IDOCK:   -3.32 KCAL/MOL
REMARK 924 INTRA-LIGAND FREE ENERGY PREDICTED BY IDOCK:    0.51 KCAL/MOL
REMARK 927      BINDING AFFINITY PREDICTED BY RF-SCORE:    0.00 PKD
ROOT
HETATM    1 FE   UNL     1     -12.888   7.104  72.111  1.00  0.00    -0.295 Fe 
ATOM      2  N   GLY A   1      -6.730   6.326  67.237  1.00  0.00    -0.058 NA 
ATOM      3  CA  CYS B   1      -8.054   5.629  71.984  1.00  0.00    -0.112 C  
ATOM      4  CA  GLY A   1      -7.284   7.630  66.833  1.00  0.00    -0.088 C  
ATOM      5  H2  GLY A   1      -6.778   5.644  66.481  1.00  0.00     0.000 HD 
ATOM      6  H1  GLY A   1      -5.779   6.436  67.589  1.00  0.00     0.000 HD 
ATOM      7  OXT CYS C   1      -7.933   9.859  69.691  1.00  0.00    -0.127 OA 
ATOM      8  C   GLY A   1      -8.718   7.465  66.302  1.00  0.00    -0.149 C  
ATOM      9  C   CYS B   1      -9.311   4.927  71.364  1.00  0.00    -0.150 C  
ATOM     10  CA  CYS C   1      -9.900   8.533  69.929  1.00  0.00    -0.186 C  
ATOM     11  N   CYS B   1      -7.385   4.533  72.740  1.00  0.00    -0.080 NA 
ATOM     12  H2  CYS C   1      -9.978   6.616  69.004  1.00  0.00     0.000 HD 
ATOM     13  N   CYS C   1      -9.309   7.274  69.403  1.00  0.00    -0.152 NA 
ATOM     14  C   CYS C   1      -8.701   9.352  70.562  1.00  0.00    -0.231 C  
ATOM     15  H2  CYS B   1      -6.578   4.854  73.276  1.00  0.00     0.000 HD 
ATOM     16  H1  CYS B   1      -8.093   4.082  73.319  1.00  0.00     0.000 HD 
ATOM     17  O   CYS B   1      -9.946   4.165  72.334  1.00  0.00    -0.153 OA 
ATOM     18  O   CYS C   1      -8.564   9.240  71.818  1.00  0.00    -0.289 OA 
ATOM     19  OXT GLY A   1      -9.243   6.398  66.017  1.00  0.00    -0.143 OA 
ATOM     20  O   GLY A   1      -9.400   8.635  66.222  1.00  0.00    -0.187 OA 
ATOM     21  OXT CYS B   1      -9.845   4.882  70.258  1.00  0.00    -0.195 OA 
ATOM     22  H1  CYS C   1      -8.608   7.630  68.753  1.00  0.00     0.000 HD 
ENDROOT
BRANCH   3  23
ATOM     23  CB  CYS B   1      -6.982   6.311  71.107  1.00  0.00    -0.068 C  
ATOM     24  SG  CYS B   1      -5.562   7.019  72.053  1.00  0.00    -0.037 SA 
ATOM     25  HG  CYS B   1      -4.597   7.632  71.264  1.00  0.00     0.000 H  
ENDBRANCH   3  23
BRANCH  10  26
ATOM     26  CB  CYS C   1     -10.941   8.005  70.895  1.00  0.00    -0.243 C  
ATOM     27  SG  CYS C   1     -12.016   9.223  71.763  1.00  0.00    -0.380 SA 
ATOM     28  HG  CYS C   1     -12.970   8.738  72.649  1.00  0.00     0.000 H  
ENDBRANCH  10  26
TORSDOF 2
ENDMDL
MODEL      112
REMARK 921   NORMALIZED FREE ENERGY PREDICTED BY IDOCK:   -3.03 KCAL/MOL
REMARK 922        TOTAL FREE ENERGY PREDICTED BY IDOCK:   -2.81 KCAL/MOL
REMARK 923 INTER-LIGAND FREE ENERGY PREDICTED BY IDOCK:   -3.93 KCAL/MOL
REMARK 924 INTRA-LIGAND FREE ENERGY PREDICTED BY IDOCK:    1.12 KCAL/MOL
REMARK 927      BINDING AFFINITY PREDICTED BY RF-SCORE:    0.00 PKD
ROOT
HETATM    1 FE   UNL     1      -9.617   5.910  71.260  1.00  0.00    -0.152 Fe 
ATOM      2  N   GLY A   1      -7.187  11.561  66.316  1.00  0.00    -0.369 NA 
ATOM      3  CA  CYS B   1     -11.251   9.948  68.693  1.00  0.00    -0.068 C  
ATOM      4  CA  GLY A   1      -6.511  10.367  65.781  1.00  0.00    -0.123 C  
ATOM      5  H2  GLY A   1      -6.519  12.257  66.647  1.00  0.00     0.000 HD 
ATOM      6  H1  GLY A   1      -7.828  11.950  65.625  1.00  0.00     0.000 HD 
ATOM      7  OXT CYS C   1      -8.783   7.501  65.363  1.00  0.00    -0.100 OA 
ATOM      8  C   GLY A   1      -5.544   9.781  66.823  1.00  0.00    -0.046 C  
ATOM      9  C   CYS B   1     -10.306   9.896  69.942  1.00  0.00    -0.258 C  
ATOM     10  CA  CYS C   1      -8.457   7.248  67.711  1.00  0.00    -0.121 C  
ATOM     11  N   CYS B   1     -12.278  10.957  69.080  1.00  0.00    -0.724 NA 
ATOM     12  H2  CYS C   1      -7.725   8.899  68.841  1.00  0.00     0.000 HD 
ATOM     13  N   CYS C   1      -8.269   8.693  68.003  1.00  0.00    -0.115 NA 
ATOM     14  C   CYS C   1      -9.384   7.174  66.429  1.00  0.00    -0.143 C  
ATOM     15  H2  CYS B   1     -13.025  11.048  68.391  1.00  0.00     0.000 HD 
ATOM     16  H1  CYS B   1     -12.621  10.706  70.007  1.00  0.00     0.000 HD 
ATOM     17  O   CYS B   1     -11.066   9.811  71.100  1.00  0.00    -0.343 OA 
ATOM     18  O   CYS C   1     -10.619   6.985  66.657  1.00  0.00    -0.239 OA 
ATOM     19  OXT GLY A   1      -5.190  10.346  67.848  1.00  0.00    -0.038 OA 
ATOM     20  O   GLY A   1      -5.140   8.519  66.534  1.00  0.00    -0.026 OA 
ATOM     21  OXT CYS B   1      -9.093   9.922  70.136  1.00  0.00    -0.223 OA 
ATOM     22  H1  CYS C   1      -7.865   9.031  67.129  1.00  0.00     0.000 HD 
ENDROOT
BRANCH   3  23
ATOM     23  CB  CYS B   1     -10.732  10.328  67.290  1.00  0.00    -0.263 C  
ATOM     24  SG  CYS B   1     -11.169  12.041  66.754  1.00  0.00    -0.336 SA 
ATOM     25  HG  CYS B   1     -10.702  12.382  65.490  1.00  0.00     0.000 H  
ENDBRANCH   3  23
BRANCH  10  26
ATOM     26  CB  CYS C   1      -9.057   6.747  69.009  1.00  0.00    -0.137 C  
ATOM     27  SG  CYS C   1      -7.909   6.271  70.368  1.00  0.00    -0.108 SA 
ATOM     28  HG  CYS C   1      -8.460   5.811  71.559  1.00  0.00     0.000 H  
ENDBRANCH  10  26
TORSDOF 2
ENDMDL
MODEL      113
REMARK 921   NORMALIZED FREE ENERGY PREDICTED BY IDOCK:   -3.01 KCAL/MOL
REMARK 922        TOTAL FREE ENERGY PREDICTED BY IDOCK:   -2.79 KCAL/MOL
REMARK 923 INTER-LIGAND FREE ENERGY PREDICTED BY IDOCK:   -3.46 KCAL/MOL
REMARK 924 INTRA-LIGAND FREE ENERGY PREDICTED BY IDOCK:    0.68 KCAL/MOL
REMARK 927      BINDING AFFINITY PREDICTED BY RF-SCORE:    0.00 PKD
ROOT
HETATM    1 FE   UNL     1      -7.735   2.950  72.606  1.00  0.00    -0.045 Fe 
ATOM      2  N   GLY A   1      -9.135   8.439  67.111  1.00  0.00    -0.136 NA 
ATOM      3  CA  CYS B   1      -7.755   7.952  71.868  1.00  0.00    -0.093 C  
ATOM      4  CA  GLY A   1     -10.243   7.493  66.896  1.00  0.00    -0.289 C  
ATOM      5  H2  GLY A   1      -8.523   8.495  66.298  1.00  0.00     0.000 HD 
ATOM      6  H1  GLY A   1      -9.494   9.355  67.379  1.00  0.00     0.000 HD 
ATOM      7  OXT CYS C   1     -11.982   6.589  70.013  1.00  0.00    -0.358 OA 
ATOM      8  C   GLY A   1      -9.703   6.111  66.491  1.00  0.00    -0.145 C  
ATOM      9  C   CYS B   1      -6.760   6.880  71.304  1.00  0.00    -0.057 C  
ATOM     10  CA  CYS C   1     -10.125   5.123  70.303  1.00  0.00    -0.268 C  
ATOM     11  N   CYS B   1      -6.853   8.991  72.441  1.00  0.00    -0.312 NA 
ATOM     12  H2  CYS C   1      -8.337   5.481  69.201  1.00  0.00     0.000 HD 
ATOM     13  N   CYS C   1      -9.133   5.978  69.599  1.00  0.00    -0.134 NA 
ATOM     14  C   CYS C   1     -11.213   6.107  70.898  1.00  0.00    -0.299 C  
ATOM     15  H2  CYS B   1      -7.359   9.731  72.927  1.00  0.00     0.000 HD 
ATOM     16  H1  CYS B   1      -6.176   8.515  73.037  1.00  0.00     0.000 HD 
ATOM     17  O   CYS B   1      -5.780   6.609  72.248  1.00  0.00    -0.037 OA 
ATOM     18  O   CYS C   1     -11.060   6.422  72.118  1.00  0.00    -0.238 OA 
ATOM     19  OXT GLY A   1      -8.551   5.880  66.151  1.00  0.00    -0.126 OA 
ATOM     20  O   GLY A   1     -10.624   5.121  66.595  1.00  0.00    -0.279 OA 
ATOM     21  OXT CYS B   1      -6.637   6.251  70.255  1.00  0.00    -0.042 OA 
ATOM     22  H1  CYS C   1      -9.723   6.466  68.923  1.00  0.00     0.000 HD 
ENDROOT
BRANCH   3  23
ATOM     23  CB  CYS B   1      -8.779   8.672  70.966  1.00  0.00    -0.186 C  
ATOM     24  SG  CYS B   1      -8.057   9.992  69.895  1.00  0.00    -0.121 SA 
ATOM     25  HG  CYS B   1      -8.979  10.640  69.083  1.00  0.00     0.000 H  
ENDBRANCH   3  23
BRANCH  10  26
ATOM     26  CB  CYS C   1      -9.249   4.400  71.306  1.00  0.00    -0.137 C  
ATOM     27  SG  CYS C   1     -10.033   3.128  72.383  1.00  0.00    -0.160 SA 
ATOM     28  HG  CYS C   1      -9.230   2.464  73.303  1.00  0.00     0.000 H  
ENDBRANCH  10  26
TORSDOF 2
ENDMDL
MODEL      114
REMARK 921   NORMALIZED FREE ENERGY PREDICTED BY IDOCK:   -3.00 KCAL/MOL
REMARK 922        TOTAL FREE ENERGY PREDICTED BY IDOCK:   -2.77 KCAL/MOL
REMARK 923 INTER-LIGAND FREE ENERGY PREDICTED BY IDOCK:   -3.32 KCAL/MOL
REMARK 924 INTRA-LIGAND FREE ENERGY PREDICTED BY IDOCK:    0.55 KCAL/MOL
REMARK 927      BINDING AFFINITY PREDICTED BY RF-SCORE:    0.00 PKD
ROOT
HETATM    1 FE   UNL     1     -11.838   6.481  66.271  1.00  0.00    -0.515 Fe 
ATOM      2  N   GLY A   1      -8.597   5.206  73.353  1.00  0.00    -0.116 NA 
ATOM      3  CA  CYS B   1      -8.758   8.573  69.691  1.00  0.00    -0.133 C  
ATOM      4  CA  GLY A   1      -8.464   3.889  72.707  1.00  0.00    -0.099 C  
ATOM      5  H2  GLY A   1      -9.199   5.165  74.175  1.00  0.00     0.000 HD 
ATOM      6  H1  GLY A   1      -7.679   5.590  73.574  1.00  0.00     0.000 HD 
ATOM      7  OXT CYS C   1      -7.041   4.092  69.317  1.00  0.00    -0.046 OA 
ATOM      8  C   GLY A   1      -9.848   3.309  72.373  1.00  0.00    -0.156 C  
ATOM      9  C   CYS B   1     -10.307   8.352  69.771  1.00  0.00    -0.216 C  
ATOM     10  CA  CYS C   1      -9.262   4.718  68.718  1.00  0.00    -0.124 C  
ATOM     11  N   CYS B   1      -8.595  10.008  70.057  1.00  0.00    -0.349 NA 
ATOM     12  H2  CYS C   1     -10.586   5.423  70.230  1.00  0.00     0.000 HD 
ATOM     13  N   CYS C   1      -9.592   5.387  70.003  1.00  0.00    -0.158 NA 
ATOM     14  C   CYS C   1      -7.694   4.851  68.541  1.00  0.00    -0.078 C  
ATOM     15  H2  CYS B   1      -7.632  10.334  69.972  1.00  0.00     0.000 HD 
ATOM     16  H1  CYS B   1      -9.248  10.547  69.488  1.00  0.00     0.000 HD 
ATOM     17  O   CYS B   1     -10.961   9.388  69.120  1.00  0.00    -0.192 OA 
ATOM     18  O   CYS C   1      -7.305   5.807  67.802  1.00  0.00    -0.074 OA 
ATOM     19  OXT GLY A   1     -10.911   3.742  72.794  1.00  0.00    -0.120 OA 
ATOM     20  O   GLY A   1      -9.801   2.273  71.498  1.00  0.00    -0.152 OA 
ATOM     21  OXT CYS B   1     -11.058   7.514  70.265  1.00  0.00    -0.257 OA 
ATOM     22  H1  CYS C   1      -9.014   4.866  70.663  1.00  0.00     0.000 HD 
ENDROOT
BRANCH   3  23
ATOM     23  CB  CYS B   1      -7.770   7.759  70.553  1.00  0.00    -0.088 C  
ATOM     24  SG  CYS B   1      -7.385   8.517  72.193  1.00  0.00    -0.027 SA 
ATOM     25  HG  CYS B   1      -6.495   7.783  72.969  1.00  0.00     0.000 H  
ENDBRANCH   3  23
BRANCH  10  26
ATOM     26  CB  CYS C   1     -10.120   5.492  67.738  1.00  0.00    -0.173 C  
ATOM     27  SG  CYS C   1     -10.251   4.861  66.013  1.00  0.00    -0.244 SA 
ATOM     28  HG  CYS C   1     -11.038   5.570  65.114  1.00  0.00     0.000 H  
ENDBRANCH  10  26
TORSDOF 2
ENDMDL
MODEL      115
REMARK 921   NORMALIZED FREE ENERGY PREDICTED BY IDOCK:   -2.96 KCAL/MOL
REMARK 922        TOTAL FREE ENERGY PREDICTED BY IDOCK:   -2.73 KCAL/MOL
REMARK 923 INTER-LIGAND FREE ENERGY PREDICTED BY IDOCK:   -3.31 KCAL/MOL
REMARK 924 INTRA-LIGAND FREE ENERGY PREDICTED BY IDOCK:    0.57 KCAL/MOL
REMARK 927      BINDING AFFINITY PREDICTED BY RF-SCORE:    0.00 PKD
ROOT
HETATM    1 FE   UNL     1      -9.266  10.681  64.886  1.00  0.00    -0.161 Fe 
ATOM      2  N   GLY A   1      -9.880   8.188  72.349  1.00  0.00    -0.246 NA 
ATOM      3  CA  CYS B   1      -7.014  10.994  69.403  1.00  0.00    -0.126 C  
ATOM      4  CA  GLY A   1     -10.202   6.970  71.586  1.00  0.00    -0.194 C  
ATOM      5  H2  GLY A   1     -10.669   8.500  72.914  1.00  0.00     0.000 HD 
ATOM      6  H1  GLY A   1      -9.043   8.046  72.914  1.00  0.00     0.000 HD 
ATOM      7  OXT CYS C   1      -7.766   6.265  68.917  1.00  0.00    -0.093 OA 
ATOM      8  C   GLY A   1     -11.464   7.184  70.735  1.00  0.00    -0.305 C  
ATOM      9  C   CYS B   1      -8.376  11.617  68.939  1.00  0.00     0.038 C  
ATOM     10  CA  CYS C   1      -8.990   7.933  67.733  1.00  0.00    -0.128 C  
ATOM     11  N   CYS B   1      -6.299  12.147  70.019  1.00  0.00    -0.330 NA 
ATOM     12  H2  CYS C   1     -10.224   9.285  68.824  1.00  0.00     0.000 HD 
ATOM     13  N   CYS C   1      -9.376   8.727  68.929  1.00  0.00    -0.144 NA 
ATOM     14  C   CYS C   1      -7.623   7.221  68.099  1.00  0.00    -0.115 C  
ATOM     15  H2  CYS B   1      -5.347  11.919  70.303  1.00  0.00     0.000 HD 
ATOM     16  H1  CYS B   1      -6.342  12.924  69.359  1.00  0.00     0.000 HD 
ATOM     17  O   CYS B   1      -8.140  12.816  68.280  1.00  0.00    -0.146 OA 
ATOM     18  O   CYS C   1      -6.575   7.804  67.684  1.00  0.00    -0.059 OA 
ATOM     19  OXT GLY A   1     -12.237   8.125  70.850  1.00  0.00    -0.233 OA 
ATOM     20  O   GLY A   1     -11.632   6.242  69.773  1.00  0.00    -0.436 OA 
ATOM     21  OXT CYS B   1      -9.564  11.315  69.027  1.00  0.00    -0.146 OA 
ATOM     22  H1  CYS C   1      -9.417   8.008  69.652  1.00  0.00     0.000 HD 
ENDROOT
BRANCH   3  23
ATOM     23  CB  CYS B   1      -6.950   9.819  70.401  1.00  0.00    -0.138 C  
ATOM     24  SG  CYS B   1      -5.302   9.591  71.203  1.00  0.00    -0.061 SA 
ATOM     25  HG  CYS B   1      -5.244   8.533  72.103  1.00  0.00     0.000 H  
ENDBRANCH   3  23
BRANCH  10  26
ATOM     26  CB  CYS C   1      -8.930   9.001  66.660  1.00  0.00    -0.135 C  
ATOM     27  SG  CYS C   1      -8.398   8.502  64.969  1.00  0.00    -0.151 SA 
ATOM     28  HG  CYS C   1      -8.343   9.481  63.985  1.00  0.00     0.000 H  
ENDBRANCH  10  26
TORSDOF 2
ENDMDL
MODEL      116
REMARK 921   NORMALIZED FREE ENERGY PREDICTED BY IDOCK:   -2.95 KCAL/MOL
REMARK 922        TOTAL FREE ENERGY PREDICTED BY IDOCK:   -2.72 KCAL/MOL
REMARK 923 INTER-LIGAND FREE ENERGY PREDICTED BY IDOCK:   -3.31 KCAL/MOL
REMARK 924 INTRA-LIGAND FREE ENERGY PREDICTED BY IDOCK:    0.59 KCAL/MOL
REMARK 927      BINDING AFFINITY PREDICTED BY RF-SCORE:    0.00 PKD
ROOT
HETATM    1 FE   UNL     1      -7.654   6.041  63.616  1.00  0.00    -0.047 Fe 
ATOM      2  N   GLY A   1      -7.677  10.301  70.259  1.00  0.00    -0.430 NA 
ATOM      3  CA  CYS B   1     -10.572   7.292  67.551  1.00  0.00    -0.274 C  
ATOM      4  CA  GLY A   1      -7.008  11.208  69.310  1.00  0.00    -0.118 C  
ATOM      5  H2  GLY A   1      -7.059  10.032  71.024  1.00  0.00     0.000 HD 
ATOM      6  H1  GLY A   1      -8.544  10.717  70.600  1.00  0.00     0.000 HD 
ATOM      7  OXT CYS C   1      -8.829  11.547  66.128  1.00  0.00    -0.198 OA 
ATOM      8  C   GLY A   1      -5.702  10.582  68.795  1.00  0.00    -0.040 C  
ATOM      9  C   CYS B   1      -9.308   6.365  67.522  1.00  0.00    -0.118 C  
ATOM     10  CA  CYS C   1      -7.799   9.455  65.630  1.00  0.00    -0.099 C  
ATOM     11  N   CYS B   1     -11.586   6.469  68.270  1.00  0.00    -0.498 NA 
ATOM     12  H2  CYS C   1      -7.036   8.267  67.225  1.00  0.00     0.000 HD 
ATOM     13  N   CYS C   1      -7.761   8.957  67.030  1.00  0.00    -0.098 NA 
ATOM     14  C   CYS C   1      -9.035  10.441  65.544  1.00  0.00    -0.176 C  
ATOM     15  H2  CYS B   1     -12.506   6.910  68.301  1.00  0.00     0.000 HD 
ATOM     16  H1  CYS B   1     -11.601   5.548  67.831  1.00  0.00     0.000 HD 
ATOM     17  O   CYS B   1      -9.677   5.086  67.129  1.00  0.00    -0.142 OA 
ATOM     18  O   CYS C   1     -10.105   9.939  65.081  1.00  0.00    -0.309 OA 
ATOM     19  OXT GLY A   1      -5.157   9.598  69.276  1.00  0.00    -0.036 OA 
ATOM     20  O   GLY A   1      -5.207  11.197  67.692  1.00  0.00    -0.040 OA 
ATOM     21  OXT CYS B   1      -8.111   6.492  67.766  1.00  0.00    -0.113 OA 
ATOM     22  H1  CYS C   1      -7.687   9.827  67.558  1.00  0.00     0.000 HD 
ENDROOT
BRANCH   3  23
ATOM     23  CB  CYS B   1     -10.549   8.685  68.215  1.00  0.00    -0.128 C  
ATOM     24  SG  CYS B   1     -10.888   8.670  70.030  1.00  0.00    -0.190 SA 
ATOM     25  HG  CYS B   1     -10.867   9.925  70.628  1.00  0.00     0.000 H  
ENDBRANCH   3  23
BRANCH  10  26
ATOM     26  CB  CYS C   1      -7.910   8.163  64.846  1.00  0.00    -0.128 C  
ATOM     27  SG  CYS C   1      -7.599   8.220  63.032  1.00  0.00    -0.129 SA 
ATOM     28  HG  CYS C   1      -7.701   7.035  62.313  1.00  0.00     0.000 H  
ENDBRANCH  10  26
TORSDOF 2
ENDMDL
MODEL      117
REMARK 921   NORMALIZED FREE ENERGY PREDICTED BY IDOCK:   -2.93 KCAL/MOL
REMARK 922        TOTAL FREE ENERGY PREDICTED BY IDOCK:   -2.69 KCAL/MOL
REMARK 923 INTER-LIGAND FREE ENERGY PREDICTED BY IDOCK:   -3.23 KCAL/MOL
REMARK 924 INTRA-LIGAND FREE ENERGY PREDICTED BY IDOCK:    0.54 KCAL/MOL
REMARK 927      BINDING AFFINITY PREDICTED BY RF-SCORE:    0.00 PKD
ROOT
HETATM    1 FE   UNL     1     -12.498  11.868  67.917  1.00  0.00    -0.299 Fe 
ATOM      2  N   GLY A   1      -7.119   6.107  67.529  1.00  0.00    -0.072 NA 
ATOM      3  CA  CYS B   1      -9.221   9.263  70.752  1.00  0.00    -0.253 C  
ATOM      4  CA  GLY A   1      -6.837   6.879  66.307  1.00  0.00    -0.064 C  
ATOM      5  H2  GLY A   1      -7.422   5.157  67.315  1.00  0.00     0.000 HD 
ATOM      6  H1  GLY A   1      -6.311   6.115  68.152  1.00  0.00     0.000 HD 
ATOM      7  OXT CYS C   1      -6.569  10.498  66.930  1.00  0.00    -0.073 OA 
ATOM      8  C   GLY A   1      -8.054   6.868  65.368  1.00  0.00    -0.133 C  
ATOM      9  C   CYS B   1     -10.565   8.777  70.107  1.00  0.00    -0.221 C  
ATOM     10  CA  CYS C   1      -8.951  10.400  66.918  1.00  0.00    -0.139 C  
ATOM     11  N   CYS B   1      -9.344   8.829  72.172  1.00  0.00    -0.351 NA 
ATOM     12  H2  CYS C   1      -9.914   8.523  67.212  1.00  0.00     0.000 HD 
ATOM     13  N   CYS C   1      -9.057   9.018  67.457  1.00  0.00    -0.132 NA 
ATOM     14  C   CYS C   1      -7.596  10.992  67.485  1.00  0.00    -0.106 C  
ATOM     15  H2  CYS B   1      -8.569   9.148  72.754  1.00  0.00     0.000 HD 
ATOM     16  H1  CYS B   1     -10.253   9.144  72.513  1.00  0.00     0.000 HD 
ATOM     17  O   CYS B   1     -11.629   9.125  70.927  1.00  0.00    -0.273 OA 
ATOM     18  O   CYS C   1      -7.706  11.720  68.518  1.00  0.00    -0.126 OA 
ATOM     19  OXT GLY A   1      -9.023   6.131  65.483  1.00  0.00    -0.106 OA 
ATOM     20  O   GLY A   1      -7.992   7.810  64.394  1.00  0.00    -0.133 OA 
ATOM     21  OXT CYS B   1     -10.890   8.171  69.089  1.00  0.00    -0.149 OA 
ATOM     22  H1  CYS C   1      -8.196   8.594  67.111  1.00  0.00     0.000 HD 
ENDROOT
BRANCH   3  23
ATOM     23  CB  CYS B   1      -7.847   8.786  70.237  1.00  0.00    -0.095 C  
ATOM     24  SG  CYS B   1      -7.144   7.349  71.162  1.00  0.00    -0.060 SA 
ATOM     25  HG  CYS B   1      -5.906   6.919  70.698  1.00  0.00     0.000 H  
ENDBRANCH   3  23
BRANCH  10  26
ATOM     26  CB  CYS C   1     -10.230  11.030  67.432  1.00  0.00    -0.195 C  
ATOM     27  SG  CYS C   1     -10.607  12.761  66.928  1.00  0.00    -0.246 SA 
ATOM     28  HG  CYS C   1     -11.780  13.339  67.399  1.00  0.00     0.000 H  
ENDBRANCH  10  26
TORSDOF 2
ENDMDL
MODEL      118
REMARK 921   NORMALIZED FREE ENERGY PREDICTED BY IDOCK:   -2.92 KCAL/MOL
REMARK 922        TOTAL FREE ENERGY PREDICTED BY IDOCK:   -2.68 KCAL/MOL
REMARK 923 INTER-LIGAND FREE ENERGY PREDICTED BY IDOCK:   -3.23 KCAL/MOL
REMARK 924 INTRA-LIGAND FREE ENERGY PREDICTED BY IDOCK:    0.55 KCAL/MOL
REMARK 927      BINDING AFFINITY PREDICTED BY RF-SCORE:    0.00 PKD
ROOT
HETATM    1 FE   UNL     1      -9.961  12.952  69.466  1.00  0.00    -0.401 Fe 
ATOM      2  N   GLY A   1      -7.306   5.535  68.995  1.00  0.00    -0.076 NA 
ATOM      3  CA  CYS B   1      -6.748  10.013  66.896  1.00  0.00    -0.079 C  
ATOM      4  CA  GLY A   1      -8.753   5.337  69.184  1.00  0.00    -0.100 C  
ATOM      5  H2  GLY A   1      -6.767   5.150  69.770  1.00  0.00     0.000 HD 
ATOM      6  H1  GLY A   1      -7.006   5.152  68.099  1.00  0.00     0.000 HD 
ATOM      7  OXT CYS C   1     -10.791   7.401  66.916  1.00  0.00    -0.357 OA 
ATOM      8  C   GLY A   1      -9.205   5.913  70.536  1.00  0.00    -0.152 C  
ATOM      9  C   CYS B   1      -6.647  10.519  68.376  1.00  0.00    -0.055 C  
ATOM     10  CA  CYS C   1     -10.313   9.122  68.495  1.00  0.00    -0.207 C  
ATOM     11  N   CYS B   1      -5.414  10.353  66.324  1.00  0.00    -0.055 NA 
ATOM     12  H2  CYS C   1      -8.668   8.882  69.827  1.00  0.00     0.000 HD 
ATOM     13  N   CYS C   1      -8.977   8.607  68.895  1.00  0.00    -0.141 NA 
ATOM     14  C   CYS C   1     -10.544   8.641  67.004  1.00  0.00    -0.223 C  
ATOM     15  H2  CYS B   1      -5.349  10.156  65.325  1.00  0.00     0.000 HD 
ATOM     16  H1  CYS B   1      -5.223  11.329  66.550  1.00  0.00     0.000 HD 
ATOM     17  O   CYS B   1      -6.106  11.796  68.398  1.00  0.00    -0.049 OA 
ATOM     18  O   CYS C   1     -10.274   9.494  66.105  1.00  0.00    -0.273 OA 
ATOM     19  OXT GLY A   1      -8.455   6.261  71.437  1.00  0.00    -0.126 OA 
ATOM     20  O   GLY A   1     -10.550   6.062  70.636  1.00  0.00    -0.229 OA 
ATOM     21  OXT CYS B   1      -6.912  10.065  69.487  1.00  0.00    -0.059 OA 
ATOM     22  H1  CYS C   1      -9.091   7.603  68.754  1.00  0.00     0.000 HD 
ENDROOT
BRANCH   3  23
ATOM     23  CB  CYS B   1      -7.038   8.537  66.554  1.00  0.00    -0.079 C  
ATOM     24  SG  CYS B   1      -6.717   8.086  64.791  1.00  0.00    -0.059 SA 
ATOM     25  HG  CYS B   1      -6.978   6.756  64.483  1.00  0.00     0.000 H  
ENDBRANCH   3  23
BRANCH  10  26
ATOM     26  CB  CYS C   1     -10.144  10.613  68.705  1.00  0.00    -0.183 C  
ATOM     27  SG  CYS C   1     -11.615  11.695  68.465  1.00  0.00    -0.329 SA 
ATOM     28  HG  CYS C   1     -11.460  13.063  68.657  1.00  0.00     0.000 H  
ENDBRANCH  10  26
TORSDOF 2
ENDMDL
MODEL      119
REMARK 921   NORMALIZED FREE ENERGY PREDICTED BY IDOCK:   -2.90 KCAL/MOL
REMARK 922        TOTAL FREE ENERGY PREDICTED BY IDOCK:   -2.66 KCAL/MOL
REMARK 923 INTER-LIGAND FREE ENERGY PREDICTED BY IDOCK:   -3.55 KCAL/MOL
REMARK 924 INTRA-LIGAND FREE ENERGY PREDICTED BY IDOCK:    0.88 KCAL/MOL
REMARK 927      BINDING AFFINITY PREDICTED BY RF-SCORE:    0.00 PKD
ROOT
HETATM    1 FE   UNL     1     -11.006  11.131  67.937  1.00  0.00    -0.171 Fe 
ATOM      2  N   GLY A   1      -6.617   6.113  72.161  1.00  0.00    -0.058 NA 
ATOM      3  CA  CYS B   1      -8.510   6.747  67.601  1.00  0.00    -0.122 C  
ATOM      4  CA  GLY A   1      -7.683   6.471  73.112  1.00  0.00    -0.096 C  
ATOM      5  H2  GLY A   1      -5.700   6.411  72.490  1.00  0.00     0.000 HD 
ATOM      6  H1  GLY A   1      -6.640   5.114  71.958  1.00  0.00     0.000 HD 
ATOM      7  OXT CYS C   1     -11.053   6.212  71.653  1.00  0.00    -0.256 OA 
ATOM      8  C   GLY A   1      -7.649   7.978  73.418  1.00  0.00    -0.154 C  
ATOM      9  C   CYS B   1      -7.932   8.198  67.736  1.00  0.00    -0.127 C  
ATOM     10  CA  CYS C   1     -10.506   8.326  70.697  1.00  0.00    -0.203 C  
ATOM     11  N   CYS B   1      -7.754   6.180  66.449  1.00  0.00    -0.101 NA 
ATOM     12  H2  CYS C   1      -8.461   8.914  70.578  1.00  0.00     0.000 HD 
ATOM     13  N   CYS C   1      -9.045   8.077  70.583  1.00  0.00    -0.151 NA 
ATOM     14  C   CYS C   1     -11.204   6.908  70.605  1.00  0.00    -0.301 C  
ATOM     15  H2  CYS B   1      -8.077   5.251  66.179  1.00  0.00     0.000 HD 
ATOM     16  H1  CYS B   1      -7.805   6.856  65.686  1.00  0.00     0.000 HD 
ATOM     17  O   CYS B   1      -7.878   8.796  66.486  1.00  0.00    -0.100 OA 
ATOM     18  O   CYS C   1     -11.648   6.590  69.459  1.00  0.00    -0.357 OA 
ATOM     19  OXT GLY A   1      -6.733   8.733  73.125  1.00  0.00    -0.292 OA 
ATOM     20  O   GLY A   1      -8.779   8.432  74.015  1.00  0.00    -0.167 OA 
ATOM     21  OXT CYS B   1      -7.519   8.905  68.652  1.00  0.00    -0.085 OA 
ATOM     22  H1  CYS C   1      -8.882   7.438  71.361  1.00  0.00     0.000 HD 
ENDROOT
BRANCH   3  23
ATOM     23  CB  CYS B   1      -8.432   5.725  68.755  1.00  0.00    -0.107 C  
ATOM     24  SG  CYS B   1      -8.840   3.991  68.266  1.00  0.00    -0.116 SA 
ATOM     25  HG  CYS B   1      -8.770   3.070  69.305  1.00  0.00     0.000 H  
ENDBRANCH   3  23
BRANCH  10  26
ATOM     26  CB  CYS C   1     -10.748   9.275  69.541  1.00  0.00    -0.222 C  
ATOM     27  SG  CYS C   1     -11.784  10.767  69.845  1.00  0.00    -0.362 SA 
ATOM     28  HG  CYS C   1     -12.006  11.637  68.785  1.00  0.00     0.000 H  
ENDBRANCH  10  26
TORSDOF 2
ENDMDL
MODEL      120
REMARK 921   NORMALIZED FREE ENERGY PREDICTED BY IDOCK:   -2.90 KCAL/MOL
REMARK 922        TOTAL FREE ENERGY PREDICTED BY IDOCK:   -2.66 KCAL/MOL
REMARK 923 INTER-LIGAND FREE ENERGY PREDICTED BY IDOCK:   -3.21 KCAL/MOL
REMARK 924 INTRA-LIGAND FREE ENERGY PREDICTED BY IDOCK:    0.55 KCAL/MOL
REMARK 927      BINDING AFFINITY PREDICTED BY RF-SCORE:    0.00 PKD
ROOT
HETATM    1 FE   UNL     1      -9.619  10.401  66.882  1.00  0.00    -0.152 Fe 
ATOM      2  N   GLY A   1      -6.995   5.367  72.365  1.00  0.00    -0.079 NA 
ATOM      3  CA  CYS B   1      -9.943   5.577  68.360  1.00  0.00    -0.159 C  
ATOM      4  CA  GLY A   1      -7.281   6.573  73.160  1.00  0.00    -0.081 C  
ATOM      5  H2  GLY A   1      -6.005   5.126  72.385  1.00  0.00     0.000 HD 
ATOM      6  H1  GLY A   1      -7.581   4.590  72.671  1.00  0.00     0.000 HD 
ATOM      7  OXT CYS C   1     -10.607   7.992  72.470  1.00  0.00    -0.278 OA 
ATOM      8  C   GLY A   1      -6.398   7.745  72.699  1.00  0.00    -0.063 C  
ATOM      9  C   CYS B   1      -8.731   6.323  67.704  1.00  0.00    -0.113 C  
ATOM     10  CA  CYS C   1      -9.520   8.904  70.554  1.00  0.00    -0.204 C  
ATOM     11  N   CYS B   1     -10.080   4.346  67.531  1.00  0.00    -0.069 NA 
ATOM     12  H2  CYS C   1      -7.684   8.046  69.895  1.00  0.00     0.000 HD 
ATOM     13  N   CYS C   1      -8.546   7.794  70.379  1.00  0.00    -0.136 NA 
ATOM     14  C   CYS C   1     -10.794   8.268  71.248  1.00  0.00    -0.237 C  
ATOM     15  H2  CYS B   1     -10.892   3.783  67.786  1.00  0.00     0.000 HD 
ATOM     16  H1  CYS B   1     -10.088   4.634  66.552  1.00  0.00     0.000 HD 
ATOM     17  O   CYS B   1      -8.884   6.340  66.325  1.00  0.00    -0.139 OA 
ATOM     18  O   CYS C   1     -11.743   7.954  70.466  1.00  0.00    -0.213 OA 
ATOM     19  OXT GLY A   1      -5.429   7.645  71.960  1.00  0.00    -0.036 OA 
ATOM     20  O   GLY A   1      -6.825   8.951  73.150  1.00  0.00    -0.327 OA 
ATOM     21  OXT CYS B   1      -7.705   6.869  68.104  1.00  0.00    -0.108 OA 
ATOM     22  H1  CYS C   1      -8.427   7.469  71.339  1.00  0.00     0.000 HD 
ENDROOT
BRANCH   3  23
ATOM     23  CB  CYS B   1      -9.931   5.141  69.840  1.00  0.00    -0.246 C  
ATOM     24  SG  CYS B   1      -9.205   3.468  70.136  1.00  0.00    -0.169 SA 
ATOM     25  HG  CYS B   1      -9.194   3.076  71.470  1.00  0.00     0.000 H  
ENDBRANCH   3  23
BRANCH  10  26
ATOM     26  CB  CYS C   1      -9.697   9.386  69.129  1.00  0.00    -0.165 C  
ATOM     27  SG  CYS C   1     -10.848  10.792  68.826  1.00  0.00    -0.241 SA 
ATOM     28  HG  CYS C   1     -11.010  11.234  67.518  1.00  0.00     0.000 H  
ENDBRANCH  10  26
TORSDOF 2
ENDMDL
MODEL      121
REMARK 921   NORMALIZED FREE ENERGY PREDICTED BY IDOCK:   -2.87 KCAL/MOL
REMARK 922        TOTAL FREE ENERGY PREDICTED BY IDOCK:   -2.63 KCAL/MOL
REMARK 923 INTER-LIGAND FREE ENERGY PREDICTED BY IDOCK:   -3.16 KCAL/MOL
REMARK 924 INTRA-LIGAND FREE ENERGY PREDICTED BY IDOCK:    0.54 KCAL/MOL
REMARK 927      BINDING AFFINITY PREDICTED BY RF-SCORE:    0.00 PKD
ROOT
HETATM    1 FE   UNL     1      -7.156   9.850  70.885  1.00  0.00    -0.093 Fe 
ATOM      2  N   GLY A   1      -8.038   7.151  63.522  1.00  0.00    -0.312 NA 
ATOM      3  CA  CYS B   1      -9.154  11.055  66.399  1.00  0.00    -0.178 C  
ATOM      4  CA  GLY A   1      -8.297   5.946  64.328  1.00  0.00    -0.032 C  
ATOM      5  H2  GLY A   1      -7.214   7.041  62.931  1.00  0.00     0.000 HD 
ATOM      6  H1  GLY A   1      -8.863   7.402  62.978  1.00  0.00     0.000 HD 
ATOM      7  OXT CYS C   1     -10.686   6.541  67.066  1.00  0.00    -0.287 OA 
ATOM      8  C   GLY A   1      -7.053   5.568  65.149  1.00  0.00    -0.065 C  
ATOM      9  C   CYS B   1      -7.644  10.980  66.813  1.00  0.00    -0.139 C  
ATOM     10  CA  CYS C   1      -8.784   7.473  68.159  1.00  0.00    -0.122 C  
ATOM     11  N   CYS B   1      -9.267  12.391  65.748  1.00  0.00    -0.441 NA 
ATOM     12  H2  CYS C   1      -7.099   8.058  66.993  1.00  0.00     0.000 HD 
ATOM     13  N   CYS C   1      -8.112   7.960  66.925  1.00  0.00    -0.114 NA 
ATOM     14  C   CYS C   1     -10.336   7.476  67.847  1.00  0.00    -0.210 C  
ATOM     15  H2  CYS B   1     -10.225  12.628  65.490  1.00  0.00     0.000 HD 
ATOM     16  H1  CYS B   1      -8.843  13.075  66.375  1.00  0.00     0.000 HD 
ATOM     17  O   CYS B   1      -7.268  12.167  67.426  1.00  0.00    -0.125 OA 
ATOM     18  O   CYS C   1     -10.976   8.493  68.255  1.00  0.00     0.007 OA 
ATOM     19  OXT GLY A   1      -5.934   6.032  64.982  1.00  0.00    -0.024 OA 
ATOM     20  O   GLY A   1      -7.312   4.684  66.145  1.00  0.00    -0.075 OA 
ATOM     21  OXT CYS B   1      -6.739  10.153  66.718  1.00  0.00    -0.073 OA 
ATOM     22  H1  CYS C   1      -8.438   7.285  66.232  1.00  0.00     0.000 HD 
ENDROOT
BRANCH   3  23
ATOM     23  CB  CYS B   1      -9.795  10.020  65.451  1.00  0.00    -0.314 C  
ATOM     24  SG  CYS B   1      -9.769  10.502  63.668  1.00  0.00    -0.287 SA 
ATOM     25  HG  CYS B   1     -10.346   9.569  62.814  1.00  0.00     0.000 H  
ENDBRANCH   3  23
BRANCH  10  26
ATOM     26  CB  CYS C   1      -8.300   8.474  69.188  1.00  0.00    -0.120 C  
ATOM     27  SG  CYS C   1      -8.854   8.262  70.931  1.00  0.00    -0.161 SA 
ATOM     28  HG  CYS C   1      -8.411   9.181  71.875  1.00  0.00     0.000 H  
ENDBRANCH  10  26
TORSDOF 2
ENDMDL
MODEL      122
REMARK 921   NORMALIZED FREE ENERGY PREDICTED BY IDOCK:   -2.85 KCAL/MOL
REMARK 922        TOTAL FREE ENERGY PREDICTED BY IDOCK:   -2.61 KCAL/MOL
REMARK 923 INTER-LIGAND FREE ENERGY PREDICTED BY IDOCK:   -3.15 KCAL/MOL
REMARK 924 INTRA-LIGAND FREE ENERGY PREDICTED BY IDOCK:    0.54 KCAL/MOL
REMARK 927      BINDING AFFINITY PREDICTED BY RF-SCORE:    0.00 PKD
ROOT
HETATM    1 FE   UNL     1     -11.118   2.061  72.781  1.00  0.00    -0.136 Fe 
ATOM      2  N   GLY A   1      -7.092   8.838  72.380  1.00  0.00    -0.314 NA 
ATOM      3  CA  CYS B   1     -11.309   6.712  70.807  1.00  0.00    -0.336 C  
ATOM      4  CA  GLY A   1      -6.028   7.833  72.216  1.00  0.00    -0.040 C  
ATOM      5  H2  GLY A   1      -6.964   9.390  73.228  1.00  0.00     0.000 HD 
ATOM      6  H1  GLY A   1      -7.160   9.427  71.551  1.00  0.00     0.000 HD 
ATOM      7  OXT CYS C   1      -6.851   5.272  69.701  1.00  0.00    -0.052 OA 
ATOM      8  C   GLY A   1      -5.927   6.944  73.466  1.00  0.00    -0.058 C  
ATOM      9  C   CYS B   1     -11.460   6.274  72.305  1.00  0.00    -0.306 C  
ATOM     10  CA  CYS C   1      -8.147   4.340  71.472  1.00  0.00    -0.087 C  
ATOM     11  N   CYS B   1     -12.491   7.592  70.584  1.00  0.00    -0.545 NA 
ATOM     12  H2  CYS C   1      -8.685   5.572  73.125  1.00  0.00     0.000 HD 
ATOM     13  N   CYS C   1      -8.475   5.633  72.129  1.00  0.00    -0.125 NA 
ATOM     14  C   CYS C   1      -7.939   4.666  69.936  1.00  0.00    -0.068 C  
ATOM     15  H2  CYS B   1     -12.582   7.898  69.616  1.00  0.00     0.000 HD 
ATOM     16  H1  CYS B   1     -13.314   7.091  70.921  1.00  0.00     0.000 HD 
ATOM     17  O   CYS B   1     -12.768   5.878  72.546  1.00  0.00    -0.003 OA 
ATOM     18  O   CYS C   1      -8.942   4.452  69.189  1.00  0.00    -0.091 OA 
ATOM     19  OXT GLY A   1      -6.465   7.178  74.539  1.00  0.00    -0.082 OA 
ATOM     20  O   GLY A   1      -5.210   5.810  73.265  1.00  0.00    -0.022 OA 
ATOM     21  OXT CYS B   1     -10.725   6.211  73.287  1.00  0.00    -0.242 OA 
ATOM     22  H1  CYS C   1      -7.660   6.199  71.890  1.00  0.00     0.000 HD 
ENDROOT
BRANCH   3  23
ATOM     23  CB  CYS B   1     -10.064   7.469  70.298  1.00  0.00    -0.194 C  
ATOM     24  SG  CYS B   1     -10.249   8.188  68.606  1.00  0.00    -0.203 SA 
ATOM     25  HG  CYS B   1      -9.128   8.870  68.148  1.00  0.00     0.000 H  
ENDBRANCH   3  23
BRANCH  10  26
ATOM     26  CB  CYS C   1      -9.357   3.500  71.825  1.00  0.00    -0.131 C  
ATOM     27  SG  CYS C   1      -9.339   1.717  71.366  1.00  0.00    -0.117 SA 
ATOM     28  HG  CYS C   1     -10.449   0.946  71.691  1.00  0.00     0.000 H  
ENDBRANCH  10  26
TORSDOF 2
ENDMDL
MODEL      123
REMARK 921   NORMALIZED FREE ENERGY PREDICTED BY IDOCK:   -2.83 KCAL/MOL
REMARK 922        TOTAL FREE ENERGY PREDICTED BY IDOCK:   -2.58 KCAL/MOL
REMARK 923 INTER-LIGAND FREE ENERGY PREDICTED BY IDOCK:   -3.11 KCAL/MOL
REMARK 924 INTRA-LIGAND FREE ENERGY PREDICTED BY IDOCK:    0.52 KCAL/MOL
REMARK 927      BINDING AFFINITY PREDICTED BY RF-SCORE:    0.00 PKD
ROOT
HETATM    1 FE   UNL     1      -8.302   4.961  64.737  1.00  0.00    -0.099 Fe 
ATOM      2  N   GLY A   1      -9.076   9.964  70.792  1.00  0.00    -0.325 NA 
ATOM      3  CA  CYS B   1      -6.918   5.654  69.551  1.00  0.00    -0.063 C  
ATOM      4  CA  GLY A   1     -10.443   9.923  70.245  1.00  0.00    -0.291 C  
ATOM      5  H2  GLY A   1      -8.668  10.896  70.721  1.00  0.00     0.000 HD 
ATOM      6  H1  GLY A   1      -9.063   9.617  71.750  1.00  0.00     0.000 HD 
ATOM      7  OXT CYS C   1     -11.656   6.493  69.678  1.00  0.00    -0.376 OA 
ATOM      8  C   GLY A   1     -10.462  10.447  68.800  1.00  0.00    -0.199 C  
ATOM      9  C   CYS B   1      -6.455   6.436  68.274  1.00  0.00    -0.049 C  
ATOM     10  CA  CYS C   1     -10.333   6.644  67.700  1.00  0.00    -0.199 C  
ATOM     11  N   CYS B   1      -5.636   5.299  70.222  1.00  0.00    -0.011 NA 
ATOM     12  H2  CYS C   1      -8.807   8.126  67.582  1.00  0.00     0.000 HD 
ATOM     13  N   CYS C   1      -9.302   7.554  68.266  1.00  0.00    -0.141 NA 
ATOM     14  C   CYS C   1     -10.904   5.811  68.920  1.00  0.00    -0.235 C  
ATOM     15  H2  CYS B   1      -5.767   4.707  71.042  1.00  0.00     0.000 HD 
ATOM     16  H1  CYS B   1      -5.028   4.876  69.519  1.00  0.00     0.000 HD 
ATOM     17  O   CYS B   1      -5.429   5.743  67.649  1.00  0.00    -0.008 OA 
ATOM     18  O   CYS C   1     -10.399   4.658  69.081  1.00  0.00    -0.081 OA 
ATOM     19  OXT GLY A   1      -9.543  11.043  68.257  1.00  0.00    -0.158 OA 
ATOM     20  O   GLY A   1     -11.601  10.138  68.130  1.00  0.00    -0.225 OA 
ATOM     21  OXT CYS B   1      -6.766   7.488  67.718  1.00  0.00    -0.062 OA 
ATOM     22  H1  CYS C   1      -9.842   8.074  68.958  1.00  0.00     0.000 HD 
ENDROOT
BRANCH   3  23
ATOM     23  CB  CYS B   1      -7.837   6.293  70.614  1.00  0.00    -0.107 C  
ATOM     24  SG  CYS B   1      -8.334   5.151  71.977  1.00  0.00    -0.126 SA 
ATOM     25  HG  CYS B   1      -9.161   5.727  72.935  1.00  0.00     0.000 H  
ENDBRANCH   3  23
BRANCH  10  26
ATOM     26  CB  CYS C   1      -9.532   5.872  66.672  1.00  0.00    -0.151 C  
ATOM     27  SG  CYS C   1     -10.390   4.555  65.713  1.00  0.00    -0.200 SA 
ATOM     28  HG  CYS C   1      -9.655   3.847  64.770  1.00  0.00     0.000 H  
ENDBRANCH  10  26
TORSDOF 2
ENDMDL
MODEL      124
REMARK 921   NORMALIZED FREE ENERGY PREDICTED BY IDOCK:   -2.82 KCAL/MOL
REMARK 922        TOTAL FREE ENERGY PREDICTED BY IDOCK:   -2.58 KCAL/MOL
REMARK 923 INTER-LIGAND FREE ENERGY PREDICTED BY IDOCK:   -3.15 KCAL/MOL
REMARK 924 INTRA-LIGAND FREE ENERGY PREDICTED BY IDOCK:    0.57 KCAL/MOL
REMARK 927      BINDING AFFINITY PREDICTED BY RF-SCORE:    0.00 PKD
ROOT
HETATM    1 FE   UNL     1      -9.603  13.173  67.330  1.00  0.00    -0.195 Fe 
ATOM      2  N   GLY A   1      -6.448   6.789  70.734  1.00  0.00    -0.050 NA 
ATOM      3  CA  CYS B   1      -7.111   8.901  66.276  1.00  0.00    -0.083 C  
ATOM      4  CA  GLY A   1      -7.721   6.933  71.460  1.00  0.00    -0.095 C  
ATOM      5  H2  GLY A   1      -5.645   6.901  71.352  1.00  0.00     0.000 HD 
ATOM      6  H1  GLY A   1      -6.420   5.901  70.233  1.00  0.00     0.000 HD 
ATOM      7  OXT CYS C   1     -10.607   7.391  69.220  1.00  0.00    -0.218 OA 
ATOM      8  C   GLY A   1      -7.764   8.272  72.215  1.00  0.00    -0.126 C  
ATOM      9  C   CYS B   1      -6.584  10.195  66.987  1.00  0.00    -0.074 C  
ATOM     10  CA  CYS C   1      -9.830   9.643  69.126  1.00  0.00    -0.186 C  
ATOM     11  N   CYS B   1      -6.086   8.645  65.225  1.00  0.00    -0.049 NA 
ATOM     12  H2  CYS C   1      -7.822  10.073  69.693  1.00  0.00     0.000 HD 
ATOM     13  N   CYS C   1      -8.388   9.323  69.298  1.00  0.00    -0.119 NA 
ATOM     14  C   CYS C   1     -10.483   8.378  68.434  1.00  0.00    -0.164 C  
ATOM     15  H2  CYS B   1      -6.331   7.867  64.612  1.00  0.00     0.000 HD 
ATOM     16  H1  CYS B   1      -5.939   9.519  64.719  1.00  0.00     0.000 HD 
ATOM     17  O   CYS B   1      -6.211  11.132  66.035  1.00  0.00    -0.116 OA 
ATOM     18  O   CYS C   1     -10.620   8.451  67.174  1.00  0.00    -0.311 OA 
ATOM     19  OXT GLY A   1      -6.803   9.004  72.400  1.00  0.00    -0.308 OA 
ATOM     20  O   GLY A   1      -9.009   8.618  72.629  1.00  0.00    -0.351 OA 
ATOM     21  OXT CYS B   1      -6.418  10.562  68.149  1.00  0.00    -0.061 OA 
ATOM     22  H1  CYS C   1      -8.431   8.470  69.857  1.00  0.00     0.000 HD 
ENDROOT
BRANCH   3  23
ATOM     23  CB  CYS B   1      -7.332   7.580  67.041  1.00  0.00    -0.094 C  
ATOM     24  SG  CYS B   1      -7.161   6.061  66.004  1.00  0.00    -0.075 SA 
ATOM     25  HG  CYS B   1      -7.360   4.870  66.693  1.00  0.00     0.000 H  
ENDBRANCH   3  23
BRANCH  10  26
ATOM     26  CB  CYS C   1      -9.767  10.909  68.296  1.00  0.00    -0.165 C  
ATOM     27  SG  CYS C   1     -11.339  11.810  67.966  1.00  0.00    -0.310 SA 
ATOM     28  HG  CYS C   1     -11.281  12.971  67.205  1.00  0.00     0.000 H  
ENDBRANCH  10  26
TORSDOF 2
ENDMDL
MODEL      125
REMARK 921   NORMALIZED FREE ENERGY PREDICTED BY IDOCK:   -2.81 KCAL/MOL
REMARK 922        TOTAL FREE ENERGY PREDICTED BY IDOCK:   -2.57 KCAL/MOL
REMARK 923 INTER-LIGAND FREE ENERGY PREDICTED BY IDOCK:   -3.11 KCAL/MOL
REMARK 924 INTRA-LIGAND FREE ENERGY PREDICTED BY IDOCK:    0.54 KCAL/MOL
REMARK 927      BINDING AFFINITY PREDICTED BY RF-SCORE:    0.00 PKD
ROOT
HETATM    1 FE   UNL     1      -5.592   8.292  69.456  1.00  0.00    -0.026 Fe 
ATOM      2  N   GLY A   1     -12.553   6.107  72.465  1.00  0.00    -0.514 NA 
ATOM      3  CA  CYS B   1      -8.091   4.275  71.239  1.00  0.00    -0.081 C  
ATOM      4  CA  GLY A   1     -12.955   7.004  71.368  1.00  0.00    -0.340 C  
ATOM      5  H2  GLY A   1     -12.837   6.471  73.374  1.00  0.00     0.000 HD 
ATOM      6  H1  GLY A   1     -12.909   5.165  72.306  1.00  0.00     0.000 HD 
ATOM      7  OXT CYS C   1     -11.262   6.230  68.191  1.00  0.00    -0.327 OA 
ATOM      8  C   GLY A   1     -12.419   8.425  71.608  1.00  0.00    -0.328 C  
ATOM      9  C   CYS B   1      -7.542   5.516  72.023  1.00  0.00    -0.100 C  
ATOM     10  CA  CYS C   1      -9.454   7.430  69.178  1.00  0.00    -0.149 C  
ATOM     11  N   CYS B   1      -7.575   3.117  72.023  1.00  0.00    -0.052 NA 
ATOM     12  H2  CYS C   1      -9.421   7.707  71.290  1.00  0.00     0.000 HD 
ATOM     13  N   CYS C   1      -9.760   7.055  70.583  1.00  0.00    -0.172 NA 
ATOM     14  C   CYS C   1      -9.998   6.247  68.276  1.00  0.00    -0.139 C  
ATOM     15  H2  CYS B   1      -7.783   2.218  71.588  1.00  0.00     0.000 HD 
ATOM     16  H1  CYS B   1      -6.576   3.266  72.169  1.00  0.00     0.000 HD 
ATOM     17  O   CYS B   1      -6.200   5.327  72.317  1.00  0.00    -0.029 OA 
ATOM     18  O   CYS C   1      -9.135   5.386  67.922  1.00  0.00    -0.109 OA 
ATOM     19  OXT GLY A   1     -11.946   8.828  72.660  1.00  0.00    -0.298 OA 
ATOM     20  O   GLY A   1     -12.465   9.211  70.503  1.00  0.00     0.007 OA 
ATOM     21  OXT CYS B   1      -8.004   6.578  72.435  1.00  0.00    -0.101 OA 
ATOM     22  H1  CYS C   1     -10.773   6.937  70.551  1.00  0.00     0.000 HD 
ENDROOT
BRANCH   3  23
ATOM     23  CB  CYS B   1      -9.602   4.049  71.018  1.00  0.00    -0.179 C  
ATOM     24  SG  CYS B   1     -10.388   2.904  72.236  1.00  0.00     0.040 SA 
ATOM     25  HG  CYS B   1     -11.748   2.701  72.037  1.00  0.00     0.000 H  
ENDBRANCH   3  23
BRANCH  10  26
ATOM     26  CB  CYS C   1      -7.950   7.605  69.226  1.00  0.00    -0.126 C  
ATOM     27  SG  CYS C   1      -7.107   8.284  67.736  1.00  0.00    -0.084 SA 
ATOM     28  HG  CYS C   1      -5.727   8.445  67.780  1.00  0.00     0.000 H  
ENDBRANCH  10  26
TORSDOF 2
ENDMDL
MODEL      126
REMARK 921   NORMALIZED FREE ENERGY PREDICTED BY IDOCK:   -2.80 KCAL/MOL
REMARK 922        TOTAL FREE ENERGY PREDICTED BY IDOCK:   -2.56 KCAL/MOL
REMARK 923 INTER-LIGAND FREE ENERGY PREDICTED BY IDOCK:   -3.13 KCAL/MOL
REMARK 924 INTRA-LIGAND FREE ENERGY PREDICTED BY IDOCK:    0.58 KCAL/MOL
REMARK 927      BINDING AFFINITY PREDICTED BY RF-SCORE:    0.00 PKD
ROOT
HETATM    1 FE   UNL     1      -6.756   2.992  67.827  1.00  0.00    -0.036 Fe 
ATOM      2  N   GLY A   1      -9.366  10.126  69.966  1.00  0.00    -0.396 NA 
ATOM      3  CA  CYS B   1      -7.293   6.011  71.847  1.00  0.00    -0.094 C  
ATOM      4  CA  GLY A   1     -10.411   9.680  69.030  1.00  0.00    -0.213 C  
ATOM      5  H2  GLY A   1      -8.881  10.955  69.625  1.00  0.00     0.000 HD 
ATOM      6  H1  GLY A   1      -9.758  10.272  70.896  1.00  0.00     0.000 HD 
ATOM      7  OXT CYS C   1     -11.613   6.273  69.739  1.00  0.00    -0.436 OA 
ATOM      8  C   GLY A   1      -9.821   9.459  67.627  1.00  0.00    -0.174 C  
ATOM      9  C   CYS B   1      -6.303   6.149  70.641  1.00  0.00    -0.039 C  
ATOM     10  CA  CYS C   1      -9.618   5.626  68.605  1.00  0.00    -0.130 C  
ATOM     11  N   CYS B   1      -6.409   6.158  73.038  1.00  0.00    -0.062 NA 
ATOM     12  H2  CYS C   1      -8.039   7.042  68.392  1.00  0.00     0.000 HD 
ATOM     13  N   CYS C   1      -8.810   6.805  69.016  1.00  0.00    -0.130 NA 
ATOM     14  C   CYS C   1     -10.690   5.404  69.749  1.00  0.00    -0.210 C  
ATOM     15  H2  CYS B   1      -6.901   6.008  73.919  1.00  0.00     0.000 HD 
ATOM     16  H1  CYS B   1      -5.618   5.526  72.913  1.00  0.00     0.000 HD 
ATOM     17  O   CYS B   1      -5.181   5.365  70.865  1.00  0.00    -0.004 OA 
ATOM     18  O   CYS C   1     -10.392   4.526  70.615  1.00  0.00    -0.150 OA 
ATOM     19  OXT GLY A   1      -8.713   9.831  67.265  1.00  0.00    -0.131 OA 
ATOM     20  O   GLY A   1     -10.633   8.747  66.806  1.00  0.00    -0.258 OA 
ATOM     21  OXT CYS B   1      -6.277   6.776  69.583  1.00  0.00    -0.031 OA 
ATOM     22  H1  CYS C   1      -9.527   7.524  69.114  1.00  0.00     0.000 HD 
ENDROOT
BRANCH   3  23
ATOM     23  CB  CYS B   1      -8.491   6.965  72.037  1.00  0.00    -0.110 C  
ATOM     24  SG  CYS B   1      -8.815   7.441  73.792  1.00  0.00    -0.237 SA 
ATOM     25  HG  CYS B   1      -9.894   8.302  73.962  1.00  0.00     0.000 H  
ENDBRANCH   3  23
BRANCH  10  26
ATOM     26  CB  CYS C   1      -8.553   4.558  68.460  1.00  0.00    -0.093 C  
ATOM     27  SG  CYS C   1      -9.059   2.911  67.812  1.00  0.00    -0.195 SA 
ATOM     28  HG  CYS C   1      -8.083   1.931  67.680  1.00  0.00     0.000 H  
ENDBRANCH  10  26
TORSDOF 2
ENDMDL
MODEL      127
REMARK 921   NORMALIZED FREE ENERGY PREDICTED BY IDOCK:   -2.80 KCAL/MOL
REMARK 922        TOTAL FREE ENERGY PREDICTED BY IDOCK:   -2.55 KCAL/MOL
REMARK 923 INTER-LIGAND FREE ENERGY PREDICTED BY IDOCK:   -3.70 KCAL/MOL
REMARK 924 INTRA-LIGAND FREE ENERGY PREDICTED BY IDOCK:    1.16 KCAL/MOL
REMARK 927      BINDING AFFINITY PREDICTED BY RF-SCORE:    0.00 PKD
ROOT
HETATM    1 FE   UNL     1      -8.724  17.848  68.646  1.00  0.00    -0.247 Fe 
ATOM      2  N   GLY A   1     -12.601  11.708  65.557  1.00  0.00     0.875 NA 
ATOM      3  CA  CYS B   1     -11.450  13.788  69.929  1.00  0.00    -0.160 C  
ATOM      4  CA  GLY A   1     -11.379  11.749  64.737  1.00  0.00    -0.249 C  
ATOM      5  H2  GLY A   1     -13.437  11.878  64.999  1.00  0.00     0.000 HD 
ATOM      6  H1  GLY A   1     -12.660  10.827  66.068  1.00  0.00     0.000 HD 
ATOM      7  OXT CYS C   1      -8.308  11.996  66.754  1.00  0.00    -0.181 OA 
ATOM      8  C   GLY A   1     -11.289  13.076  63.966  1.00  0.00    -0.410 C  
ATOM      9  C   CYS B   1     -11.928  15.115  69.244  1.00  0.00    -0.292 C  
ATOM     10  CA  CYS C   1      -8.902  14.301  66.879  1.00  0.00    -0.213 C  
ATOM     11  N   CYS B   1     -12.411  13.618  71.056  1.00  0.00    -0.368 NA 
ATOM     12  H2  CYS C   1     -10.907  14.882  66.456  1.00  0.00     0.000 HD 
ATOM     13  N   CYS C   1     -10.372  14.092  66.817  1.00  0.00    -0.272 NA 
ATOM     14  C   CYS C   1      -8.297  12.993  67.536  1.00  0.00    -0.184 C  
ATOM     15  H2  CYS B   1     -12.181  12.827  71.658  1.00  0.00     0.000 HD 
ATOM     16  H1  CYS B   1     -12.452  14.503  71.561  1.00  0.00     0.000 HD 
ATOM     17  O   CYS B   1     -12.157  16.084  70.210  1.00  0.00    -0.318 OA 
ATOM     18  O   CYS C   1      -8.062  13.064  68.781  1.00  0.00    -0.053 OA 
ATOM     19  OXT GLY A   1     -12.203  13.879  63.844  1.00  0.00    -0.591 OA 
ATOM     20  O   GLY A   1     -10.056  13.322  63.458  1.00  0.00     0.181 OA 
ATOM     21  OXT CYS B   1     -12.151  15.486  68.094  1.00  0.00    -0.124 OA 
ATOM     22  H1  CYS C   1     -10.437  13.236  66.266  1.00  0.00     0.000 HD 
ENDROOT
BRANCH   3  23
ATOM     23  CB  CYS B   1     -11.388  12.449  69.166  1.00  0.00    -0.269 C  
ATOM     24  SG  CYS B   1     -11.975  10.990  70.135  1.00  0.00    -0.389 SA 
ATOM     25  HG  CYS B   1     -11.919   9.784  69.447  1.00  0.00     0.000 H  
ENDBRANCH   3  23
BRANCH  10  26
ATOM     26  CB  CYS C   1      -8.806  15.573  67.697  1.00  0.00    -0.179 C  
ATOM     27  SG  CYS C   1      -8.808  17.182  66.802  1.00  0.00    -0.260 SA 
ATOM     28  HG  CYS C   1      -8.720  18.349  67.552  1.00  0.00     0.000 H  
ENDBRANCH  10  26
TORSDOF 2
ENDMDL
MODEL      128
REMARK 921   NORMALIZED FREE ENERGY PREDICTED BY IDOCK:   -2.79 KCAL/MOL
REMARK 922        TOTAL FREE ENERGY PREDICTED BY IDOCK:   -2.54 KCAL/MOL
REMARK 923 INTER-LIGAND FREE ENERGY PREDICTED BY IDOCK:   -3.21 KCAL/MOL
REMARK 924 INTRA-LIGAND FREE ENERGY PREDICTED BY IDOCK:    0.66 KCAL/MOL
REMARK 927      BINDING AFFINITY PREDICTED BY RF-SCORE:    0.00 PKD
ROOT
HETATM    1 FE   UNL     1      -7.140   8.834  72.826  1.00  0.00    -0.106 Fe 
ATOM      2  N   GLY A   1      -9.901   9.302  65.448  1.00  0.00    -0.444 NA 
ATOM      3  CA  CYS B   1     -10.747   7.014  69.787  1.00  0.00    -0.241 C  
ATOM      4  CA  GLY A   1      -8.444   9.272  65.235  1.00  0.00    -0.154 C  
ATOM      5  H2  GLY A   1     -10.313  10.177  65.127  1.00  0.00     0.000 HD 
ATOM      6  H1  GLY A   1     -10.343   8.492  65.013  1.00  0.00     0.000 HD 
ATOM      7  OXT CYS C   1      -6.776   6.573  67.103  1.00  0.00    -0.056 OA 
ATOM      8  C   GLY A   1      -7.777  10.492  65.891  1.00  0.00    -0.148 C  
ATOM      9  C   CYS B   1     -10.607   8.453  70.392  1.00  0.00    -0.223 C  
ATOM     10  CA  CYS C   1      -6.980   8.085  68.934  1.00  0.00    -0.062 C  
ATOM     11  N   CYS B   1     -12.152   6.639  70.114  1.00  0.00    -0.595 NA 
ATOM     12  H2  CYS C   1      -8.394   9.675  68.816  1.00  0.00     0.000 HD 
ATOM     13  N   CYS C   1      -8.240   8.727  68.473  1.00  0.00    -0.116 NA 
ATOM     14  C   CYS C   1      -6.995   6.614  68.350  1.00  0.00    -0.080 C  
ATOM     15  H2  CYS B   1     -12.378   5.679  69.853  1.00  0.00     0.000 HD 
ATOM     16  H1  CYS B   1     -12.297   6.825  71.107  1.00  0.00     0.000 HD 
ATOM     17  O   CYS B   1     -11.126   8.472  71.678  1.00  0.00    -0.253 OA 
ATOM     18  O   CYS C   1      -7.397   5.712  69.147  1.00  0.00    -0.074 OA 
ATOM     19  OXT GLY A   1      -8.371  11.474  66.312  1.00  0.00    -0.159 OA 
ATOM     20  O   GLY A   1      -6.433  10.367  66.019  1.00  0.00    -0.101 OA 
ATOM     21  OXT CYS B   1     -10.171   9.537  70.007  1.00  0.00    -0.210 OA 
ATOM     22  H1  CYS C   1      -8.159   8.639  67.460  1.00  0.00     0.000 HD 
ENDROOT
BRANCH   3  23
ATOM     23  CB  CYS B   1     -10.529   6.732  68.286  1.00  0.00    -0.206 C  
ATOM     24  SG  CYS B   1     -10.327   4.945  67.867  1.00  0.00     0.098 SA 
ATOM     25  HG  CYS B   1     -10.131   4.691  66.515  1.00  0.00     0.000 H  
ENDBRANCH   3  23
BRANCH  10  26
ATOM     26  CB  CYS C   1      -7.101   8.216  70.439  1.00  0.00    -0.041 C  
ATOM     27  SG  CYS C   1      -5.732   7.557  71.479  1.00  0.00    -0.035 SA 
ATOM     28  HG  CYS C   1      -5.842   7.676  72.859  1.00  0.00     0.000 H  
ENDBRANCH  10  26
TORSDOF 2
ENDMDL
MODEL      129
REMARK 921   NORMALIZED FREE ENERGY PREDICTED BY IDOCK:   -2.74 KCAL/MOL
REMARK 922        TOTAL FREE ENERGY PREDICTED BY IDOCK:   -2.49 KCAL/MOL
REMARK 923 INTER-LIGAND FREE ENERGY PREDICTED BY IDOCK:   -3.02 KCAL/MOL
REMARK 924 INTRA-LIGAND FREE ENERGY PREDICTED BY IDOCK:    0.54 KCAL/MOL
REMARK 927      BINDING AFFINITY PREDICTED BY RF-SCORE:    0.00 PKD
ROOT
HETATM    1 FE   UNL     1      -9.764   4.078  70.199  1.00  0.00    -0.112 Fe 
ATOM      2  N   GLY A   1      -9.444  11.343  67.133  1.00  0.00    -0.174 NA 
ATOM      3  CA  CYS B   1      -7.100   6.955  67.006  1.00  0.00    -0.076 C  
ATOM      4  CA  GLY A   1      -9.751  11.615  68.548  1.00  0.00    -0.184 C  
ATOM      5  H2  GLY A   1     -10.194  11.656  66.517  1.00  0.00     0.000 HD 
ATOM      6  H1  GLY A   1      -8.547  11.754  66.877  1.00  0.00     0.000 HD 
ATOM      7  OXT CYS C   1      -7.549   9.792  70.868  1.00  0.00    -0.319 OA 
ATOM      8  C   GLY A   1     -11.105  10.997  68.935  1.00  0.00    -0.239 C  
ATOM      9  C   CYS B   1      -8.543   6.369  66.829  1.00  0.00    -0.113 C  
ATOM     10  CA  CYS C   1      -9.005   7.967  70.385  1.00  0.00    -0.146 C  
ATOM     11  N   CYS B   1      -6.414   6.569  65.741  1.00  0.00    -0.042 NA 
ATOM     12  H2  CYS C   1     -10.218   8.042  68.635  1.00  0.00     0.000 HD 
ATOM     13  N   CYS C   1      -9.326   8.383  68.994  1.00  0.00    -0.147 NA 
ATOM     14  C   CYS C   1      -7.560   8.538  70.693  1.00  0.00    -0.076 C  
ATOM     15  H2  CYS B   1      -5.423   6.812  65.737  1.00  0.00     0.000 HD 
ATOM     16  H1  CYS B   1      -6.578   5.572  65.594  1.00  0.00     0.000 HD 
ATOM     17  O   CYS B   1      -8.463   5.063  66.368  1.00  0.00    -0.111 OA 
ATOM     18  O   CYS C   1      -6.603   7.717  70.542  1.00  0.00    -0.038 OA 
ATOM     19  OXT GLY A   1     -11.929  10.560  68.145  1.00  0.00    -0.375 OA 
ATOM     20  O   GLY A   1     -11.299  10.921  70.276  1.00  0.00    -0.299 OA 
ATOM     21  OXT CYS B   1      -9.691   6.779  66.985  1.00  0.00    -0.142 OA 
ATOM     22  H1  CYS C   1      -9.242   9.398  69.056  1.00  0.00     0.000 HD 
ENDROOT
BRANCH   3  23
ATOM     23  CB  CYS B   1      -6.851   8.461  67.229  1.00  0.00    -0.070 C  
ATOM     24  SG  CYS B   1      -6.435   9.400  65.694  1.00  0.00    -0.071 SA 
ATOM     25  HG  CYS B   1      -6.211  10.757  65.894  1.00  0.00     0.000 H  
ENDBRANCH   3  23
BRANCH  10  26
ATOM     26  CB  CYS C   1      -9.130   6.460  70.293  1.00  0.00    -0.155 C  
ATOM     27  SG  CYS C   1      -8.954   5.479  71.841  1.00  0.00    -0.135 SA 
ATOM     28  HG  CYS C   1      -9.069   4.097  71.757  1.00  0.00     0.000 H  
ENDBRANCH  10  26
TORSDOF 2
ENDMDL
MODEL      130
REMARK 921   NORMALIZED FREE ENERGY PREDICTED BY IDOCK:   -2.74 KCAL/MOL
REMARK 922        TOTAL FREE ENERGY PREDICTED BY IDOCK:   -2.48 KCAL/MOL
REMARK 923 INTER-LIGAND FREE ENERGY PREDICTED BY IDOCK:   -3.21 KCAL/MOL
REMARK 924 INTRA-LIGAND FREE ENERGY PREDICTED BY IDOCK:    0.73 KCAL/MOL
REMARK 927      BINDING AFFINITY PREDICTED BY RF-SCORE:    0.00 PKD
ROOT
HETATM    1 FE   UNL     1      -8.320   8.689  74.082  1.00  0.00    -0.207 Fe 
ATOM      2  N   GLY A   1     -10.840   7.742  66.663  1.00  0.00    -0.337 NA 
ATOM      3  CA  CYS B   1      -9.379   5.136  70.644  1.00  0.00    -0.159 C  
ATOM      4  CA  GLY A   1      -9.902   8.870  66.532  1.00  0.00    -0.274 C  
ATOM      5  H2  GLY A   1     -11.793   8.012  66.424  1.00  0.00     0.000 HD 
ATOM      6  H1  GLY A   1     -10.521   6.946  66.110  1.00  0.00     0.000 HD 
ATOM      7  OXT CYS C   1      -6.661   8.238  68.162  1.00  0.00    -0.062 OA 
ATOM      8  C   GLY A   1     -10.381  10.070  67.366  1.00  0.00    -0.238 C  
ATOM      9  C   CYS B   1     -10.365   6.074  71.422  1.00  0.00    -0.220 C  
ATOM     10  CA  CYS C   1      -7.855   8.809  70.144  1.00  0.00    -0.094 C  
ATOM     11  N   CYS B   1      -9.965   3.780  70.843  1.00  0.00    -0.115 NA 
ATOM     12  H2  CYS C   1      -9.984   8.732  70.133  1.00  0.00     0.000 HD 
ATOM     13  N   CYS C   1      -9.175   8.297  69.690  1.00  0.00    -0.157 NA 
ATOM     14  C   CYS C   1      -6.763   7.945  69.390  1.00  0.00    -0.039 C  
ATOM     15  H2  CYS B   1      -9.384   3.036  70.457  1.00  0.00     0.000 HD 
ATOM     16  H1  CYS B   1     -10.146   3.666  71.840  1.00  0.00     0.000 HD 
ATOM     17  O   CYS B   1     -10.639   5.532  72.669  1.00  0.00    -0.203 OA 
ATOM     18  O   CYS C   1      -6.281   6.974  70.050  1.00  0.00    -0.030 OA 
ATOM     19  OXT GLY A   1     -11.492  10.178  67.866  1.00  0.00    -0.283 OA 
ATOM     20  O   GLY A   1      -9.423  11.011  67.557  1.00  0.00    -0.162 OA 
ATOM     21  OXT CYS B   1     -10.943   7.135  71.195  1.00  0.00    -0.241 OA 
ATOM     22  H1  CYS C   1      -9.111   8.426  68.680  1.00  0.00     0.000 HD 
ENDROOT
BRANCH   3  23
ATOM     23  CB  CYS B   1      -9.105   5.308  69.135  1.00  0.00    -0.108 C  
ATOM     24  SG  CYS B   1      -9.029   3.723  68.190  1.00  0.00    -0.139 SA 
ATOM     25  HG  CYS B   1      -8.783   3.878  66.830  1.00  0.00     0.000 H  
ENDBRANCH   3  23
BRANCH  10  26
ATOM     26  CB  CYS C   1      -7.950   8.618  71.644  1.00  0.00    -0.119 C  
ATOM     27  SG  CYS C   1      -6.392   8.661  72.624  1.00  0.00    -0.022 SA 
ATOM     28  HG  CYS C   1      -6.478   8.485  74.000  1.00  0.00     0.000 H  
ENDBRANCH  10  26
TORSDOF 2
ENDMDL
MODEL      131
REMARK 921   NORMALIZED FREE ENERGY PREDICTED BY IDOCK:   -2.73 KCAL/MOL
REMARK 922        TOTAL FREE ENERGY PREDICTED BY IDOCK:   -2.47 KCAL/MOL
REMARK 923 INTER-LIGAND FREE ENERGY PREDICTED BY IDOCK:   -3.04 KCAL/MOL
REMARK 924 INTRA-LIGAND FREE ENERGY PREDICTED BY IDOCK:    0.57 KCAL/MOL
REMARK 927      BINDING AFFINITY PREDICTED BY RF-SCORE:    0.00 PKD
ROOT
HETATM    1 FE   UNL     1      -7.523   9.278  66.794  1.00  0.00    -0.079 Fe 
ATOM      2  N   GLY A   1      -9.021   4.548  72.931  1.00  0.00    -0.117 NA 
ATOM      3  CA  CYS B   1      -8.025   4.408  68.057  1.00  0.00    -0.080 C  
ATOM      4  CA  GLY A   1      -9.995   5.635  73.130  1.00  0.00    -0.175 C  
ATOM      5  H2  GLY A   1      -8.348   4.498  73.695  1.00  0.00     0.000 HD 
ATOM      6  H1  GLY A   1      -9.501   3.659  72.789  1.00  0.00     0.000 HD 
ATOM      7  OXT CYS C   1     -11.895   6.433  70.079  1.00  0.00    -0.404 OA 
ATOM      8  C   GLY A   1      -9.272   6.975  73.343  1.00  0.00    -0.153 C  
ATOM      9  C   CYS B   1      -6.873   5.404  68.425  1.00  0.00    -0.056 C  
ATOM     10  CA  CYS C   1      -9.922   7.634  69.492  1.00  0.00    -0.182 C  
ATOM     11  N   CYS B   1      -7.298   3.219  67.528  1.00  0.00    -0.058 NA 
ATOM     12  H2  CYS C   1      -8.093   7.175  70.484  1.00  0.00     0.000 HD 
ATOM     13  N   CYS C   1      -8.971   6.740  70.204  1.00  0.00    -0.148 NA 
ATOM     14  C   CYS C   1     -11.161   6.733  69.091  1.00  0.00    -0.218 C  
ATOM     15  H2  CYS B   1      -7.924   2.500  67.164  1.00  0.00     0.000 HD 
ATOM     16  H1  CYS B   1      -6.629   3.552  66.834  1.00  0.00     0.000 HD 
ATOM     17  O   CYS B   1      -5.957   5.465  67.384  1.00  0.00    -0.023 OA 
ATOM     18  O   CYS C   1     -11.152   6.286  67.903  1.00  0.00    -0.332 OA 
ATOM     19  OXT GLY A   1      -8.077   7.100  73.566  1.00  0.00    -0.104 OA 
ATOM     20  O   GLY A   1     -10.085   8.053  73.206  1.00  0.00    -0.310 OA 
ATOM     21  OXT CYS B   1      -6.588   6.112  69.388  1.00  0.00    -0.041 OA 
ATOM     22  H1  CYS C   1      -9.548   6.393  70.971  1.00  0.00     0.000 HD 
ENDROOT
BRANCH   3  23
ATOM     23  CB  CYS B   1      -9.038   3.904  69.106  1.00  0.00    -0.136 C  
ATOM     24  SG  CYS B   1      -9.045   2.072  69.341  1.00  0.00    -0.116 SA 
ATOM     25  HG  CYS B   1      -9.957   1.619  70.287  1.00  0.00     0.000 H  
ENDBRANCH   3  23
BRANCH  10  26
ATOM     26  CB  CYS C   1      -9.065   8.149  68.353  1.00  0.00    -0.136 C  
ATOM     27  SG  CYS C   1      -9.770   9.451  67.257  1.00  0.00    -0.176 SA 
ATOM     28  HG  CYS C   1      -8.985   9.923  66.213  1.00  0.00     0.000 H  
ENDBRANCH  10  26
TORSDOF 2
ENDMDL
MODEL      132
REMARK 921   NORMALIZED FREE ENERGY PREDICTED BY IDOCK:   -2.73 KCAL/MOL
REMARK 922        TOTAL FREE ENERGY PREDICTED BY IDOCK:   -2.47 KCAL/MOL
REMARK 923 INTER-LIGAND FREE ENERGY PREDICTED BY IDOCK:   -2.98 KCAL/MOL
REMARK 924 INTRA-LIGAND FREE ENERGY PREDICTED BY IDOCK:    0.51 KCAL/MOL
REMARK 927      BINDING AFFINITY PREDICTED BY RF-SCORE:    0.00 PKD
ROOT
HETATM    1 FE   UNL     1     -10.695   7.961  66.920  1.00  0.00    -0.222 Fe 
ATOM      2  N   GLY A   1      -7.456   3.227  72.341  1.00  0.00    -0.055 NA 
ATOM      3  CA  CYS B   1     -10.494   7.145  71.906  1.00  0.00    -0.197 C  
ATOM      4  CA  GLY A   1      -6.330   3.464  71.422  1.00  0.00    -0.015 C  
ATOM      5  H2  GLY A   1      -7.724   2.244  72.366  1.00  0.00     0.000 HD 
ATOM      6  H1  GLY A   1      -7.239   3.584  73.271  1.00  0.00     0.000 HD 
ATOM      7  OXT CYS C   1      -5.856   7.027  70.624  1.00  0.00    -0.027 OA 
ATOM      8  C   GLY A   1      -6.656   2.926  70.019  1.00  0.00    -0.033 C  
ATOM      9  C   CYS B   1     -11.189   6.283  70.798  1.00  0.00    -0.324 C  
ATOM     10  CA  CYS C   1      -7.662   6.649  69.114  1.00  0.00    -0.106 C  
ATOM     11  N   CYS B   1     -11.563   7.315  72.931  1.00  0.00    -0.563 NA 
ATOM     12  H2  CYS C   1      -8.919   4.953  69.403  1.00  0.00     0.000 HD 
ATOM     13  N   CYS C   1      -8.336   5.604  69.929  1.00  0.00    -0.115 NA 
ATOM     14  C   CYS C   1      -6.889   7.577  70.139  1.00  0.00    -0.051 C  
ATOM     15  H2  CYS B   1     -11.287   7.934  73.694  1.00  0.00     0.000 HD 
ATOM     16  H1  CYS B   1     -12.404   7.631  72.448  1.00  0.00     0.000 HD 
ATOM     17  O   CYS B   1     -12.444   6.804  70.518  1.00  0.00    -0.273 OA 
ATOM     18  O   CYS C   1      -7.490   8.644  70.472  1.00  0.00    -0.059 OA 
ATOM     19  OXT GLY A   1      -7.595   2.190  69.750  1.00  0.00    -0.043 OA 
ATOM     20  O   GLY A   1      -5.822   3.391  69.055  1.00  0.00    -0.021 OA 
ATOM     21  OXT CYS B   1     -10.902   5.281  70.146  1.00  0.00    -0.240 OA 
ATOM     22  H1  CYS C   1      -7.547   5.182  70.419  1.00  0.00     0.000 HD 
ENDROOT
BRANCH   3  23
ATOM     23  CB  CYS B   1      -9.221   6.668  72.637  1.00  0.00    -0.139 C  
ATOM     24  SG  CYS B   1      -8.561   7.865  73.879  1.00  0.00    -0.259 SA 
ATOM     25  HG  CYS B   1      -7.415   7.435  74.538  1.00  0.00     0.000 H  
ENDBRANCH   3  23
BRANCH  10  26
ATOM     26  CB  CYS C   1      -8.833   7.276  68.386  1.00  0.00    -0.128 C  
ATOM     27  SG  CYS C   1      -8.475   8.513  67.070  1.00  0.00    -0.114 SA 
ATOM     28  HG  CYS C   1      -9.550   9.088  66.403  1.00  0.00     0.000 H  
ENDBRANCH  10  26
TORSDOF 2
ENDMDL
MODEL      133
REMARK 921   NORMALIZED FREE ENERGY PREDICTED BY IDOCK:   -2.70 KCAL/MOL
REMARK 922        TOTAL FREE ENERGY PREDICTED BY IDOCK:   -2.44 KCAL/MOL
REMARK 923 INTER-LIGAND FREE ENERGY PREDICTED BY IDOCK:   -3.04 KCAL/MOL
REMARK 924 INTRA-LIGAND FREE ENERGY PREDICTED BY IDOCK:    0.60 KCAL/MOL
REMARK 927      BINDING AFFINITY PREDICTED BY RF-SCORE:    0.00 PKD
ROOT
HETATM    1 FE   UNL     1      -9.620   4.519  70.262  1.00  0.00    -0.103 Fe 
ATOM      2  N   GLY A   1      -9.774  10.951  65.692  1.00  0.00    -0.219 NA 
ATOM      3  CA  CYS B   1      -8.185   6.234  65.728  1.00  0.00    -0.136 C  
ATOM      4  CA  GLY A   1      -9.447  11.514  67.013  1.00  0.00    -0.183 C  
ATOM      5  H2  GLY A   1     -10.670  11.293  65.345  1.00  0.00     0.000 HD 
ATOM      6  H1  GLY A   1      -9.019  11.129  65.030  1.00  0.00     0.000 HD 
ATOM      7  OXT CYS C   1      -6.708   9.722  68.698  1.00  0.00    -0.051 OA 
ATOM      8  C   GLY A   1     -10.585  11.246  68.011  1.00  0.00    -0.195 C  
ATOM      9  C   CYS B   1      -9.630   5.918  66.246  1.00  0.00    -0.119 C  
ATOM     10  CA  CYS C   1      -8.426   8.159  69.235  1.00  0.00    -0.134 C  
ATOM     11  N   CYS B   1      -8.119   5.512  64.426  1.00  0.00    -0.120 NA 
ATOM     12  H2  CYS C   1     -10.230   8.169  68.101  1.00  0.00     0.000 HD 
ATOM     13  N   CYS C   1      -9.237   8.385  68.010  1.00  0.00    -0.137 NA 
ATOM     14  C   CYS C   1      -6.928   8.482  68.838  1.00  0.00    -0.062 C  
ATOM     15  H2  CYS B   1      -7.196   5.554  63.994  1.00  0.00     0.000 HD 
ATOM     16  H1  CYS B   1      -8.438   4.556  64.589  1.00  0.00     0.000 HD 
ATOM     17  O   CYS B   1      -9.890   4.562  66.107  1.00  0.00    -0.186 OA 
ATOM     18  O   CYS C   1      -6.212   7.478  68.537  1.00  0.00    -0.030 OA 
ATOM     19  OXT GLY A   1     -11.702  10.850  67.712  1.00  0.00    -0.569 OA 
ATOM     20  O   GLY A   1     -10.224  11.440  69.304  1.00  0.00    -0.122 OA 
ATOM     21  OXT CYS B   1     -10.562   6.565  66.719  1.00  0.00    -0.260 OA 
ATOM     22  H1  CYS C   1      -9.023   9.360  67.797  1.00  0.00     0.000 HD 
ENDROOT
BRANCH   3  23
ATOM     23  CB  CYS B   1      -7.701   7.679  65.482  1.00  0.00    -0.101 C  
ATOM     24  SG  CYS B   1      -8.189   8.377  63.843  1.00  0.00    -0.053 SA 
ATOM     25  HG  CYS B   1      -7.754   9.679  63.622  1.00  0.00     0.000 H  
ENDBRANCH   3  23
BRANCH  10  26
ATOM     26  CB  CYS C   1      -8.744   6.712  69.552  1.00  0.00    -0.135 C  
ATOM     27  SG  CYS C   1      -8.207   6.043  71.181  1.00  0.00    -0.124 SA 
ATOM     28  HG  CYS C   1      -8.498   4.716  71.472  1.00  0.00     0.000 H  
ENDBRANCH  10  26
TORSDOF 2
ENDMDL
MODEL      134
REMARK 921   NORMALIZED FREE ENERGY PREDICTED BY IDOCK:   -2.69 KCAL/MOL
REMARK 922        TOTAL FREE ENERGY PREDICTED BY IDOCK:   -2.43 KCAL/MOL
REMARK 923 INTER-LIGAND FREE ENERGY PREDICTED BY IDOCK:   -3.03 KCAL/MOL
REMARK 924 INTRA-LIGAND FREE ENERGY PREDICTED BY IDOCK:    0.59 KCAL/MOL
REMARK 927      BINDING AFFINITY PREDICTED BY RF-SCORE:    0.00 PKD
ROOT
HETATM    1 FE   UNL     1     -11.168  11.856  70.770  1.00  0.00    -0.475 Fe 
ATOM      2  N   GLY A   1      -5.517   6.361  71.150  1.00  0.00    -0.025 NA 
ATOM      3  CA  CYS B   1      -7.468   9.734  68.055  1.00  0.00    -0.082 C  
ATOM      4  CA  GLY A   1      -6.650   5.688  71.807  1.00  0.00    -0.053 C  
ATOM      5  H2  GLY A   1      -4.734   6.496  71.789  1.00  0.00     0.000 HD 
ATOM      6  H1  GLY A   1      -5.237   5.852  70.311  1.00  0.00     0.000 HD 
ATOM      7  OXT CYS C   1      -9.773   5.919  69.871  1.00  0.00    -0.156 OA 
ATOM      8  C   GLY A   1      -7.072   6.454  73.072  1.00  0.00    -0.082 C  
ATOM      9  C   CYS B   1      -7.354  10.697  69.287  1.00  0.00    -0.119 C  
ATOM     10  CA  CYS C   1      -9.876   8.106  70.814  1.00  0.00    -0.180 C  
ATOM     11  N   CYS B   1      -6.566  10.358  67.045  1.00  0.00    -0.073 NA 
ATOM     12  H2  CYS C   1      -8.101   8.981  71.603  1.00  0.00     0.000 HD 
ATOM     13  N   CYS C   1      -8.406   8.316  70.892  1.00  0.00    -0.122 NA 
ATOM     14  C   CYS C   1     -10.116   7.110  69.607  1.00  0.00    -0.192 C  
ATOM     15  H2  CYS B   1      -6.593   9.884  66.142  1.00  0.00     0.000 HD 
ATOM     16  H1  CYS B   1      -6.810  11.346  66.984  1.00  0.00     0.000 HD 
ATOM     17  O   CYS B   1      -7.469  12.013  68.863  1.00  0.00    -0.108 OA 
ATOM     18  O   CYS C   1     -10.433   7.652  68.504  1.00  0.00    -0.200 OA 
ATOM     19  OXT GLY A   1      -6.423   7.343  73.604  1.00  0.00    -0.064 OA 
ATOM     20  O   GLY A   1      -8.293   6.090  73.540  1.00  0.00    -0.116 OA 
ATOM     21  OXT CYS B   1      -7.180  10.570  70.497  1.00  0.00    -0.232 OA 
ATOM     22  H1  CYS C   1      -8.066   7.362  71.016  1.00  0.00     0.000 HD 
ENDROOT
BRANCH   3  23
ATOM     23  CB  CYS B   1      -7.098   8.239  68.148  1.00  0.00    -0.082 C  
ATOM     24  SG  CYS B   1      -5.355   7.854  67.672  1.00  0.00    -0.033 SA 
ATOM     25  HG  CYS B   1      -5.023   6.507  67.757  1.00  0.00     0.000 H  
ENDBRANCH   3  23
BRANCH  10  26
ATOM     26  CB  CYS C   1     -10.381   9.523  70.631  1.00  0.00    -0.302 C  
ATOM     27  SG  CYS C   1     -12.164   9.855  70.945  1.00  0.00    -0.329 SA 
ATOM     28  HG  CYS C   1     -12.627  11.155  70.777  1.00  0.00     0.000 H  
ENDBRANCH  10  26
TORSDOF 2
ENDMDL
MODEL      135
REMARK 921   NORMALIZED FREE ENERGY PREDICTED BY IDOCK:   -2.69 KCAL/MOL
REMARK 922        TOTAL FREE ENERGY PREDICTED BY IDOCK:   -2.43 KCAL/MOL
REMARK 923 INTER-LIGAND FREE ENERGY PREDICTED BY IDOCK:   -3.00 KCAL/MOL
REMARK 924 INTRA-LIGAND FREE ENERGY PREDICTED BY IDOCK:    0.57 KCAL/MOL
REMARK 927      BINDING AFFINITY PREDICTED BY RF-SCORE:    0.00 PKD
ROOT
HETATM    1 FE   UNL     1     -10.587   7.878  73.687  1.00  0.00    -0.305 Fe 
ATOM      2  N   GLY A   1      -7.646  10.154  66.726  1.00  0.00    -0.103 NA 
ATOM      3  CA  CYS B   1      -9.544   6.178  69.041  1.00  0.00    -0.127 C  
ATOM      4  CA  GLY A   1      -6.723  10.794  67.679  1.00  0.00    -0.069 C  
ATOM      5  H2  GLY A   1      -8.155  10.842  66.173  1.00  0.00     0.000 HD 
ATOM      6  H1  GLY A   1      -7.147   9.488  66.137  1.00  0.00     0.000 HD 
ATOM      7  OXT CYS C   1      -5.496   8.476  70.263  1.00  0.00    -0.022 OA 
ATOM      8  C   GLY A   1      -7.475  11.798  68.568  1.00  0.00    -0.110 C  
ATOM      9  C   CYS B   1     -10.666   7.175  69.493  1.00  0.00    -0.239 C  
ATOM     10  CA  CYS C   1      -7.617   8.900  71.264  1.00  0.00    -0.103 C  
ATOM     11  N   CYS B   1     -10.282   5.179  68.217  1.00  0.00    -0.143 NA 
ATOM     12  H2  CYS C   1      -9.190   9.696  70.067  1.00  0.00     0.000 HD 
ATOM     13  N   CYS C   1      -8.355   9.115  69.991  1.00  0.00    -0.133 NA 
ATOM     14  C   CYS C   1      -6.423   7.918  70.922  1.00  0.00    -0.037 C  
ATOM     15  H2  CYS B   1      -9.694   4.404  67.911  1.00  0.00     0.000 HD 
ATOM     16  H1  CYS B   1     -11.092   4.873  68.757  1.00  0.00     0.000 HD 
ATOM     17  O   CYS B   1     -11.766   6.464  69.952  1.00  0.00    -0.426 OA 
ATOM     18  O   CYS C   1      -6.630   6.693  71.179  1.00  0.00    -0.051 OA 
ATOM     19  OXT GLY A   1      -8.611  12.201  68.365  1.00  0.00    -0.171 OA 
ATOM     20  O   GLY A   1      -6.774  12.177  69.666  1.00  0.00    -0.075 OA 
ATOM     21  OXT CYS B   1     -10.806   8.396  69.526  1.00  0.00    -0.210 OA 
ATOM     22  H1  CYS C   1      -7.621   9.485  69.386  1.00  0.00     0.000 HD 
ENDROOT
BRANCH   3  23
ATOM     23  CB  CYS B   1      -8.320   6.640  68.224  1.00  0.00    -0.117 C  
ATOM     24  SG  CYS B   1      -8.019   5.666  66.683  1.00  0.00    -0.102 SA 
ATOM     25  HG  CYS B   1      -6.917   6.083  65.947  1.00  0.00     0.000 H  
ENDBRANCH   3  23
BRANCH  10  26
ATOM     26  CB  CYS C   1      -8.707   8.351  72.162  1.00  0.00    -0.205 C  
ATOM     27  SG  CYS C   1      -8.288   8.005  73.922  1.00  0.00    -0.255 SA 
ATOM     28  HG  CYS C   1      -9.287   7.501  74.746  1.00  0.00     0.000 H  
ENDBRANCH  10  26
TORSDOF 2
ENDMDL
MODEL      136
REMARK 921   NORMALIZED FREE ENERGY PREDICTED BY IDOCK:   -2.67 KCAL/MOL
REMARK 922        TOTAL FREE ENERGY PREDICTED BY IDOCK:   -2.40 KCAL/MOL
REMARK 923 INTER-LIGAND FREE ENERGY PREDICTED BY IDOCK:   -3.54 KCAL/MOL
REMARK 924 INTRA-LIGAND FREE ENERGY PREDICTED BY IDOCK:    1.13 KCAL/MOL
REMARK 927      BINDING AFFINITY PREDICTED BY RF-SCORE:    0.00 PKD
ROOT
HETATM    1 FE   UNL     1     -10.174   4.664  67.695  1.00  0.00    -0.157 Fe 
ATOM      2  N   GLY A   1      -8.516  12.376  67.944  1.00  0.00    -0.156 NA 
ATOM      3  CA  CYS B   1      -6.774   7.966  69.457  1.00  0.00    -0.042 C  
ATOM      4  CA  GLY A   1      -9.968  12.361  68.190  1.00  0.00    -0.215 C  
ATOM      5  H2  GLY A   1      -8.283  12.862  67.079  1.00  0.00     0.000 HD 
ATOM      6  H1  GLY A   1      -8.021  12.770  68.744  1.00  0.00     0.000 HD 
ATOM      7  OXT CYS C   1     -10.958   9.942  70.783  1.00  0.00    -0.307 OA 
ATOM      8  C   GLY A   1     -10.714  11.768  66.983  1.00  0.00    -0.246 C  
ATOM      9  C   CYS B   1      -7.043   7.530  67.976  1.00  0.00    -0.084 C  
ATOM     10  CA  CYS C   1     -10.737   8.364  69.009  1.00  0.00    -0.080 C  
ATOM     11  N   CYS B   1      -5.299   7.811  69.600  1.00  0.00    -0.023 NA 
ATOM     12  H2  CYS C   1      -9.600   8.891  67.286  1.00  0.00     0.000 HD 
ATOM     13  N   CYS C   1      -9.658   9.086  68.285  1.00  0.00    -0.143 NA 
ATOM     14  C   CYS C   1     -10.584   8.757  70.536  1.00  0.00    -0.215 C  
ATOM     15  H2  CYS B   1      -4.971   7.983  70.550  1.00  0.00     0.000 HD 
ATOM     16  H1  CYS B   1      -5.052   6.883  69.256  1.00  0.00     0.000 HD 
ATOM     17  O   CYS B   1      -6.366   6.349  67.706  1.00  0.00    -0.036 OA 
ATOM     18  O   CYS C   1      -9.951   7.924  71.255  1.00  0.00    -0.174 OA 
ATOM     19  OXT GLY A   1     -10.220  11.566  65.883  1.00  0.00    -0.227 OA 
ATOM     20  O   GLY A   1     -11.996  11.422  67.259  1.00  0.00    -0.580 OA 
ATOM     21  OXT CYS B   1      -7.680   7.975  67.024  1.00  0.00    -0.097 OA 
ATOM     22  H1  CYS C   1      -9.859  10.057  68.528  1.00  0.00     0.000 HD 
ENDROOT
BRANCH   3  23
ATOM     23  CB  CYS B   1      -7.147   9.370  69.977  1.00  0.00    -0.083 C  
ATOM     24  SG  CYS B   1      -5.708  10.376  70.553  1.00  0.00    -0.102 SA 
ATOM     25  HG  CYS B   1      -6.043  11.641  71.021  1.00  0.00     0.000 H  
ENDBRANCH   3  23
BRANCH  10  26
ATOM     26  CB  CYS C   1     -10.438   6.923  68.650  1.00  0.00    -0.195 C  
ATOM     27  SG  CYS C   1     -10.877   6.342  66.958  1.00  0.00    -0.371 SA 
ATOM     28  HG  CYS C   1     -10.603   5.020  66.628  1.00  0.00     0.000 H  
ENDBRANCH  10  26
TORSDOF 2
ENDMDL
MODEL      137
REMARK 921   NORMALIZED FREE ENERGY PREDICTED BY IDOCK:   -2.65 KCAL/MOL
REMARK 922        TOTAL FREE ENERGY PREDICTED BY IDOCK:   -2.39 KCAL/MOL
REMARK 923 INTER-LIGAND FREE ENERGY PREDICTED BY IDOCK:   -2.91 KCAL/MOL
REMARK 924 INTRA-LIGAND FREE ENERGY PREDICTED BY IDOCK:    0.52 KCAL/MOL
REMARK 927      BINDING AFFINITY PREDICTED BY RF-SCORE:    0.00 PKD
ROOT
HETATM    1 FE   UNL     1     -12.556   6.629  71.223  1.00  0.00    -0.302 Fe 
ATOM      2  N   GLY A   1      -5.679   9.319  68.438  1.00  0.00    -0.041 NA 
ATOM      3  CA  CYS B   1      -9.315   6.089  67.379  1.00  0.00    -0.111 C  
ATOM      4  CA  GLY A   1      -5.399   9.180  69.878  1.00  0.00    -0.029 C  
ATOM      5  H2  GLY A   1      -5.612  10.289  68.131  1.00  0.00     0.000 HD 
ATOM      6  H1  GLY A   1      -5.069   8.707  67.895  1.00  0.00     0.000 HD 
ATOM      7  OXT CYS C   1      -6.432   5.915  71.231  1.00  0.00    -0.042 OA 
ATOM      8  C   GLY A   1      -6.317  10.102  70.697  1.00  0.00    -0.093 C  
ATOM      9  C   CYS B   1     -10.263   7.295  67.702  1.00  0.00    -0.200 C  
ATOM     10  CA  CYS C   1      -8.599   6.910  71.237  1.00  0.00    -0.123 C  
ATOM     11  N   CYS B   1      -9.596   5.804  65.944  1.00  0.00    -0.348 NA 
ATOM     12  H2  CYS C   1      -8.958   8.625  70.025  1.00  0.00     0.000 HD 
ATOM     13  N   CYS C   1      -8.376   7.788  70.058  1.00  0.00    -0.128 NA 
ATOM     14  C   CYS C   1      -7.657   5.653  71.036  1.00  0.00    -0.095 C  
ATOM     15  H2  CYS B   1      -9.107   4.978  65.600  1.00  0.00     0.000 HD 
ATOM     16  H1  CYS B   1     -10.609   5.739  65.837  1.00  0.00     0.000 HD 
ATOM     17  O   CYS B   1     -11.532   7.036  67.206  1.00  0.00    -0.079 OA 
ATOM     18  O   CYS C   1      -8.212   4.626  70.537  1.00  0.00    -0.082 OA 
ATOM     19  OXT GLY A   1      -7.004  11.001  70.233  1.00  0.00    -0.177 OA 
ATOM     20  O   GLY A   1      -6.349   9.796  72.018  1.00  0.00    -0.285 OA 
ATOM     21  OXT CYS B   1     -10.152   8.384  68.261  1.00  0.00    -0.186 OA 
ATOM     22  H1  CYS C   1      -7.371   7.959  70.114  1.00  0.00     0.000 HD 
ENDROOT
BRANCH   3  23
ATOM     23  CB  CYS B   1      -7.783   6.187  67.542  1.00  0.00    -0.097 C  
ATOM     24  SG  CYS B   1      -6.873   4.634  67.125  1.00  0.00    -0.057 SA 
ATOM     25  HG  CYS B   1      -5.493   4.722  67.271  1.00  0.00     0.000 H  
ENDBRANCH   3  23
BRANCH  10  26
ATOM     26  CB  CYS C   1     -10.090   6.656  71.153  1.00  0.00    -0.182 C  
ATOM     27  SG  CYS C   1     -10.850   5.534  72.400  1.00  0.00    -0.254 SA 
ATOM     28  HG  CYS C   1     -12.218   5.300  72.324  1.00  0.00     0.000 H  
ENDBRANCH  10  26
TORSDOF 2
ENDMDL
MODEL      138
REMARK 921   NORMALIZED FREE ENERGY PREDICTED BY IDOCK:   -2.64 KCAL/MOL
REMARK 922        TOTAL FREE ENERGY PREDICTED BY IDOCK:   -2.38 KCAL/MOL
REMARK 923 INTER-LIGAND FREE ENERGY PREDICTED BY IDOCK:   -2.89 KCAL/MOL
REMARK 924 INTRA-LIGAND FREE ENERGY PREDICTED BY IDOCK:    0.51 KCAL/MOL
REMARK 927      BINDING AFFINITY PREDICTED BY RF-SCORE:    0.00 PKD
ROOT
HETATM    1 FE   UNL     1      -8.861  14.684  68.809  1.00  0.00    -0.141 Fe 
ATOM      2  N   GLY A   1      -8.378   7.121  66.604  1.00  0.00    -0.111 NA 
ATOM      3  CA  CYS B   1     -10.236  10.020  70.198  1.00  0.00    -0.242 C  
ATOM      4  CA  GLY A   1      -7.018   7.614  66.328  1.00  0.00    -0.066 C  
ATOM      5  H2  GLY A   1      -8.852   6.821  65.753  1.00  0.00     0.000 HD 
ATOM      6  H1  GLY A   1      -8.355   6.382  67.306  1.00  0.00     0.000 HD 
ATOM      7  OXT CYS C   1      -5.569   9.483  69.150  1.00  0.00    -0.036 OA 
ATOM      8  C   GLY A   1      -7.053   8.729  65.269  1.00  0.00    -0.083 C  
ATOM      9  C   CYS B   1     -10.768  10.886  69.005  1.00  0.00    -0.224 C  
ATOM     10  CA  CYS C   1      -6.922  11.259  68.314  1.00  0.00    -0.071 C  
ATOM     11  N   CYS B   1     -11.482   9.571  70.881  1.00  0.00    -0.307 NA 
ATOM     12  H2  CYS C   1      -8.551  10.802  67.019  1.00  0.00     0.000 HD 
ATOM     13  N   CYS C   1      -8.009  10.396  67.781  1.00  0.00    -0.102 NA 
ATOM     14  C   CYS C   1      -6.279  10.464  69.523  1.00  0.00    -0.054 C  
ATOM     15  H2  CYS B   1     -11.299   9.054  71.741  1.00  0.00     0.000 HD 
ATOM     16  H1  CYS B   1     -12.065  10.395  71.029  1.00  0.00     0.000 HD 
ATOM     17  O   CYS B   1     -11.750  11.755  69.460  1.00  0.00    -0.292 OA 
ATOM     18  O   CYS C   1      -6.699  10.787  70.677  1.00  0.00    -0.310 OA 
ATOM     19  OXT GLY A   1      -8.018   9.005  64.572  1.00  0.00    -0.117 OA 
ATOM     20  O   GLY A   1      -5.903   9.446  65.204  1.00  0.00    -0.057 OA 
ATOM     21  OXT CYS B   1     -10.540  10.970  67.800  1.00  0.00    -0.188 OA 
ATOM     22  H1  CYS C   1      -7.499   9.543  67.545  1.00  0.00     0.000 HD 
ENDROOT
BRANCH   3  23
ATOM     23  CB  CYS B   1      -9.353   8.774  69.975  1.00  0.00    -0.168 C  
ATOM     24  SG  CYS B   1      -8.764   7.969  71.529  1.00  0.00    -0.147 SA 
ATOM     25  HG  CYS B   1      -7.969   6.847  71.328  1.00  0.00     0.000 H  
ENDBRANCH   3  23
BRANCH  10  26
ATOM     26  CB  CYS C   1      -7.678  12.525  68.664  1.00  0.00    -0.063 C  
ATOM     27  SG  CYS C   1      -6.707  13.995  69.198  1.00  0.00    -0.111 SA 
ATOM     28  HG  CYS C   1      -7.400  15.156  69.520  1.00  0.00     0.000 H  
ENDBRANCH  10  26
TORSDOF 2
ENDMDL
MODEL      139
REMARK 921   NORMALIZED FREE ENERGY PREDICTED BY IDOCK:   -2.62 KCAL/MOL
REMARK 922        TOTAL FREE ENERGY PREDICTED BY IDOCK:   -2.35 KCAL/MOL
REMARK 923 INTER-LIGAND FREE ENERGY PREDICTED BY IDOCK:   -3.01 KCAL/MOL
REMARK 924 INTRA-LIGAND FREE ENERGY PREDICTED BY IDOCK:    0.67 KCAL/MOL
REMARK 927      BINDING AFFINITY PREDICTED BY RF-SCORE:    0.00 PKD
ROOT
HETATM    1 FE   UNL     1     -12.487  10.398  67.972  1.00  0.00    -0.347 Fe 
ATOM      2  N   GLY A   1      -6.703   5.030  67.859  1.00  0.00    -0.050 NA 
ATOM      3  CA  CYS B   1      -8.113   9.189  70.201  1.00  0.00    -0.140 C  
ATOM      4  CA  GLY A   1      -6.951   5.251  66.424  1.00  0.00    -0.067 C  
ATOM      5  H2  GLY A   1      -6.910   4.071  68.136  1.00  0.00     0.000 HD 
ATOM      6  H1  GLY A   1      -5.749   5.297  68.102  1.00  0.00     0.000 HD 
ATOM      7  OXT CYS C   1      -7.056   8.818  65.520  1.00  0.00    -0.081 OA 
ATOM      8  C   GLY A   1      -8.389   4.848  66.057  1.00  0.00    -0.113 C  
ATOM      9  C   CYS B   1      -9.501   8.469  70.308  1.00  0.00    -0.166 C  
ATOM     10  CA  CYS C   1      -9.270   8.695  66.396  1.00  0.00    -0.193 C  
ATOM     11  N   CYS B   1      -7.703   9.360  71.624  1.00  0.00    -0.217 NA 
ATOM     12  H2  CYS C   1      -9.787   7.082  67.688  1.00  0.00     0.000 HD 
ATOM     13  N   CYS C   1      -8.984   7.644  67.408  1.00  0.00    -0.126 NA 
ATOM     14  C   CYS C   1      -7.913   9.480  66.179  1.00  0.00    -0.107 C  
ATOM     15  H2  CYS B   1      -6.841   9.895  71.728  1.00  0.00     0.000 HD 
ATOM     16  H1  CYS B   1      -8.491   9.775  72.123  1.00  0.00     0.000 HD 
ATOM     17  O   CYS B   1     -10.285   9.104  71.261  1.00  0.00    -0.284 OA 
ATOM     18  O   CYS C   1      -7.794  10.561  66.834  1.00  0.00    -0.111 OA 
ATOM     19  OXT GLY A   1      -9.144   4.208  66.776  1.00  0.00    -0.120 OA 
ATOM     20  O   GLY A   1      -8.790   5.321  64.851  1.00  0.00    -0.150 OA 
ATOM     21  OXT CYS B   1     -10.040   7.501  69.776  1.00  0.00    -0.187 OA 
ATOM     22  H1  CYS C   1      -8.226   7.127  66.962  1.00  0.00     0.000 HD 
ENDROOT
BRANCH   3  23
ATOM     23  CB  CYS B   1      -6.922   8.562  69.447  1.00  0.00    -0.049 C  
ATOM     24  SG  CYS B   1      -5.399   9.607  69.425  1.00  0.00    -0.035 SA 
ATOM     25  HG  CYS B   1      -4.326   9.042  68.746  1.00  0.00     0.000 H  
ENDBRANCH   3  23
BRANCH  10  26
ATOM     26  CB  CYS C   1     -10.396   9.462  67.058  1.00  0.00    -0.252 C  
ATOM     27  SG  CYS C   1     -10.783  11.149  66.429  1.00  0.00    -0.215 SA 
ATOM     28  HG  CYS C   1     -11.816  11.854  67.037  1.00  0.00     0.000 H  
ENDBRANCH  10  26
TORSDOF 2
ENDMDL
MODEL      140
REMARK 921   NORMALIZED FREE ENERGY PREDICTED BY IDOCK:   -2.54 KCAL/MOL
REMARK 922        TOTAL FREE ENERGY PREDICTED BY IDOCK:   -2.26 KCAL/MOL
REMARK 923 INTER-LIGAND FREE ENERGY PREDICTED BY IDOCK:   -3.17 KCAL/MOL
REMARK 924 INTRA-LIGAND FREE ENERGY PREDICTED BY IDOCK:    0.91 KCAL/MOL
REMARK 927      BINDING AFFINITY PREDICTED BY RF-SCORE:    0.00 PKD
ROOT
HETATM    1 FE   UNL     1      -5.193  17.638  71.110  1.00  0.00    -0.193 Fe 
ATOM      2  N   GLY A   1     -11.102  17.341  65.887  1.00  0.00     0.213 NA 
ATOM      3  CA  CYS B   1      -7.515  14.521  67.875  1.00  0.00    -0.150 C  
ATOM      4  CA  GLY A   1     -10.494  18.651  65.596  1.00  0.00    -0.111 C  
ATOM      5  H2  GLY A   1     -12.062  17.434  66.217  1.00  0.00     0.000 HD 
ATOM      6  H1  GLY A   1     -11.038  16.729  65.073  1.00  0.00     0.000 HD 
ATOM      7  OXT CYS C   1      -6.835  18.483  65.228  1.00  0.00    -0.513 OA 
ATOM      8  C   GLY A   1     -10.589  19.574  66.822  1.00  0.00    -0.488 C  
ATOM      9  C   CYS B   1      -8.041  15.092  69.237  1.00  0.00    -0.217 C  
ATOM     10  CA  CYS C   1      -6.869  18.468  67.612  1.00  0.00    -0.204 C  
ATOM     11  N   CYS B   1      -7.766  13.057  67.996  1.00  0.00    -0.130 NA 
ATOM     12  H2  CYS C   1      -8.669  17.937  68.621  1.00  0.00     0.000 HD 
ATOM     13  N   CYS C   1      -8.170  17.761  67.749  1.00  0.00    -0.224 NA 
ATOM     14  C   CYS C   1      -6.248  17.988  66.237  1.00  0.00    -0.210 C  
ATOM     15  H2  CYS B   1      -7.398  12.525  67.207  1.00  0.00     0.000 HD 
ATOM     16  H1  CYS B   1      -7.386  12.753  68.892  1.00  0.00     0.000 HD 
ATOM     17  O   CYS B   1      -7.565  14.316  70.284  1.00  0.00     0.494 OA 
ATOM     18  O   CYS C   1      -5.395  17.052  66.318  1.00  0.00    -0.346 OA 
ATOM     19  OXT GLY A   1     -11.280  19.362  67.808  1.00  0.00    -0.207 OA 
ATOM     20  O   GLY A   1      -9.777  20.658  66.745  1.00  0.00    -0.382 OA 
ATOM     21  OXT CYS B   1      -8.759  16.026  69.588  1.00  0.00    -0.135 OA 
ATOM     22  H1  CYS C   1      -8.657  18.057  66.903  1.00  0.00     0.000 HD 
ENDROOT
BRANCH   3  23
ATOM     23  CB  CYS B   1      -8.089  14.981  66.519  1.00  0.00     0.268 C  
ATOM     24  SG  CYS B   1      -9.699  14.197  66.067  1.00  0.00    -0.234 SA 
ATOM     25  HG  CYS B   1     -10.216  14.612  64.846  1.00  0.00     0.000 H  
ENDBRANCH   3  23
BRANCH  10  26
ATOM     26  CB  CYS C   1      -6.146  18.029  68.869  1.00  0.00    -0.212 C  
ATOM     27  SG  CYS C   1      -5.135  19.277  69.769  1.00  0.00    -0.192 SA 
ATOM     28  HG  CYS C   1      -4.472  18.875  70.922  1.00  0.00     0.000 H  
ENDBRANCH  10  26
TORSDOF 2
ENDMDL
MODEL      141
REMARK 921   NORMALIZED FREE ENERGY PREDICTED BY IDOCK:   -2.54 KCAL/MOL
REMARK 922        TOTAL FREE ENERGY PREDICTED BY IDOCK:   -2.26 KCAL/MOL
REMARK 923 INTER-LIGAND FREE ENERGY PREDICTED BY IDOCK:   -2.77 KCAL/MOL
REMARK 924 INTRA-LIGAND FREE ENERGY PREDICTED BY IDOCK:    0.51 KCAL/MOL
REMARK 927      BINDING AFFINITY PREDICTED BY RF-SCORE:    0.00 PKD
ROOT
HETATM    1 FE   UNL     1      -8.696   9.567  71.471  1.00  0.00    -0.185 Fe 
ATOM      2  N   GLY A   1      -6.654   5.201  65.222  1.00  0.00    -0.039 NA 
ATOM      3  CA  CYS B   1      -7.417   9.925  66.593  1.00  0.00    -0.099 C  
ATOM      4  CA  GLY A   1      -7.749   4.411  65.810  1.00  0.00    -0.090 C  
ATOM      5  H2  GLY A   1      -5.770   4.694  65.238  1.00  0.00     0.000 HD 
ATOM      6  H1  GLY A   1      -6.898   5.506  64.280  1.00  0.00     0.000 HD 
ATOM      7  OXT CYS C   1     -10.730   6.434  66.568  1.00  0.00    -0.197 OA 
ATOM      8  C   GLY A   1      -7.380   3.951  67.231  1.00  0.00    -0.068 C  
ATOM      9  C   CYS B   1      -6.516   9.548  67.819  1.00  0.00    -0.058 C  
ATOM     10  CA  CYS C   1      -9.478   7.063  68.496  1.00  0.00    -0.134 C  
ATOM     11  N   CYS B   1      -6.631  10.986  65.901  1.00  0.00    -0.343 NA 
ATOM     12  H2  CYS C   1      -7.367   6.777  68.503  1.00  0.00     0.000 HD 
ATOM     13  N   CYS C   1      -8.139   6.956  67.860  1.00  0.00    -0.114 NA 
ATOM     14  C   CYS C   1     -10.493   7.415  67.333  1.00  0.00    -0.296 C  
ATOM     15  H2  CYS B   1      -7.129  11.399  65.113  1.00  0.00     0.000 HD 
ATOM     16  H1  CYS B   1      -6.359  11.674  66.604  1.00  0.00     0.000 HD 
ATOM     17  O   CYS B   1      -6.071  10.703  68.444  1.00  0.00    -0.047 OA 
ATOM     18  O   CYS C   1     -10.780   8.646  67.210  1.00  0.00    -0.271 OA 
ATOM     19  OXT GLY A   1      -6.260   4.008  67.718  1.00  0.00    -0.034 OA 
ATOM     20  O   GLY A   1      -8.444   3.509  67.947  1.00  0.00    -0.090 OA 
ATOM     21  OXT CYS B   1      -6.113   8.508  68.335  1.00  0.00    -0.047 OA 
ATOM     22  H1  CYS C   1      -8.299   6.230  67.161  1.00  0.00     0.000 HD 
ENDROOT
BRANCH   3  23
ATOM     23  CB  CYS B   1      -7.829   8.885  65.530  1.00  0.00    -0.100 C  
ATOM     24  SG  CYS B   1      -8.910   9.553  64.190  1.00  0.00    -0.183 SA 
ATOM     25  HG  CYS B   1      -9.281   8.616  63.232  1.00  0.00     0.000 H  
ENDBRANCH   3  23
BRANCH  10  26
ATOM     26  CB  CYS C   1      -9.241   8.141  69.535  1.00  0.00    -0.158 C  
ATOM     27  SG  CYS C   1     -10.604   8.528  70.710  1.00  0.00    -0.214 SA 
ATOM     28  HG  CYS C   1     -10.387   9.517  71.662  1.00  0.00     0.000 H  
ENDBRANCH  10  26
TORSDOF 2
ENDMDL
MODEL      142
REMARK 921   NORMALIZED FREE ENERGY PREDICTED BY IDOCK:   -2.50 KCAL/MOL
REMARK 922        TOTAL FREE ENERGY PREDICTED BY IDOCK:   -2.22 KCAL/MOL
REMARK 923 INTER-LIGAND FREE ENERGY PREDICTED BY IDOCK:   -3.31 KCAL/MOL
REMARK 924 INTRA-LIGAND FREE ENERGY PREDICTED BY IDOCK:    1.10 KCAL/MOL
REMARK 927      BINDING AFFINITY PREDICTED BY RF-SCORE:    0.00 PKD
ROOT
HETATM    1 FE   UNL     1      -7.111   5.255  67.062  1.00  0.00    -0.056 Fe 
ATOM      2  N   GLY A   1     -11.322   4.701  73.713  1.00  0.00    -0.321 NA 
ATOM      3  CA  CYS B   1     -10.200   7.898  70.068  1.00  0.00    -0.208 C  
ATOM      4  CA  GLY A   1     -10.066   4.027  74.083  1.00  0.00    -0.163 C  
ATOM      5  H2  GLY A   1     -12.117   4.064  73.746  1.00  0.00     0.000 HD 
ATOM      6  H1  GLY A   1     -11.472   5.524  74.297  1.00  0.00     0.000 HD 
ATOM      7  OXT CYS C   1      -7.075   5.977  73.184  1.00  0.00    -0.083 OA 
ATOM      8  C   GLY A   1      -9.840   2.786  73.203  1.00  0.00    -0.109 C  
ATOM      9  C   CYS B   1     -10.542   6.695  69.124  1.00  0.00    -0.244 C  
ATOM     10  CA  CYS C   1      -7.491   5.098  71.007  1.00  0.00    -0.078 C  
ATOM     11  N   CYS B   1     -11.219   8.923  69.703  1.00  0.00    -0.436 NA 
ATOM     12  H2  CYS C   1      -9.425   4.331  70.549  1.00  0.00     0.000 HD 
ATOM     13  N   CYS C   1      -8.969   5.022  71.144  1.00  0.00    -0.135 NA 
ATOM     14  C   CYS C   1      -7.019   6.276  71.954  1.00  0.00    -0.077 C  
ATOM     15  H2  CYS B   1     -11.077   9.812  70.183  1.00  0.00     0.000 HD 
ATOM     16  H1  CYS B   1     -11.212   9.014  68.687  1.00  0.00     0.000 HD 
ATOM     17  O   CYS B   1     -10.736   7.157  67.830  1.00  0.00    -0.223 OA 
ATOM     18  O   CYS C   1      -6.833   7.396  71.385  1.00  0.00    -0.050 OA 
ATOM     19  OXT GLY A   1     -10.682   2.278  72.476  1.00  0.00    -0.111 OA 
ATOM     20  O   GLY A   1      -8.570   2.311  73.257  1.00  0.00    -0.068 OA 
ATOM     21  OXT CYS B   1     -10.686   5.481  69.252  1.00  0.00    -0.277 OA 
ATOM     22  H1  CYS C   1      -9.077   4.870  72.147  1.00  0.00     0.000 HD 
ENDROOT
BRANCH   3  23
ATOM     23  CB  CYS B   1     -10.210   7.760  71.605  1.00  0.00    -0.186 C  
ATOM     24  SG  CYS B   1     -11.813   8.218  72.401  1.00  0.00    -0.370 SA 
ATOM     25  HG  CYS B   1     -11.822   8.094  73.785  1.00  0.00     0.000 H  
ENDBRANCH   3  23
BRANCH  10  26
ATOM     26  CB  CYS C   1      -7.330   5.324  69.517  1.00  0.00    -0.061 C  
ATOM     27  SG  CYS C   1      -7.498   3.872  68.397  1.00  0.00    -0.058 SA 
ATOM     28  HG  CYS C   1      -7.351   4.079  67.031  1.00  0.00     0.000 H  
ENDBRANCH  10  26
TORSDOF 2
ENDMDL
MODEL      143
REMARK 921   NORMALIZED FREE ENERGY PREDICTED BY IDOCK:   -2.49 KCAL/MOL
REMARK 922        TOTAL FREE ENERGY PREDICTED BY IDOCK:   -2.21 KCAL/MOL
REMARK 923 INTER-LIGAND FREE ENERGY PREDICTED BY IDOCK:   -3.32 KCAL/MOL
REMARK 924 INTRA-LIGAND FREE ENERGY PREDICTED BY IDOCK:    1.11 KCAL/MOL
REMARK 927      BINDING AFFINITY PREDICTED BY RF-SCORE:    0.00 PKD
ROOT
HETATM    1 FE   UNL     1      -7.639  11.397  70.423  1.00  0.00    -0.332 Fe 
ATOM      2  N   GLY A   1      -9.283   3.686  70.083  1.00  0.00    -0.134 NA 
ATOM      3  CA  CYS B   1     -10.531   7.830  72.540  1.00  0.00    -0.284 C  
ATOM      4  CA  GLY A   1      -7.816   3.698  69.957  1.00  0.00    -0.047 C  
ATOM      5  H2  GLY A   1      -9.732   3.310  69.248  1.00  0.00     0.000 HD 
ATOM      6  H1  GLY A   1      -9.566   3.183  70.924  1.00  0.00     0.000 HD 
ATOM      7  OXT CYS C   1      -6.174   5.784  72.508  1.00  0.00    -0.045 OA 
ATOM      8  C   GLY A   1      -7.389   4.456  68.689  1.00  0.00    -0.060 C  
ATOM      9  C   CYS B   1     -10.637   8.458  71.108  1.00  0.00    -0.215 C  
ATOM     10  CA  CYS C   1      -6.813   7.571  71.065  1.00  0.00    -0.050 C  
ATOM     11  N   CYS B   1     -11.921   7.936  73.066  1.00  0.00    -0.646 NA 
ATOM     12  H2  CYS C   1      -8.353   7.247  69.629  1.00  0.00     0.000 HD 
ATOM     13  N   CYS C   1      -8.049   6.927  70.549  1.00  0.00    -0.114 NA 
ATOM     14  C   CYS C   1      -6.583   6.984  72.518  1.00  0.00    -0.057 C  
ATOM     15  H2  CYS B   1     -12.002   7.638  74.039  1.00  0.00     0.000 HD 
ATOM     16  H1  CYS B   1     -12.234   8.896  72.918  1.00  0.00     0.000 HD 
ATOM     17  O   CYS B   1     -11.345   9.649  71.171  1.00  0.00    -0.327 OA 
ATOM     18  O   CYS C   1      -7.004   7.704  73.474  1.00  0.00    -0.076 OA 
ATOM     19  OXT GLY A   1      -8.141   4.787  67.783  1.00  0.00    -0.093 OA 
ATOM     20  O   GLY A   1      -6.074   4.788  68.677  1.00  0.00    -0.028 OA 
ATOM     21  OXT CYS B   1     -10.265   8.151  69.977  1.00  0.00    -0.194 OA 
ATOM     22  H1  CYS C   1      -7.806   5.937  70.605  1.00  0.00     0.000 HD 
ENDROOT
BRANCH   3  23
ATOM     23  CB  CYS B   1     -10.058   6.379  72.765  1.00  0.00    -0.180 C  
ATOM     24  SG  CYS B   1     -11.410   5.195  73.191  1.00  0.00    -0.255 SA 
ATOM     25  HG  CYS B   1     -10.984   3.887  73.393  1.00  0.00     0.000 H  
ENDBRANCH   3  23
BRANCH  10  26
ATOM     26  CB  CYS C   1      -7.174   9.041  70.981  1.00  0.00    -0.106 C  
ATOM     27  SG  CYS C   1      -7.125   9.852  69.329  1.00  0.00    -0.077 SA 
ATOM     28  HG  CYS C   1      -7.456  11.200  69.252  1.00  0.00     0.000 H  
ENDBRANCH  10  26
TORSDOF 2
ENDMDL
MODEL      144
REMARK 921   NORMALIZED FREE ENERGY PREDICTED BY IDOCK:   -2.48 KCAL/MOL
REMARK 922        TOTAL FREE ENERGY PREDICTED BY IDOCK:   -2.20 KCAL/MOL
REMARK 923 INTER-LIGAND FREE ENERGY PREDICTED BY IDOCK:   -2.80 KCAL/MOL
REMARK 924 INTRA-LIGAND FREE ENERGY PREDICTED BY IDOCK:    0.60 KCAL/MOL
REMARK 927      BINDING AFFINITY PREDICTED BY RF-SCORE:    0.00 PKD
ROOT
HETATM    1 FE   UNL     1     -12.133   9.944  67.797  1.00  0.00    -0.508 Fe 
ATOM      2  N   GLY A   1      -6.560   5.282  64.716  1.00  0.00    -0.042 NA 
ATOM      3  CA  CYS B   1      -8.847   6.301  69.018  1.00  0.00    -0.124 C  
ATOM      4  CA  GLY A   1      -6.272   6.577  64.077  1.00  0.00    -0.034 C  
ATOM      5  H2  GLY A   1      -6.827   4.573  64.034  1.00  0.00     0.000 HD 
ATOM      6  H1  GLY A   1      -5.770   4.980  65.286  1.00  0.00     0.000 HD 
ATOM      7  OXT CYS C   1      -6.139   9.364  66.478  1.00  0.00    -0.061 OA 
ATOM      8  C   GLY A   1      -7.464   7.031  63.218  1.00  0.00    -0.092 C  
ATOM      9  C   CYS B   1     -10.157   6.195  68.164  1.00  0.00    -0.157 C  
ATOM     10  CA  CYS C   1      -8.515   9.251  66.325  1.00  0.00    -0.127 C  
ATOM     11  N   CYS B   1      -8.991   5.197  70.009  1.00  0.00    -0.119 NA 
ATOM     12  H2  CYS C   1      -9.424   7.475  65.577  1.00  0.00     0.000 HD 
ATOM     13  N   CYS C   1      -8.590   7.787  66.074  1.00  0.00    -0.145 NA 
ATOM     14  C   CYS C   1      -7.195   9.487  67.167  1.00  0.00    -0.087 C  
ATOM     15  H2  CYS B   1      -8.242   5.183  70.701  1.00  0.00     0.000 HD 
ATOM     16  H1  CYS B   1      -9.918   5.279  70.427  1.00  0.00     0.000 HD 
ATOM     17  O   CYS B   1     -11.252   6.057  69.004  1.00  0.00    -0.367 OA 
ATOM     18  O   CYS C   1      -7.355   9.579  68.423  1.00  0.00    -0.075 OA 
ATOM     19  OXT GLY A   1      -8.411   6.326  62.901  1.00  0.00    -0.069 OA 
ATOM     20  O   GLY A   1      -7.408   8.341  62.869  1.00  0.00    -0.094 OA 
ATOM     21  OXT CYS B   1     -10.435   6.195  66.967  1.00  0.00    -0.209 OA 
ATOM     22  H1  CYS C   1      -7.707   7.614  65.593  1.00  0.00     0.000 HD 
ENDROOT
BRANCH   3  23
ATOM     23  CB  CYS B   1      -7.445   6.177  68.385  1.00  0.00    -0.087 C  
ATOM     24  SG  CYS B   1      -6.289   5.066  69.304  1.00  0.00    -0.032 SA 
ATOM     25  HG  CYS B   1      -5.027   4.954  68.734  1.00  0.00     0.000 H  
ENDBRANCH   3  23
BRANCH  10  26
ATOM     26  CB  CYS C   1      -9.827   9.508  67.039  1.00  0.00    -0.190 C  
ATOM     27  SG  CYS C   1     -10.142  11.202  67.689  1.00  0.00    -0.183 SA 
ATOM     28  HG  CYS C   1     -11.345  11.438  68.344  1.00  0.00     0.000 H  
ENDBRANCH  10  26
TORSDOF 2
ENDMDL
MODEL      145
REMARK 921   NORMALIZED FREE ENERGY PREDICTED BY IDOCK:   -2.47 KCAL/MOL
REMARK 922        TOTAL FREE ENERGY PREDICTED BY IDOCK:   -2.18 KCAL/MOL
REMARK 923 INTER-LIGAND FREE ENERGY PREDICTED BY IDOCK:   -3.39 KCAL/MOL
REMARK 924 INTRA-LIGAND FREE ENERGY PREDICTED BY IDOCK:    1.21 KCAL/MOL
REMARK 927      BINDING AFFINITY PREDICTED BY RF-SCORE:    0.00 PKD
ROOT
HETATM    1 FE   UNL     1      -5.459  10.928  69.240  1.00  0.00    -0.041 Fe 
ATOM      2  N   GLY A   1     -10.321   4.785  70.194  1.00  0.00    -0.197 NA 
ATOM      3  CA  CYS B   1      -9.135   8.342  66.922  1.00  0.00    -0.148 C  
ATOM      4  CA  GLY A   1     -10.370   5.430  71.517  1.00  0.00    -0.225 C  
ATOM      5  H2  GLY A   1      -9.929   3.845  70.246  1.00  0.00     0.000 HD 
ATOM      6  H1  GLY A   1     -11.244   4.788  69.760  1.00  0.00     0.000 HD 
ATOM      7  OXT CYS C   1     -10.953   9.060  71.321  1.00  0.00    -0.261 OA 
ATOM      8  C   GLY A   1      -8.979   5.426  72.172  1.00  0.00    -0.133 C  
ATOM      9  C   CYS B   1      -7.660   7.901  67.218  1.00  0.00    -0.101 C  
ATOM     10  CA  CYS C   1      -8.624   9.132  70.818  1.00  0.00    -0.219 C  
ATOM     11  N   CYS B   1      -9.301   8.039  65.473  1.00  0.00    -0.397 NA 
ATOM     12  H2  CYS C   1      -7.652   7.359  70.146  1.00  0.00     0.000 HD 
ATOM     13  N   CYS C   1      -8.566   7.811  70.137  1.00  0.00    -0.137 NA 
ATOM     14  C   CYS C   1     -10.098   9.671  70.612  1.00  0.00    -0.256 C  
ATOM     15  H2  CYS B   1     -10.200   8.350  65.102  1.00  0.00     0.000 HD 
ATOM     16  H1  CYS B   1      -8.506   8.446  64.980  1.00  0.00     0.000 HD 
ATOM     17  O   CYS B   1      -6.819   8.392  66.229  1.00  0.00    -0.070 OA 
ATOM     18  O   CYS C   1     -10.253  10.489  69.655  1.00  0.00    -0.226 OA 
ATOM     19  OXT GLY A   1      -8.022   4.773  71.783  1.00  0.00    -0.095 OA 
ATOM     20  O   GLY A   1      -8.877   6.277  73.224  1.00  0.00    -0.126 OA 
ATOM     21  OXT CYS B   1      -7.090   7.236  68.080  1.00  0.00    -0.076 OA 
ATOM     22  H1  CYS C   1      -9.308   7.299  70.615  1.00  0.00     0.000 HD 
ENDROOT
BRANCH   3  23
ATOM     23  CB  CYS B   1     -10.338   7.727  67.667  1.00  0.00    -0.239 C  
ATOM     24  SG  CYS B   1     -10.821   6.045  67.076  1.00  0.00    -0.285 SA 
ATOM     25  HG  CYS B   1     -11.904   5.490  67.747  1.00  0.00     0.000 H  
ENDBRANCH   3  23
BRANCH  10  26
ATOM     26  CB  CYS C   1      -7.521   9.892  70.110  1.00  0.00    -0.170 C  
ATOM     27  SG  CYS C   1      -5.932  10.149  71.004  1.00  0.00     0.017 SA 
ATOM     28  HG  CYS C   1      -4.921  10.847  70.354  1.00  0.00     0.000 H  
ENDBRANCH  10  26
TORSDOF 2
ENDMDL
MODEL      146
REMARK 921   NORMALIZED FREE ENERGY PREDICTED BY IDOCK:   -2.45 KCAL/MOL
REMARK 922        TOTAL FREE ENERGY PREDICTED BY IDOCK:   -2.16 KCAL/MOL
REMARK 923 INTER-LIGAND FREE ENERGY PREDICTED BY IDOCK:   -2.69 KCAL/MOL
REMARK 924 INTRA-LIGAND FREE ENERGY PREDICTED BY IDOCK:    0.52 KCAL/MOL
REMARK 927      BINDING AFFINITY PREDICTED BY RF-SCORE:    0.00 PKD
ROOT
HETATM    1 FE   UNL     1      -9.615   7.194  64.830  1.00  0.00    -0.153 Fe 
ATOM      2  N   GLY A   1      -7.161   8.849  72.146  1.00  0.00    -0.324 NA 
ATOM      3  CA  CYS B   1     -11.218   7.462  69.618  1.00  0.00    -0.044 C  
ATOM      4  CA  GLY A   1      -6.513   9.907  71.353  1.00  0.00     0.259 C  
ATOM      5  H2  GLY A   1      -6.478   8.237  72.591  1.00  0.00     0.000 HD 
ATOM      6  H1  GLY A   1      -7.806   9.254  72.825  1.00  0.00     0.000 HD 
ATOM      7  OXT CYS C   1      -8.838  11.609  69.061  1.00  0.00     0.022 OA 
ATOM      8  C   GLY A   1      -5.541   9.296  70.330  1.00  0.00    -0.031 C  
ATOM      9  C   CYS B   1     -10.256   6.412  68.962  1.00  0.00    -0.183 C  
ATOM     10  CA  CYS C   1      -8.483   9.681  67.705  1.00  0.00    -0.125 C  
ATOM     11  N   CYS B   1     -12.222   6.616  70.322  1.00  0.00    -0.534 NA 
ATOM     12  H2  CYS C   1      -7.708   7.910  68.600  1.00  0.00     0.000 HD 
ATOM     13  N   CYS C   1      -8.267   8.732  68.828  1.00  0.00    -0.115 NA 
ATOM     14  C   CYS C   1      -9.429  10.820  68.265  1.00  0.00    -0.164 C  
ATOM     15  H2  CYS B   1     -12.977   7.160  70.740  1.00  0.00     0.000 HD 
ATOM     16  H1  CYS B   1     -12.556   5.918  69.658  1.00  0.00     0.000 HD 
ATOM     17  O   CYS B   1     -11.001   5.424  68.335  1.00  0.00    -0.013 OA 
ATOM     18  O   CYS C   1     -10.663  10.687  68.000  1.00  0.00    -0.197 OA 
ATOM     19  OXT GLY A   1      -5.164   8.133  70.328  1.00  0.00    -0.023 OA 
ATOM     20  O   GLY A   1      -5.162  10.167  69.360  1.00  0.00    -0.039 OA 
ATOM     21  OXT CYS B   1      -9.040   6.254  68.882  1.00  0.00    -0.125 OA 
ATOM     22  H1  CYS C   1      -7.870   9.343  69.543  1.00  0.00     0.000 HD 
ENDROOT
BRANCH   3  23
ATOM     23  CB  CYS B   1     -10.713   8.518  70.623  1.00  0.00    -0.220 C  
ATOM     24  SG  CYS B   1     -12.020   9.668  71.241  1.00  0.00    -0.406 SA 
ATOM     25  HG  CYS B   1     -11.565  10.619  72.147  1.00  0.00     0.000 H  
ENDBRANCH   3  23
BRANCH  10  26
ATOM     26  CB  CYS C   1      -9.072   8.774  66.644  1.00  0.00    -0.158 C  
ATOM     27  SG  CYS C   1      -9.244   9.436  64.935  1.00  0.00    -0.115 SA 
ATOM     28  HG  CYS C   1      -9.785   8.604  63.961  1.00  0.00     0.000 H  
ENDBRANCH  10  26
TORSDOF 2
ENDMDL
MODEL      147
REMARK 921   NORMALIZED FREE ENERGY PREDICTED BY IDOCK:   -2.45 KCAL/MOL
REMARK 922        TOTAL FREE ENERGY PREDICTED BY IDOCK:   -2.16 KCAL/MOL
REMARK 923 INTER-LIGAND FREE ENERGY PREDICTED BY IDOCK:   -2.71 KCAL/MOL
REMARK 924 INTRA-LIGAND FREE ENERGY PREDICTED BY IDOCK:    0.55 KCAL/MOL
REMARK 927      BINDING AFFINITY PREDICTED BY RF-SCORE:    0.00 PKD
ROOT
HETATM    1 FE   UNL     1      -9.928   6.206  64.580  1.00  0.00    -0.010 Fe 
ATOM      2  N   GLY A   1      -8.831   9.689  71.577  1.00  0.00    -0.091 NA 
ATOM      3  CA  CYS B   1      -7.804  10.255  66.740  1.00  0.00    -0.114 C  
ATOM      4  CA  GLY A   1      -8.593   8.271  71.894  1.00  0.00    -0.168 C  
ATOM      5  H2  GLY A   1      -9.637  10.059  72.079  1.00  0.00     0.000 HD 
ATOM      6  H1  GLY A   1      -7.991  10.240  71.750  1.00  0.00     0.000 HD 
ATOM      7  OXT CYS C   1      -6.284   6.642  69.534  1.00  0.00    -0.034 OA 
ATOM      8  C   GLY A   1      -9.860   7.439  71.633  1.00  0.00    -0.165 C  
ATOM      9  C   CYS B   1      -9.325   9.932  66.542  1.00  0.00    -0.164 C  
ATOM     10  CA  CYS C   1      -8.219   6.524  68.146  1.00  0.00    -0.117 C  
ATOM     11  N   CYS B   1      -7.675  11.643  66.213  1.00  0.00    -0.381 NA 
ATOM     12  H2  CYS C   1      -9.870   7.807  68.555  1.00  0.00     0.000 HD 
ATOM     13  N   CYS C   1      -8.856   7.768  68.652  1.00  0.00    -0.131 NA 
ATOM     14  C   CYS C   1      -6.658   6.722  68.326  1.00  0.00    -0.062 C  
ATOM     15  H2  CYS B   1      -6.710  11.974  66.197  1.00  0.00     0.000 HD 
ATOM     16  H1  CYS B   1      -8.117  11.665  65.294  1.00  0.00     0.000 HD 
ATOM     17  O   CYS B   1      -9.721  10.308  65.266  1.00  0.00    -0.246 OA 
ATOM     18  O   CYS C   1      -6.032   7.111  67.292  1.00  0.00    -0.030 OA 
ATOM     19  OXT GLY A   1     -10.974   7.901  71.433  1.00  0.00    -0.228 OA 
ATOM     20  O   GLY A   1      -9.627   6.103  71.586  1.00  0.00    -0.152 OA 
ATOM     21  OXT CYS B   1     -10.225   9.452  67.228  1.00  0.00    -0.212 OA 
ATOM     22  H1  CYS C   1      -8.509   7.803  69.611  1.00  0.00     0.000 HD 
ENDROOT
BRANCH   3  23
ATOM     23  CB  CYS B   1      -7.135  10.221  68.130  1.00  0.00    -0.082 C  
ATOM     24  SG  CYS B   1      -7.028  11.865  68.964  1.00  0.00    -0.075 SA 
ATOM     25  HG  CYS B   1      -6.426  11.835  70.216  1.00  0.00     0.000 H  
ENDBRANCH   3  23
BRANCH  10  26
ATOM     26  CB  CYS C   1      -8.733   6.473  66.721  1.00  0.00    -0.123 C  
ATOM     27  SG  CYS C   1      -8.456   4.930  65.754  1.00  0.00    -0.125 SA 
ATOM     28  HG  CYS C   1      -8.927   4.883  64.448  1.00  0.00     0.000 H  
ENDBRANCH  10  26
TORSDOF 2
ENDMDL
MODEL      148
REMARK 921   NORMALIZED FREE ENERGY PREDICTED BY IDOCK:   -2.45 KCAL/MOL
REMARK 922        TOTAL FREE ENERGY PREDICTED BY IDOCK:   -2.16 KCAL/MOL
REMARK 923 INTER-LIGAND FREE ENERGY PREDICTED BY IDOCK:   -3.43 KCAL/MOL
REMARK 924 INTRA-LIGAND FREE ENERGY PREDICTED BY IDOCK:    1.27 KCAL/MOL
REMARK 927      BINDING AFFINITY PREDICTED BY RF-SCORE:    0.00 PKD
ROOT
HETATM    1 FE   UNL     1     -12.669   7.531  72.276  1.00  0.00    -0.297 Fe 
ATOM      2  N   GLY A   1      -6.333   4.804  68.441  1.00  0.00    -0.035 NA 
ATOM      3  CA  CYS B   1      -8.309   9.022  70.195  1.00  0.00    -0.151 C  
ATOM      4  CA  GLY A   1      -7.431   4.062  67.797  1.00  0.00    -0.068 C  
ATOM      5  H2  GLY A   1      -5.689   4.181  68.927  1.00  0.00     0.000 HD 
ATOM      6  H1  GLY A   1      -5.852   5.392  67.761  1.00  0.00     0.000 HD 
ATOM      7  OXT CYS C   1     -10.220   6.234  66.769  1.00  0.00    -0.186 OA 
ATOM      8  C   GLY A   1      -8.157   3.175  68.822  1.00  0.00    -0.060 C  
ATOM      9  C   CYS B   1      -8.538   8.185  71.501  1.00  0.00    -0.139 C  
ATOM     10  CA  CYS C   1     -10.814   6.102  69.075  1.00  0.00    -0.350 C  
ATOM     11  N   CYS B   1      -7.376  10.098  70.635  1.00  0.00    -0.424 NA 
ATOM     12  H2  CYS C   1      -9.342   5.501  70.493  1.00  0.00     0.000 HD 
ATOM     13  N   CYS C   1      -9.426   5.968  69.590  1.00  0.00    -0.143 NA 
ATOM     14  C   CYS C   1     -10.705   6.916  67.721  1.00  0.00    -0.254 C  
ATOM     15  H2  CYS B   1      -7.190  10.786  69.905  1.00  0.00     0.000 HD 
ATOM     16  H1  CYS B   1      -7.763  10.513  71.483  1.00  0.00     0.000 HD 
ATOM     17  O   CYS B   1      -8.797   9.039  72.563  1.00  0.00    -0.305 OA 
ATOM     18  O   CYS C   1     -10.935   8.161  67.810  1.00  0.00    -0.057 OA 
ATOM     19  OXT GLY A   1      -7.746   2.921  69.946  1.00  0.00    -0.044 OA 
ATOM     20  O   GLY A   1      -9.360   2.723  68.388  1.00  0.00    -0.180 OA 
ATOM     21  OXT CYS B   1      -8.531   6.993  71.801  1.00  0.00    -0.114 OA 
ATOM     22  H1  CYS C   1      -8.961   5.498  68.813  1.00  0.00     0.000 HD 
ENDROOT
BRANCH   3  23
ATOM     23  CB  CYS B   1      -7.723   8.394  68.913  1.00  0.00    -0.105 C  
ATOM     24  SG  CYS B   1      -5.877   8.317  68.877  1.00  0.00    -0.043 SA 
ATOM     25  HG  CYS B   1      -5.350   7.751  67.723  1.00  0.00     0.000 H  
ENDBRANCH   3  23
BRANCH  10  26
ATOM     26  CB  CYS C   1     -11.506   6.799  70.228  1.00  0.00    -0.360 C  
ATOM     27  SG  CYS C   1     -11.589   5.924  71.846  1.00  0.00    -0.117 SA 
ATOM     28  HG  CYS C   1     -12.223   6.564  72.905  1.00  0.00     0.000 H  
ENDBRANCH  10  26
TORSDOF 2
ENDMDL
MODEL      149
REMARK 921   NORMALIZED FREE ENERGY PREDICTED BY IDOCK:   -2.37 KCAL/MOL
REMARK 922        TOTAL FREE ENERGY PREDICTED BY IDOCK:   -2.07 KCAL/MOL
REMARK 923 INTER-LIGAND FREE ENERGY PREDICTED BY IDOCK:   -2.61 KCAL/MOL
REMARK 924 INTRA-LIGAND FREE ENERGY PREDICTED BY IDOCK:    0.54 KCAL/MOL
REMARK 927      BINDING AFFINITY PREDICTED BY RF-SCORE:    0.00 PKD
ROOT
HETATM    1 FE   UNL     1      -7.249   4.067  70.956  1.00  0.00    -0.029 Fe 
ATOM      2  N   GLY A   1      -8.587   9.968  65.890  1.00  0.00    -0.136 NA 
ATOM      3  CA  CYS B   1      -9.797   8.405  70.457  1.00  0.00    -0.184 C  
ATOM      4  CA  GLY A   1      -8.642   8.786  65.013  1.00  0.00    -0.169 C  
ATOM      5  H2  GLY A   1      -7.820  10.591  65.639  1.00  0.00     0.000 HD 
ATOM      6  H1  GLY A   1      -9.484  10.454  65.892  1.00  0.00     0.000 HD 
ATOM      7  OXT CYS C   1     -10.793   6.111  66.344  1.00  0.00    -0.164 OA 
ATOM      8  C   GLY A   1      -7.290   8.054  65.010  1.00  0.00    -0.079 C  
ATOM      9  C   CYS B   1      -8.254   8.186  70.619  1.00  0.00    -0.114 C  
ATOM     10  CA  CYS C   1      -8.894   5.635  67.705  1.00  0.00    -0.105 C  
ATOM     11  N   CYS B   1     -10.109   9.437  71.487  1.00  0.00    -0.229 NA 
ATOM     12  H2  CYS C   1      -7.402   7.134  67.967  1.00  0.00     0.000 HD 
ATOM     13  N   CYS C   1      -8.402   7.035  67.789  1.00  0.00    -0.117 NA 
ATOM     14  C   CYS C   1     -10.462   5.730  67.507  1.00  0.00    -0.245 C  
ATOM     15  H2  CYS B   1     -11.107   9.633  71.564  1.00  0.00     0.000 HD 
ATOM     16  H1  CYS B   1      -9.696   9.127  72.367  1.00  0.00     0.000 HD 
ATOM     17  O   CYS B   1      -7.940   8.048  71.964  1.00  0.00    -0.100 OA 
ATOM     18  O   CYS C   1     -11.157   5.598  68.561  1.00  0.00    -0.119 OA 
ATOM     19  OXT GLY A   1      -6.246   8.505  65.459  1.00  0.00    -0.048 OA 
ATOM     20  O   GLY A   1      -7.358   6.799  64.498  1.00  0.00    -0.077 OA 
ATOM     21  OXT CYS B   1      -7.285   8.121  69.866  1.00  0.00    -0.058 OA 
ATOM     22  H1  CYS C   1      -8.725   7.423  66.902  1.00  0.00     0.000 HD 
ENDROOT
BRANCH   3  23
ATOM     23  CB  CYS B   1     -10.422   8.873  69.126  1.00  0.00    -0.223 C  
ATOM     24  SG  CYS B   1     -10.712  10.694  69.019  1.00  0.00    -0.238 SA 
ATOM     25  HG  CYS B   1     -11.275  11.116  67.820  1.00  0.00     0.000 H  
ENDBRANCH   3  23
BRANCH  10  26
ATOM     26  CB  CYS C   1      -8.413   5.060  69.022  1.00  0.00    -0.082 C  
ATOM     27  SG  CYS C   1      -8.687   3.266  69.336  1.00  0.00    -0.089 SA 
ATOM     28  HG  CYS C   1      -8.246   2.739  70.544  1.00  0.00     0.000 H  
ENDBRANCH  10  26
TORSDOF 2
ENDMDL
MODEL      150
REMARK 921   NORMALIZED FREE ENERGY PREDICTED BY IDOCK:   -2.31 KCAL/MOL
REMARK 922        TOTAL FREE ENERGY PREDICTED BY IDOCK:   -2.01 KCAL/MOL
REMARK 923 INTER-LIGAND FREE ENERGY PREDICTED BY IDOCK:   -2.84 KCAL/MOL
REMARK 924 INTRA-LIGAND FREE ENERGY PREDICTED BY IDOCK:    0.83 KCAL/MOL
REMARK 927      BINDING AFFINITY PREDICTED BY RF-SCORE:    0.00 PKD
ROOT
HETATM    1 FE   UNL     1      -5.915   9.307  66.501  1.00  0.00    -0.049 Fe 
ATOM      2  N   GLY A   1     -11.063   6.521  71.795  1.00  0.00    -0.246 NA 
ATOM      3  CA  CYS B   1      -7.162   5.117  69.041  1.00  0.00    -0.057 C  
ATOM      4  CA  GLY A   1     -11.925   7.333  70.919  1.00  0.00    -0.305 C  
ATOM      5  H2  GLY A   1     -11.041   6.884  72.747  1.00  0.00     0.000 HD 
ATOM      6  H1  GLY A   1     -11.347   5.542  71.769  1.00  0.00     0.000 HD 
ATOM      7  OXT CYS C   1     -11.404   6.630  67.343  1.00  0.00    -0.299 OA 
ATOM      8  C   GLY A   1     -11.496   8.810  70.958  1.00  0.00    -0.285 C  
ATOM      9  C   CYS B   1      -6.508   6.434  69.582  1.00  0.00    -0.043 C  
ATOM     10  CA  CYS C   1      -9.504   8.043  67.621  1.00  0.00    -0.145 C  
ATOM     11  N   CYS B   1      -6.278   4.046  69.582  1.00  0.00    -0.027 NA 
ATOM     12  H2  CYS C   1      -8.750   8.394  69.583  1.00  0.00     0.000 HD 
ATOM     13  N   CYS C   1      -9.245   7.686  69.041  1.00  0.00    -0.141 NA 
ATOM     14  C   CYS C   1     -10.202   6.781  66.969  1.00  0.00    -0.237 C  
ATOM     15  H2  CYS B   1      -6.528   3.116  69.245  1.00  0.00     0.000 HD 
ATOM     16  H1  CYS B   1      -5.315   4.302  69.361  1.00  0.00     0.000 HD 
ATOM     17  O   CYS B   1      -5.136   6.394  69.374  1.00  0.00    -0.011 OA 
ATOM     18  O   CYS C   1      -9.435   6.001  66.325  1.00  0.00    -0.159 OA 
ATOM     19  OXT GLY A   1     -10.724   9.295  71.773  1.00  0.00    -0.363 OA 
ATOM     20  O   GLY A   1     -12.018   9.549  69.948  1.00  0.00     0.055 OA 
ATOM     21  OXT CYS B   1      -6.904   7.456  70.138  1.00  0.00    -0.053 OA 
ATOM     22  H1  CYS C   1     -10.184   7.464  69.373  1.00  0.00     0.000 HD 
ENDROOT
BRANCH   3  23
ATOM     23  CB  CYS B   1      -8.618   4.729  69.375  1.00  0.00    -0.082 C  
ATOM     24  SG  CYS B   1      -9.290   3.342  68.358  1.00  0.00    -0.157 SA 
ATOM     25  HG  CYS B   1     -10.601   2.992  68.659  1.00  0.00     0.000 H  
ENDBRANCH   3  23
BRANCH  10  26
ATOM     26  CB  CYS C   1      -8.110   8.374  67.128  1.00  0.00    -0.104 C  
ATOM     27  SG  CYS C   1      -7.788   8.288  65.317  1.00  0.00    -0.128 SA 
ATOM     28  HG  CYS C   1      -6.509   8.591  64.864  1.00  0.00     0.000 H  
ENDBRANCH  10  26
TORSDOF 2
ENDMDL
MODEL      151
REMARK 921   NORMALIZED FREE ENERGY PREDICTED BY IDOCK:   -2.27 KCAL/MOL
REMARK 922        TOTAL FREE ENERGY PREDICTED BY IDOCK:   -1.96 KCAL/MOL
REMARK 923 INTER-LIGAND FREE ENERGY PREDICTED BY IDOCK:   -2.50 KCAL/MOL
REMARK 924 INTRA-LIGAND FREE ENERGY PREDICTED BY IDOCK:    0.54 KCAL/MOL
REMARK 927      BINDING AFFINITY PREDICTED BY RF-SCORE:    0.00 PKD
ROOT
HETATM    1 FE   UNL     1      -9.821   9.206  66.602  1.00  0.00    -0.140 Fe 
ATOM      2  N   GLY A   1      -8.693   6.916  74.069  1.00  0.00    -0.147 NA 
ATOM      3  CA  CYS B   1      -6.326   9.062  70.253  1.00  0.00    -0.044 C  
ATOM      4  CA  GLY A   1      -9.457   5.788  73.509  1.00  0.00    -0.138 C  
ATOM      5  H2  GLY A   1      -9.204   7.386  74.816  1.00  0.00     0.000 HD 
ATOM      6  H1  GLY A   1      -7.772   6.606  74.378  1.00  0.00     0.000 HD 
ATOM      7  OXT CYS C   1      -8.100   4.588  70.304  1.00  0.00    -0.062 OA 
ATOM      8  C   GLY A   1     -10.846   6.255  73.044  1.00  0.00    -0.259 C  
ATOM      9  C   CYS B   1      -7.614   9.951  70.161  1.00  0.00    -0.175 C  
ATOM     10  CA  CYS C   1      -9.266   6.469  69.418  1.00  0.00    -0.144 C  
ATOM     11  N   CYS B   1      -5.250  10.045  70.565  1.00  0.00    -0.043 NA 
ATOM     12  H2  CYS C   1      -9.834   8.050  70.728  1.00  0.00     0.000 HD 
ATOM     13  N   CYS C   1      -9.120   7.329  70.621  1.00  0.00    -0.156 NA 
ATOM     14  C   CYS C   1      -8.019   5.492  69.420  1.00  0.00    -0.094 C  
ATOM     15  H2  CYS B   1      -4.320   9.625  70.577  1.00  0.00     0.000 HD 
ATOM     16  H1  CYS B   1      -5.331  10.812  69.897  1.00  0.00     0.000 HD 
ATOM     17  O   CYS B   1      -7.352  11.073  69.388  1.00  0.00    -0.124 OA 
ATOM     18  O   CYS C   1      -7.046   5.844  68.686  1.00  0.00    -0.076 OA 
ATOM     19  OXT GLY A   1     -11.351   7.335  73.316  1.00  0.00    -0.232 OA 
ATOM     20  O   GLY A   1     -11.470   5.365  72.233  1.00  0.00    -0.201 OA 
ATOM     21  OXT CYS B   1      -8.759   9.900  70.604  1.00  0.00    -0.105 OA 
ATOM     22  H1  CYS C   1      -9.087   6.636  71.369  1.00  0.00     0.000 HD 
ENDROOT
BRANCH   3  23
ATOM     23  CB  CYS B   1      -6.203   7.902  71.264  1.00  0.00    -0.034 C  
ATOM     24  SG  CYS B   1      -5.190   8.297  72.757  1.00  0.00    -0.041 SA 
ATOM     25  HG  CYS B   1      -5.079   7.252  73.667  1.00  0.00     0.000 H  
ENDBRANCH   3  23
BRANCH  10  26
ATOM     26  CB  CYS C   1      -9.315   7.498  68.307  1.00  0.00    -0.141 C  
ATOM     27  SG  CYS C   1      -9.622   6.907  66.590  1.00  0.00    -0.145 SA 
ATOM     28  HG  CYS C   1      -9.667   7.851  65.571  1.00  0.00     0.000 H  
ENDBRANCH  10  26
TORSDOF 2
ENDMDL
MODEL      152
REMARK 921   NORMALIZED FREE ENERGY PREDICTED BY IDOCK:   -2.19 KCAL/MOL
REMARK 922        TOTAL FREE ENERGY PREDICTED BY IDOCK:   -1.87 KCAL/MOL
REMARK 923 INTER-LIGAND FREE ENERGY PREDICTED BY IDOCK:   -2.47 KCAL/MOL
REMARK 924 INTRA-LIGAND FREE ENERGY PREDICTED BY IDOCK:    0.60 KCAL/MOL
REMARK 927      BINDING AFFINITY PREDICTED BY RF-SCORE:    0.00 PKD
ROOT
HETATM    1 FE   UNL     1     -11.932  10.024  67.787  1.00  0.00    -0.521 Fe 
ATOM      2  N   GLY A   1      -9.326   2.766  66.108  1.00  0.00    -0.350 NA 
ATOM      3  CA  CYS B   1      -9.510   6.077  69.818  1.00  0.00    -0.149 C  
ATOM      4  CA  GLY A   1      -8.964   3.516  64.893  1.00  0.00    -0.131 C  
ATOM      5  H2  GLY A   1     -10.002   2.029  65.910  1.00  0.00     0.000 HD 
ATOM      6  H1  GLY A   1      -8.490   2.401  66.565  1.00  0.00     0.000 HD 
ATOM      7  OXT CYS C   1      -7.227   6.678  65.624  1.00  0.00    -0.066 OA 
ATOM      8  C   GLY A   1     -10.224   4.066  64.203  1.00  0.00    -0.170 C  
ATOM      9  C   CYS B   1     -11.021   6.203  69.420  1.00  0.00    -0.385 C  
ATOM     10  CA  CYS C   1      -9.432   7.472  66.062  1.00  0.00     0.056 C  
ATOM     11  N   CYS B   1      -9.564   5.557  71.214  1.00  0.00    -0.152 NA 
ATOM     12  H2  CYS C   1     -10.985   6.065  66.445  1.00  0.00     0.000 HD 
ATOM     13  N   CYS C   1      -9.976   6.176  66.545  1.00  0.00    -0.285 NA 
ATOM     14  C   CYS C   1      -7.882   7.449  66.387  1.00  0.00    -0.102 C  
ATOM     15  H2  CYS B   1      -8.644   5.496  71.652  1.00  0.00     0.000 HD 
ATOM     16  H1  CYS B   1     -10.214   6.145  71.736  1.00  0.00     0.000 HD 
ATOM     17  O   CYS B   1     -11.724   6.822  70.443  1.00  0.00    -0.361 OA 
ATOM     18  O   CYS C   1      -7.538   8.041  67.456  1.00  0.00    -0.098 OA 
ATOM     19  OXT GLY A   1     -11.371   3.732  64.466  1.00  0.00    -0.176 OA 
ATOM     20  O   GLY A   1      -9.958   5.025  63.281  1.00  0.00     0.481 OA 
ATOM     21  OXT CYS B   1     -11.711   5.884  68.454  1.00  0.00     0.639 OA 
ATOM     22  H1  CYS C   1      -9.412   5.506  66.022  1.00  0.00     0.000 HD 
ENDROOT
BRANCH   3  23
ATOM     23  CB  CYS B   1      -8.526   5.188  69.029  1.00  0.00    -0.090 C  
ATOM     24  SG  CYS B   1      -8.586   3.398  69.481  1.00  0.00    -0.071 SA 
ATOM     25  HG  CYS B   1      -7.700   2.598  68.769  1.00  0.00     0.000 H  
ENDBRANCH   3  23
BRANCH  10  26
ATOM     26  CB  CYS C   1     -10.270   8.467  66.839  1.00  0.00    -0.305 C  
ATOM     27  SG  CYS C   1      -9.961  10.262  66.566  1.00  0.00    -0.234 SA 
ATOM     28  HG  CYS C   1     -10.730  11.174  67.279  1.00  0.00     0.000 H  
ENDBRANCH  10  26
TORSDOF 2
ENDMDL
MODEL      153
REMARK 921   NORMALIZED FREE ENERGY PREDICTED BY IDOCK:   -2.10 KCAL/MOL
REMARK 922        TOTAL FREE ENERGY PREDICTED BY IDOCK:   -1.77 KCAL/MOL
REMARK 923 INTER-LIGAND FREE ENERGY PREDICTED BY IDOCK:   -2.61 KCAL/MOL
REMARK 924 INTRA-LIGAND FREE ENERGY PREDICTED BY IDOCK:    0.84 KCAL/MOL
REMARK 927      BINDING AFFINITY PREDICTED BY RF-SCORE:    0.00 PKD
ROOT
HETATM    1 FE   UNL     1      -8.824   9.876  71.624  1.00  0.00     0.042 Fe 
ATOM      2  N   GLY A   1      -7.222   2.878  68.345  1.00  0.00    -0.049 NA 
ATOM      3  CA  CYS B   1     -10.279   6.780  67.901  1.00  0.00    -0.171 C  
ATOM      4  CA  GLY A   1      -7.132   2.576  69.784  1.00  0.00    -0.033 C  
ATOM      5  H2  GLY A   1      -6.328   2.744  67.874  1.00  0.00     0.000 HD 
ATOM      6  H1  GLY A   1      -7.965   2.332  67.911  1.00  0.00     0.000 HD 
ATOM      7  OXT CYS C   1     -10.020   3.829  71.694  1.00  0.00    -0.182 OA 
ATOM      8  C   GLY A   1      -6.011   3.399  70.440  1.00  0.00    -0.018 C  
ATOM      9  C   CYS B   1      -8.963   7.623  68.018  1.00  0.00    -0.126 C  
ATOM     10  CA  CYS C   1      -8.867   5.910  71.549  1.00  0.00    -0.136 C  
ATOM     11  N   CYS B   1     -10.784   7.118  66.540  1.00  0.00    -0.455 NA 
ATOM     12  H2  CYS C   1      -7.363   6.163  70.061  1.00  0.00     0.000 HD 
ATOM     13  N   CYS C   1      -8.226   5.647  70.234  1.00  0.00    -0.103 NA 
ATOM     14  C   CYS C   1     -10.212   5.074  71.560  1.00  0.00    -0.204 C  
ATOM     15  H2  CYS B   1     -11.694   6.703  66.339  1.00  0.00     0.000 HD 
ATOM     16  H1  CYS B   1     -10.784   8.134  66.455  1.00  0.00     0.000 HD 
ATOM     17  O   CYS B   1      -9.200   8.921  67.588  1.00  0.00    -0.136 OA 
ATOM     18  O   CYS C   1     -11.261   5.719  71.253  1.00  0.00    -0.246 OA 
ATOM     19  OXT GLY A   1      -5.153   4.025  69.834  1.00  0.00     0.000 OA 
ATOM     20  O   GLY A   1      -6.082   3.423  71.794  1.00  0.00    -0.013 OA 
ATOM     21  OXT CYS B   1      -7.807   7.414  68.378  1.00  0.00    -0.117 OA 
ATOM     22  H1  CYS C   1      -8.130   4.632  70.249  1.00  0.00     0.000 HD 
ENDROOT
BRANCH   3  23
ATOM     23  CB  CYS B   1     -10.280   5.242  68.028  1.00  0.00    -0.143 C  
ATOM     24  SG  CYS B   1      -9.678   4.352  66.525  1.00  0.00    -0.229 SA 
ATOM     25  HG  CYS B   1      -9.679   2.967  66.641  1.00  0.00     0.000 H  
ENDBRANCH   3  23
BRANCH  10  26
ATOM     26  CB  CYS C   1      -9.010   7.418  71.526  1.00  0.00    -0.125 C  
ATOM     27  SG  CYS C   1      -8.963   8.318  73.132  1.00  0.00    -0.171 SA 
ATOM     28  HG  CYS C   1      -9.094   9.702  73.111  1.00  0.00     0.000 H  
ENDBRANCH  10  26
TORSDOF 2
ENDMDL
MODEL      154
REMARK 921   NORMALIZED FREE ENERGY PREDICTED BY IDOCK:   -2.10 KCAL/MOL
REMARK 922        TOTAL FREE ENERGY PREDICTED BY IDOCK:   -1.77 KCAL/MOL
REMARK 923 INTER-LIGAND FREE ENERGY PREDICTED BY IDOCK:   -2.34 KCAL/MOL
REMARK 924 INTRA-LIGAND FREE ENERGY PREDICTED BY IDOCK:    0.57 KCAL/MOL
REMARK 927      BINDING AFFINITY PREDICTED BY RF-SCORE:    0.00 PKD
ROOT
HETATM    1 FE   UNL     1     -10.816  12.725  66.590  1.00  0.00    -0.243 Fe 
ATOM      2  N   GLY A   1      -6.356   7.310  70.206  1.00  0.00    -0.034 NA 
ATOM      3  CA  CYS B   1     -10.365   7.738  67.288  1.00  0.00    -0.301 C  
ATOM      4  CA  GLY A   1      -6.473   8.357  71.236  1.00  0.00    -0.051 C  
ATOM      5  H2  GLY A   1      -5.391   7.181  69.905  1.00  0.00     0.000 HD 
ATOM      6  H1  GLY A   1      -6.771   6.438  70.533  1.00  0.00     0.000 HD 
ATOM      7  OXT CYS C   1      -9.941   9.476  71.756  1.00  0.00    -0.088 OA 
ATOM      8  C   GLY A   1      -5.847   9.672  70.743  1.00  0.00    -0.072 C  
ATOM      9  C   CYS B   1      -9.455   8.698  66.447  1.00  0.00    -0.230 C  
ATOM     10  CA  CYS C   1      -9.534  10.758  69.787  1.00  0.00     0.372 C  
ATOM     11  N   CYS B   1     -10.659   6.625  66.341  1.00  0.00    -0.481 NA 
ATOM     12  H2  CYS C   1      -7.923  10.210  68.505  1.00  0.00     0.000 HD 
ATOM     13  N   CYS C   1      -8.584   9.799  69.165  1.00  0.00    -0.142 NA 
ATOM     14  C   CYS C   1     -10.500   9.895  70.698  1.00  0.00    -0.231 C  
ATOM     15  H2  CYS B   1     -11.319   5.945  66.719  1.00  0.00     0.000 HD 
ATOM     16  H1  CYS B   1     -10.976   7.042  65.465  1.00  0.00     0.000 HD 
ATOM     17  O   CYS B   1     -10.010   8.887  65.190  1.00  0.00     0.383 OA 
ATOM     18  O   CYS C   1     -11.615   9.587  70.176  1.00  0.00    -0.215 OA 
ATOM     19  OXT GLY A   1      -5.136   9.784  69.754  1.00  0.00    -0.034 OA 
ATOM     20  O   GLY A   1      -6.201  10.749  71.487  1.00  0.00    -0.106 OA 
ATOM     21  OXT CYS B   1      -8.395   9.295  66.625  1.00  0.00    -0.120 OA 
ATOM     22  H1  CYS C   1      -8.165   9.361  69.985  1.00  0.00     0.000 HD 
ENDROOT
BRANCH   3  23
ATOM     23  CB  CYS B   1      -9.886   7.107  68.612  1.00  0.00    -0.154 C  
ATOM     24  SG  CYS B   1     -10.773   5.556  69.082  1.00  0.00    -0.092 SA 
ATOM     25  HG  CYS B   1     -10.342   4.988  70.274  1.00  0.00     0.000 H  
ENDBRANCH   3  23
BRANCH  10  26
ATOM     26  CB  CYS C   1     -10.158  11.409  68.569  1.00  0.00    -0.206 C  
ATOM     27  SG  CYS C   1     -11.250  12.868  68.829  1.00  0.00    -0.295 SA 
ATOM     28  HG  CYS C   1     -11.822  13.465  67.712  1.00  0.00     0.000 H  
ENDBRANCH  10  26
TORSDOF 2
ENDMDL
MODEL      155
REMARK 921   NORMALIZED FREE ENERGY PREDICTED BY IDOCK:   -2.09 KCAL/MOL
REMARK 922        TOTAL FREE ENERGY PREDICTED BY IDOCK:   -1.76 KCAL/MOL
REMARK 923 INTER-LIGAND FREE ENERGY PREDICTED BY IDOCK:   -2.27 KCAL/MOL
REMARK 924 INTRA-LIGAND FREE ENERGY PREDICTED BY IDOCK:    0.51 KCAL/MOL
REMARK 927      BINDING AFFINITY PREDICTED BY RF-SCORE:    0.00 PKD
ROOT
HETATM    1 FE   UNL     1      -8.763  10.129  71.699  1.00  0.00     0.259 Fe 
ATOM      2  N   GLY A   1      -7.652  10.872  63.921  1.00  0.00    -0.233 NA 
ATOM      3  CA  CYS B   1      -8.066  13.584  68.074  1.00  0.00    -0.156 C  
ATOM      4  CA  GLY A   1      -8.697   9.837  63.989  1.00  0.00    -0.216 C  
ATOM      5  H2  GLY A   1      -6.792  10.515  63.506  1.00  0.00     0.000 HD 
ATOM      6  H1  GLY A   1      -7.996  11.697  63.429  1.00  0.00     0.000 HD 
ATOM      7  OXT CYS C   1     -11.488  10.762  66.206  1.00  0.00     0.022 OA 
ATOM      8  C   GLY A   1      -8.179   8.594  64.731  1.00  0.00    -0.160 C  
ATOM      9  C   CYS B   1      -7.039  12.554  68.659  1.00  0.00    -0.100 C  
ATOM     10  CA  CYS C   1      -9.990  10.072  67.928  1.00  0.00    -0.154 C  
ATOM     11  N   CYS B   1      -7.329  14.878  68.137  1.00  0.00    -0.108 NA 
ATOM     12  H2  CYS C   1      -7.906   9.950  67.504  1.00  0.00     0.000 HD 
ATOM     13  N   CYS C   1      -8.742  10.461  67.220  1.00  0.00    -0.126 NA 
ATOM     14  C   CYS C   1     -11.123  11.037  67.388  1.00  0.00    -0.305 C  
ATOM     15  H2  CYS B   1      -7.903  15.676  67.861  1.00  0.00     0.000 HD 
ATOM     16  H1  CYS B   1      -6.949  14.970  69.079  1.00  0.00     0.000 HD 
ATOM     17  O   CYS B   1      -6.479  13.063  69.822  1.00  0.00    -0.095 OA 
ATOM     18  O   CYS C   1     -11.376  12.046  68.115  1.00  0.00    -0.246 OA 
ATOM     19  OXT GLY A   1      -7.007   8.380  65.007  1.00  0.00    -0.072 OA 
ATOM     20  O   GLY A   1      -9.165   7.746  65.116  1.00  0.00     0.293 OA 
ATOM     21  OXT CYS B   1      -6.616  11.446  68.339  1.00  0.00    -0.059 OA 
ATOM     22  H1  CYS C   1      -9.012  10.343  66.243  1.00  0.00     0.000 HD 
ENDROOT
BRANCH   3  23
ATOM     23  CB  CYS B   1      -8.641  13.446  66.649  1.00  0.00     0.071 C  
ATOM     24  SG  CYS B   1      -9.812  14.791  66.166  1.00  0.00    -0.328 SA 
ATOM     25  HG  CYS B   1     -10.330  14.667  64.883  1.00  0.00     0.000 H  
ENDBRANCH   3  23
BRANCH  10  26
ATOM     26  CB  CYS C   1      -9.589  10.246  69.378  1.00  0.00    -0.218 C  
ATOM     27  SG  CYS C   1     -10.829   9.834  70.676  1.00  0.00    -0.338 SA 
ATOM     28  HG  CYS C   1     -10.461   9.995  72.007  1.00  0.00     0.000 H  
ENDBRANCH  10  26
TORSDOF 2
ENDMDL
MODEL      156
REMARK 921   NORMALIZED FREE ENERGY PREDICTED BY IDOCK:   -2.02 KCAL/MOL
REMARK 922        TOTAL FREE ENERGY PREDICTED BY IDOCK:   -1.68 KCAL/MOL
REMARK 923 INTER-LIGAND FREE ENERGY PREDICTED BY IDOCK:   -3.03 KCAL/MOL
REMARK 924 INTRA-LIGAND FREE ENERGY PREDICTED BY IDOCK:    1.35 KCAL/MOL
REMARK 927      BINDING AFFINITY PREDICTED BY RF-SCORE:    0.00 PKD
ROOT
HETATM    1 FE   UNL     1      -6.706  10.604  70.971  1.00  0.00    -0.110 Fe 
ATOM      2  N   GLY A   1      -9.830   3.398  71.747  1.00  0.00    -0.168 NA 
ATOM      3  CA  CYS B   1      -7.968   6.488  68.319  1.00  0.00    -0.110 C  
ATOM      4  CA  GLY A   1     -10.699   4.210  72.617  1.00  0.00    -0.072 C  
ATOM      5  H2  GLY A   1      -9.321   2.690  72.275  1.00  0.00     0.000 HD 
ATOM      6  H1  GLY A   1     -10.371   2.988  70.986  1.00  0.00     0.000 HD 
ATOM      7  OXT CYS C   1     -11.899   7.282  70.980  1.00  0.00    -0.297 OA 
ATOM      8  C   GLY A   1      -9.885   4.829  73.765  1.00  0.00    -0.146 C  
ATOM      9  C   CYS B   1      -6.801   6.673  69.349  1.00  0.00    -0.065 C  
ATOM     10  CA  CYS C   1      -9.731   8.100  71.537  1.00  0.00    -0.176 C  
ATOM     11  N   CYS B   1      -7.291   5.888  67.134  1.00  0.00    -0.076 NA 
ATOM     12  H2  CYS C   1      -8.180   6.710  71.988  1.00  0.00     0.000 HD 
ATOM     13  N   CYS C   1      -9.034   6.791  71.436  1.00  0.00    -0.142 NA 
ATOM     14  C   CYS C   1     -10.965   8.021  70.549  1.00  0.00    -0.247 C  
ATOM     15  H2  CYS B   1      -7.913   5.780  66.333  1.00  0.00     0.000 HD 
ATOM     16  H1  CYS B   1      -6.472   6.459  66.927  1.00  0.00     0.000 HD 
ATOM     17  O   CYS B   1      -5.708   7.247  68.717  1.00  0.00    -0.021 OA 
ATOM     18  O   CYS C   1     -10.785   8.540  69.405  1.00  0.00    -0.222 OA 
ATOM     19  OXT GLY A   1      -8.745   4.508  74.071  1.00  0.00    -0.104 OA 
ATOM     20  O   GLY A   1     -10.534   5.835  74.405  1.00  0.00    -0.265 OA 
ATOM     21  OXT CYS B   1      -6.624   6.428  70.540  1.00  0.00    -0.042 OA 
ATOM     22  H1  CYS C   1      -9.778   6.140  71.689  1.00  0.00     0.000 HD 
ENDROOT
BRANCH   3  23
ATOM     23  CB  CYS B   1      -9.208   5.624  68.633  1.00  0.00    -0.122 C  
ATOM     24  SG  CYS B   1     -10.505   5.646  67.318  1.00  0.00    -0.256 SA 
ATOM     25  HG  CYS B   1     -11.621   4.868  67.600  1.00  0.00     0.000 H  
ENDBRANCH   3  23
BRANCH  10  26
ATOM     26  CB  CYS C   1      -8.626   9.067  71.162  1.00  0.00    -0.190 C  
ATOM     27  SG  CYS C   1      -8.747   9.935  69.542  1.00  0.00    -0.198 SA 
ATOM     28  HG  CYS C   1      -7.734  10.822  69.198  1.00  0.00     0.000 H  
ENDBRANCH  10  26
TORSDOF 2
ENDMDL
MODEL      157
REMARK 921   NORMALIZED FREE ENERGY PREDICTED BY IDOCK:   -2.02 KCAL/MOL
REMARK 922        TOTAL FREE ENERGY PREDICTED BY IDOCK:   -1.68 KCAL/MOL
REMARK 923 INTER-LIGAND FREE ENERGY PREDICTED BY IDOCK:   -2.79 KCAL/MOL
REMARK 924 INTRA-LIGAND FREE ENERGY PREDICTED BY IDOCK:    1.12 KCAL/MOL
REMARK 927      BINDING AFFINITY PREDICTED BY RF-SCORE:    0.00 PKD
ROOT
HETATM    1 FE   UNL     1      -8.204  11.869  64.794  1.00  0.00    -0.278 Fe 
ATOM      2  N   GLY A   1      -9.289  18.910  68.190  1.00  0.00    -0.312 NA 
ATOM      3  CA  CYS B   1      -7.848  14.262  69.234  1.00  0.00     0.085 C  
ATOM      4  CA  GLY A   1     -10.473  18.798  67.320  1.00  0.00    -0.431 C  
ATOM      5  H2  GLY A   1      -8.692  19.690  67.918  1.00  0.00     0.000 HD 
ATOM      6  H1  GLY A   1      -9.569  18.971  69.169  1.00  0.00     0.000 HD 
ATOM      7  OXT CYS C   1     -12.208  15.570  67.671  1.00  0.00     0.251 OA 
ATOM      8  C   GLY A   1     -10.051  18.706  65.844  1.00  0.00    -0.172 C  
ATOM      9  C   CYS B   1      -6.952  14.423  67.957  1.00  0.00    -0.143 C  
ATOM     10  CA  CYS C   1     -10.466  14.788  66.244  1.00  0.00    -0.296 C  
ATOM     11  N   CYS B   1      -6.855  14.070  70.329  1.00  0.00    -0.390 NA 
ATOM     12  H2  CYS C   1      -8.680  15.935  66.061  1.00  0.00     0.000 HD 
ATOM     13  N   CYS C   1      -9.426  15.735  66.727  1.00  0.00    -0.229 NA 
ATOM     14  C   CYS C   1     -11.461  14.569  67.457  1.00  0.00    -0.356 C  
ATOM     15  H2  CYS B   1      -7.291  13.867  71.229  1.00  0.00     0.000 HD 
ATOM     16  H1  CYS B   1      -6.205  13.343  70.030  1.00  0.00     0.000 HD 
ATOM     17  O   CYS B   1      -5.977  13.436  67.944  1.00  0.00    -0.114 OA 
ATOM     18  O   CYS C   1     -11.256  13.528  68.153  1.00  0.00    -0.249 OA 
ATOM     19  OXT GLY A   1      -8.929  18.941  65.419  1.00  0.00     0.230 OA 
ATOM     20  O   GLY A   1     -11.044  18.278  65.026  1.00  0.00    -0.614 OA 
ATOM     21  OXT CYS B   1      -6.902  15.195  67.002  1.00  0.00    -0.230 OA 
ATOM     22  H1  CYS C   1      -9.990  16.539  67.002  1.00  0.00     0.000 HD 
ENDROOT
BRANCH   3  23
ATOM     23  CB  CYS B   1      -8.832  15.361  69.686  1.00  0.00    -0.138 C  
ATOM     24  SG  CYS B   1     -10.259  14.742  70.683  1.00  0.00     1.009 SA 
ATOM     25  HG  CYS B   1     -11.145  15.732  71.091  1.00  0.00     0.000 H  
ENDBRANCH   3  23
BRANCH  10  26
ATOM     26  CB  CYS C   1      -9.628  13.593  65.835  1.00  0.00    -0.118 C  
ATOM     27  SG  CYS C   1     -10.457  12.223  64.927  1.00  0.00    -0.299 SA 
ATOM     28  HG  CYS C   1      -9.689  11.127  64.552  1.00  0.00     0.000 H  
ENDBRANCH  10  26
TORSDOF 2
ENDMDL
MODEL      158
REMARK 921   NORMALIZED FREE ENERGY PREDICTED BY IDOCK:   -2.01 KCAL/MOL
REMARK 922        TOTAL FREE ENERGY PREDICTED BY IDOCK:   -1.67 KCAL/MOL
REMARK 923 INTER-LIGAND FREE ENERGY PREDICTED BY IDOCK:   -2.26 KCAL/MOL
REMARK 924 INTRA-LIGAND FREE ENERGY PREDICTED BY IDOCK:    0.59 KCAL/MOL
REMARK 927      BINDING AFFINITY PREDICTED BY RF-SCORE:    0.00 PKD
ROOT
HETATM    1 FE   UNL     1     -10.800   6.484  73.691  1.00  0.00    -0.221 Fe 
ATOM      2  N   GLY A   1      -8.405   4.944  66.331  1.00  0.00    -0.108 NA 
ATOM      3  CA  CYS B   1      -7.101   4.232  71.081  1.00  0.00    -0.036 C  
ATOM      4  CA  GLY A   1      -8.860   6.340  66.225  1.00  0.00    -0.147 C  
ATOM      5  H2  GLY A   1      -8.961   4.319  65.748  1.00  0.00     0.000 HD 
ATOM      6  H1  GLY A   1      -7.410   4.875  66.118  1.00  0.00     0.000 HD 
ATOM      7  OXT CYS C   1      -7.506   8.496  68.884  1.00  0.00    -0.087 OA 
ATOM      8  C   GLY A   1     -10.361   6.445  66.545  1.00  0.00    -0.080 C  
ATOM      9  C   CYS B   1      -8.592   3.783  71.257  1.00  0.00    -0.080 C  
ATOM     10  CA  CYS C   1      -9.236   7.506  70.192  1.00  0.00    -0.154 C  
ATOM     11  N   CYS B   1      -6.329   3.002  71.415  1.00  0.00    -0.018 NA 
ATOM     12  H2  CYS C   1     -10.115   5.678  69.538  1.00  0.00     0.000 HD 
ATOM     13  N   CYS C   1      -9.237   6.195  69.491  1.00  0.00    -0.138 NA 
ATOM     14  C   CYS C   1      -7.767   8.080  70.052  1.00  0.00    -0.088 C  
ATOM     15  H2  CYS B   1      -5.320   3.157  71.425  1.00  0.00     0.000 HD 
ATOM     16  H1  CYS B   1      -6.685   2.647  72.302  1.00  0.00     0.000 HD 
ATOM     17  O   CYS B   1      -8.733   3.089  72.450  1.00  0.00    -0.077 OA 
ATOM     18  O   CYS C   1      -7.005   7.882  71.047  1.00  0.00    -0.047 OA 
ATOM     19  OXT GLY A   1     -11.128   5.496  66.632  1.00  0.00    -0.163 OA 
ATOM     20  O   GLY A   1     -10.773   7.714  66.787  1.00  0.00    -0.318 OA 
ATOM     21  OXT CYS B   1      -9.631   3.885  70.608  1.00  0.00    -0.164 OA 
ATOM     22  H1  CYS C   1      -8.941   6.462  68.552  1.00  0.00     0.000 HD 
ENDROOT
BRANCH   3  23
ATOM     23  CB  CYS B   1      -6.562   4.770  69.739  1.00  0.00    -0.036 C  
ATOM     24  SG  CYS B   1      -5.832   3.479  68.639  1.00  0.00    -0.024 SA 
ATOM     25  HG  CYS B   1      -5.346   3.963  67.430  1.00  0.00     0.000 H  
ENDBRANCH   3  23
BRANCH  10  26
ATOM     26  CB  CYS C   1      -9.677   7.109  71.586  1.00  0.00    -0.159 C  
ATOM     27  SG  CYS C   1      -9.612   8.386  72.912  1.00  0.00    -0.115 SA 
ATOM     28  HG  CYS C   1     -10.016   8.022  74.191  1.00  0.00     0.000 H  
ENDBRANCH  10  26
TORSDOF 2
ENDMDL
MODEL      159
REMARK 921   NORMALIZED FREE ENERGY PREDICTED BY IDOCK:   -2.00 KCAL/MOL
REMARK 922        TOTAL FREE ENERGY PREDICTED BY IDOCK:   -1.66 KCAL/MOL
REMARK 923 INTER-LIGAND FREE ENERGY PREDICTED BY IDOCK:   -2.18 KCAL/MOL
REMARK 924 INTRA-LIGAND FREE ENERGY PREDICTED BY IDOCK:    0.52 KCAL/MOL
REMARK 927      BINDING AFFINITY PREDICTED BY RF-SCORE:    0.00 PKD
ROOT
HETATM    1 FE   UNL     1      -6.824   4.769  70.790  1.00  0.00    -0.028 Fe 
ATOM      2  N   GLY A   1      -8.050   6.400  63.166  1.00  0.00    -0.243 NA 
ATOM      3  CA  CYS B   1      -7.728   8.601  67.618  1.00  0.00    -0.102 C  
ATOM      4  CA  GLY A   1      -8.854   5.181  63.358  1.00  0.00     0.026 C  
ATOM      5  H2  GLY A   1      -7.293   6.254  62.499  1.00  0.00     0.000 HD 
ATOM      6  H1  GLY A   1      -8.646   7.183  62.898  1.00  0.00     0.000 HD 
ATOM      7  OXT CYS C   1     -11.031   5.350  66.322  1.00  0.00    -0.221 OA 
ATOM      8  C   GLY A   1      -7.956   4.000  63.763  1.00  0.00    -0.088 C  
ATOM      9  C   CYS B   1      -6.427   7.741  67.773  1.00  0.00    -0.052 C  
ATOM     10  CA  CYS C   1      -9.024   4.811  67.490  1.00  0.00    -0.110 C  
ATOM     11  N   CYS B   1      -7.222  10.002  67.668  1.00  0.00    -0.087 NA 
ATOM     12  H2  CYS C   1      -7.148   5.131  66.532  1.00  0.00     0.000 HD 
ATOM     13  N   CYS C   1      -8.101   5.494  66.546  1.00  0.00    -0.105 NA 
ATOM     14  C   CYS C   1     -10.402   5.584  67.397  1.00  0.00    -0.225 C  
ATOM     15  H2  CYS B   1      -7.970  10.695  67.661  1.00  0.00     0.000 HD 
ATOM     16  H1  CYS B   1      -6.615  10.081  68.484  1.00  0.00     0.000 HD 
ATOM     17  O   CYS B   1      -5.656   8.242  68.812  1.00  0.00    -0.034 OA 
ATOM     18  O   CYS C   1     -10.603   6.457  68.297  1.00  0.00    -0.200 OA 
ATOM     19  OXT GLY A   1      -6.735   3.992  63.697  1.00  0.00    -0.040 OA 
ATOM     20  O   GLY A   1      -8.646   2.947  64.267  1.00  0.00    -0.092 OA 
ATOM     21  OXT CYS B   1      -5.936   6.767  67.205  1.00  0.00    -0.016 OA 
ATOM     22  H1  CYS C   1      -8.609   5.414  65.664  1.00  0.00     0.000 HD 
ENDROOT
BRANCH   3  23
ATOM     23  CB  CYS B   1      -8.646   8.482  66.384  1.00  0.00    -0.125 C  
ATOM     24  SG  CYS B   1     -10.027   9.708  66.340  1.00  0.00    -0.252 SA 
ATOM     25  HG  CYS B   1     -10.854   9.600  65.228  1.00  0.00     0.000 H  
ENDBRANCH   3  23
BRANCH  10  26
ATOM     26  CB  CYS C   1      -8.270   4.930  68.798  1.00  0.00    -0.083 C  
ATOM     27  SG  CYS C   1      -9.007   4.157  70.298  1.00  0.00    -0.103 SA 
ATOM     28  HG  CYS C   1      -8.316   4.266  71.498  1.00  0.00     0.000 H  
ENDBRANCH  10  26
TORSDOF 2
ENDMDL
MODEL      160
REMARK 921   NORMALIZED FREE ENERGY PREDICTED BY IDOCK:   -1.99 KCAL/MOL
REMARK 922        TOTAL FREE ENERGY PREDICTED BY IDOCK:   -1.64 KCAL/MOL
REMARK 923 INTER-LIGAND FREE ENERGY PREDICTED BY IDOCK:   -3.07 KCAL/MOL
REMARK 924 INTRA-LIGAND FREE ENERGY PREDICTED BY IDOCK:    1.43 KCAL/MOL
REMARK 927      BINDING AFFINITY PREDICTED BY RF-SCORE:    0.00 PKD
ROOT
HETATM    1 FE   UNL     1     -10.843   5.945  65.575  1.00  0.00    -0.434 Fe 
ATOM      2  N   GLY A   1      -6.324  11.398  69.056  1.00  0.00    -0.057 NA 
ATOM      3  CA  CYS B   1      -7.738   6.647  69.503  1.00  0.00    -0.104 C  
ATOM      4  CA  GLY A   1      -7.533  12.167  68.716  1.00  0.00    -0.075 C  
ATOM      5  H2  GLY A   1      -5.501  11.749  68.566  1.00  0.00     0.000 HD 
ATOM      6  H1  GLY A   1      -6.183  11.381  70.066  1.00  0.00     0.000 HD 
ATOM      7  OXT CYS C   1     -10.640  10.480  69.745  1.00  0.00    -0.247 OA 
ATOM      8  C   GLY A   1      -7.745  12.193  67.193  1.00  0.00    -0.151 C  
ATOM      9  C   CYS B   1      -7.388   6.565  67.977  1.00  0.00    -0.090 C  
ATOM     10  CA  CYS C   1     -10.284   9.207  67.761  1.00  0.00    -0.224 C  
ATOM     11  N   CYS B   1      -6.780   5.692  70.128  1.00  0.00    -0.046 NA 
ATOM     12  H2  CYS C   1      -8.341   9.167  66.887  1.00  0.00     0.000 HD 
ATOM     13  N   CYS C   1      -8.799   9.273  67.792  1.00  0.00    -0.120 NA 
ATOM     14  C   CYS C   1     -10.762   9.313  69.267  1.00  0.00    -0.196 C  
ATOM     15  H2  CYS B   1      -6.938   5.569  71.129  1.00  0.00     0.000 HD 
ATOM     16  H1  CYS B   1      -6.836   4.816  69.607  1.00  0.00     0.000 HD 
ATOM     17  O   CYS B   1      -7.271   5.237  67.596  1.00  0.00    -0.069 OA 
ATOM     18  O   CYS C   1     -11.020   8.210  69.839  1.00  0.00    -0.240 OA 
ATOM     19  OXT GLY A   1      -6.915  11.850  66.363  1.00  0.00     0.095 OA 
ATOM     20  O   GLY A   1      -8.990  12.591  66.829  1.00  0.00    -0.209 OA 
ATOM     21  OXT CYS B   1      -7.187   7.370  67.070  1.00  0.00    -0.084 OA 
ATOM     22  H1  CYS C   1      -8.641  10.167  68.258  1.00  0.00     0.000 HD 
ENDROOT
BRANCH   3  23
ATOM     23  CB  CYS B   1      -7.655   7.971  70.292  1.00  0.00    -0.081 C  
ATOM     24  SG  CYS B   1      -8.190   7.843  72.055  1.00  0.00    -0.130 SA 
ATOM     25  HG  CYS B   1      -8.114   9.035  72.765  1.00  0.00     0.000 H  
ENDBRANCH   3  23
BRANCH  10  26
ATOM     26  CB  CYS C   1     -10.519   7.879  67.071  1.00  0.00    -0.349 C  
ATOM     27  SG  CYS C   1     -11.034   6.443  68.102  1.00  0.00    -0.264 SA 
ATOM     28  HG  CYS C   1     -11.250   5.225  67.469  1.00  0.00     0.000 H  
ENDBRANCH  10  26
TORSDOF 2
ENDMDL
MODEL      161
REMARK 921   NORMALIZED FREE ENERGY PREDICTED BY IDOCK:   -1.97 KCAL/MOL
REMARK 922        TOTAL FREE ENERGY PREDICTED BY IDOCK:   -1.62 KCAL/MOL
REMARK 923 INTER-LIGAND FREE ENERGY PREDICTED BY IDOCK:   -3.01 KCAL/MOL
REMARK 924 INTRA-LIGAND FREE ENERGY PREDICTED BY IDOCK:    1.39 KCAL/MOL
REMARK 927      BINDING AFFINITY PREDICTED BY RF-SCORE:    0.00 PKD
ROOT
HETATM    1 FE   UNL     1      -6.223  12.107  67.071  1.00  0.00    -0.084 Fe 
ATOM      2  N   GLY A   1     -12.800  13.514  71.200  1.00  0.00    -0.331 NA 
ATOM      3  CA  CYS B   1     -10.564   9.961  68.527  1.00  0.00    -0.217 C  
ATOM      4  CA  GLY A   1     -12.623  14.773  70.456  1.00  0.00    -0.359 C  
ATOM      5  H2  GLY A   1     -12.733  13.657  72.207  1.00  0.00     0.000 HD 
ATOM      6  H1  GLY A   1     -13.677  13.065  70.938  1.00  0.00     0.000 HD 
ATOM      7  OXT CYS C   1     -12.002  14.244  66.866  1.00  0.00    -0.416 OA 
ATOM      8  C   GLY A   1     -11.301  15.452  70.851  1.00  0.00    -0.359 C  
ATOM      9  C   CYS B   1      -9.308  10.322  69.393  1.00  0.00    -0.199 C  
ATOM     10  CA  CYS C   1      -9.781  13.780  67.598  1.00  0.00    -0.227 C  
ATOM     11  N   CYS B   1     -10.836   8.541  68.890  1.00  0.00    -0.428 NA 
ATOM     12  H2  CYS C   1      -9.442  13.286  69.642  1.00  0.00     0.000 HD 
ATOM     13  N   CYS C   1     -10.161  13.221  68.921  1.00  0.00    -0.430 NA 
ATOM     14  C   CYS C   1     -11.004  13.499  66.632  1.00  0.00    -0.288 C  
ATOM     15  H2  CYS B   1     -11.589   8.128  68.340  1.00  0.00     0.000 HD 
ATOM     16  H1  CYS B   1      -9.957   8.029  68.808  1.00  0.00     0.000 HD 
ATOM     17  O   CYS B   1      -8.364   9.309  69.292  1.00  0.00    -0.115 OA 
ATOM     18  O   CYS C   1     -10.896  12.470  65.897  1.00  0.00    -0.259 OA 
ATOM     19  OXT GLY A   1     -10.611  15.140  71.811  1.00  0.00     0.178 OA 
ATOM     20  O   GLY A   1     -10.916  16.426  69.988  1.00  0.00    -0.354 OA 
ATOM     21  OXT CYS B   1      -8.974  11.251  70.125  1.00  0.00     1.438 OA 
ATOM     22  H1  CYS C   1     -11.024  13.728  69.121  1.00  0.00     0.000 HD 
ENDROOT
BRANCH   3  23
ATOM     23  CB  CYS B   1     -11.893  10.735  68.651  1.00  0.00    -0.138 C  
ATOM     24  SG  CYS B   1     -12.786  10.467  70.246  1.00  0.00    -0.044 SA 
ATOM     25  HG  CYS B   1     -13.982  11.165  70.357  1.00  0.00     0.000 H  
ENDBRANCH   3  23
BRANCH  10  26
ATOM     26  CB  CYS C   1      -8.500  13.027  67.301  1.00  0.00    -0.199 C  
ATOM     27  SG  CYS C   1      -6.900  13.841  67.712  1.00  0.00    -0.179 SA 
ATOM     28  HG  CYS C   1      -5.725  13.151  67.440  1.00  0.00     0.000 H  
ENDBRANCH  10  26
TORSDOF 2
ENDMDL
MODEL      162
REMARK 921   NORMALIZED FREE ENERGY PREDICTED BY IDOCK:   -1.96 KCAL/MOL
REMARK 922        TOTAL FREE ENERGY PREDICTED BY IDOCK:   -1.62 KCAL/MOL
REMARK 923 INTER-LIGAND FREE ENERGY PREDICTED BY IDOCK:   -2.69 KCAL/MOL
REMARK 924 INTRA-LIGAND FREE ENERGY PREDICTED BY IDOCK:    1.07 KCAL/MOL
REMARK 927      BINDING AFFINITY PREDICTED BY RF-SCORE:    0.00 PKD
ROOT
HETATM    1 FE   UNL     1      -5.131   6.923  67.460  1.00  0.00    -0.005 Fe 
ATOM      2  N   GLY A   1     -11.203  11.173  70.170  1.00  0.00    -0.480 NA 
ATOM      3  CA  CYS B   1      -7.710   7.966  71.682  1.00  0.00    -0.092 C  
ATOM      4  CA  GLY A   1     -11.731  10.650  68.899  1.00  0.00    -0.211 C  
ATOM      5  H2  GLY A   1     -11.139  12.190  70.164  1.00  0.00     0.000 HD 
ATOM      6  H1  GLY A   1     -11.759  10.833  70.955  1.00  0.00     0.000 HD 
ATOM      7  OXT CYS C   1     -11.205   7.028  68.508  1.00  0.00    -0.056 OA 
ATOM      8  C   GLY A   1     -10.894  11.163  67.715  1.00  0.00    -0.239 C  
ATOM      9  C   CYS B   1      -6.737   8.890  70.872  1.00  0.00    -0.068 C  
ATOM     10  CA  CYS C   1      -8.998   7.690  67.896  1.00  0.00    -0.128 C  
ATOM     11  N   CYS B   1      -7.214   8.086  73.082  1.00  0.00    -0.110 NA 
ATOM     12  H2  CYS C   1      -8.304   9.627  68.450  1.00  0.00     0.000 HD 
ATOM     13  N   CYS C   1      -8.948   8.900  68.760  1.00  0.00    -0.134 NA 
ATOM     14  C   CYS C   1      -9.990   6.681  68.607  1.00  0.00    -0.147 C  
ATOM     15  H2  CYS B   1      -7.702   7.468  73.731  1.00  0.00     0.000 HD 
ATOM     16  H1  CYS B   1      -6.206   7.927  73.065  1.00  0.00     0.000 HD 
ATOM     17  O   CYS B   1      -5.426   8.630  71.247  1.00  0.00    -0.032 OA 
ATOM     18  O   CYS C   1      -9.443   5.786  69.321  1.00  0.00    -0.125 OA 
ATOM     19  OXT GLY A   1     -10.069  12.064  67.777  1.00  0.00    -0.187 OA 
ATOM     20  O   GLY A   1     -11.110  10.477  66.565  1.00  0.00    -0.068 OA 
ATOM     21  OXT CYS B   1      -6.853   9.770  70.021  1.00  0.00    -0.068 OA 
ATOM     22  H1  CYS C   1      -9.931   9.173  68.790  1.00  0.00     0.000 HD 
ENDROOT
BRANCH   3  23
ATOM     23  CB  CYS B   1      -9.234   8.206  71.707  1.00  0.00    -0.174 C  
ATOM     24  SG  CYS B   1     -10.188   6.943  72.660  1.00  0.00    -0.198 SA 
ATOM     25  HG  CYS B   1     -11.561   7.159  72.683  1.00  0.00     0.000 H  
ENDBRANCH   3  23
BRANCH  10  26
ATOM     26  CB  CYS C   1      -7.539   7.284  67.852  1.00  0.00    -0.111 C  
ATOM     27  SG  CYS C   1      -6.413   8.215  66.731  1.00  0.00    -0.057 SA 
ATOM     28  HG  CYS C   1      -5.075   7.842  66.689  1.00  0.00     0.000 H  
ENDBRANCH  10  26
TORSDOF 2
ENDMDL
MODEL      163
REMARK 921   NORMALIZED FREE ENERGY PREDICTED BY IDOCK:   -1.93 KCAL/MOL
REMARK 922        TOTAL FREE ENERGY PREDICTED BY IDOCK:   -1.58 KCAL/MOL
REMARK 923 INTER-LIGAND FREE ENERGY PREDICTED BY IDOCK:   -2.67 KCAL/MOL
REMARK 924 INTRA-LIGAND FREE ENERGY PREDICTED BY IDOCK:    1.09 KCAL/MOL
REMARK 927      BINDING AFFINITY PREDICTED BY RF-SCORE:    0.00 PKD
ROOT
HETATM    1 FE   UNL     1     -10.802  11.080  65.203  1.00  0.00    -0.266 Fe 
ATOM      2  N   GLY A   1      -5.127   7.283  69.161  1.00  0.00    -0.014 NA 
ATOM      3  CA  CYS B   1      -8.100   6.806  65.199  1.00  0.00    -0.132 C  
ATOM      4  CA  GLY A   1      -5.961   7.819  70.250  1.00  0.00    -0.029 C  
ATOM      5  H2  GLY A   1      -4.185   7.674  69.177  1.00  0.00     0.000 HD 
ATOM      6  H1  GLY A   1      -5.114   6.263  69.189  1.00  0.00     0.000 HD 
ATOM      7  OXT CYS C   1      -9.548   7.141  69.777  1.00  0.00    -0.156 OA 
ATOM      8  C   GLY A   1      -5.980   9.356  70.207  1.00  0.00    -0.040 C  
ATOM      9  C   CYS B   1      -7.631   8.264  64.869  1.00  0.00    -0.097 C  
ATOM     10  CA  CYS C   1      -9.424   8.995  68.284  1.00  0.00    -0.146 C  
ATOM     11  N   CYS B   1      -7.597   6.012  64.042  1.00  0.00    -0.080 NA 
ATOM     12  H2  CYS C   1      -7.523   9.596  67.530  1.00  0.00     0.000 HD 
ATOM     13  N   CYS C   1      -8.017   8.767  67.861  1.00  0.00    -0.106 NA 
ATOM     14  C   CYS C   1     -10.003   7.575  68.676  1.00  0.00    -0.172 C  
ATOM     15  H2  CYS B   1      -7.897   5.037  64.068  1.00  0.00     0.000 HD 
ATOM     16  H1  CYS B   1      -7.886   6.494  63.190  1.00  0.00     0.000 HD 
ATOM     17  O   CYS B   1      -7.927   8.563  63.547  1.00  0.00    -0.147 OA 
ATOM     18  O   CYS C   1     -10.680   6.991  67.775  1.00  0.00    -0.223 OA 
ATOM     19  OXT GLY A   1      -5.227  10.050  69.538  1.00  0.00    -0.038 OA 
ATOM     20  O   GLY A   1      -6.969   9.904  70.958  1.00  0.00    -0.333 OA 
ATOM     21  OXT CYS B   1      -7.071   9.173  65.478  1.00  0.00    -0.080 OA 
ATOM     22  H1  CYS C   1      -7.619   8.327  68.692  1.00  0.00     0.000 HD 
ENDROOT
BRANCH   3  23
ATOM     23  CB  CYS B   1      -7.664   6.077  66.487  1.00  0.00    -0.103 C  
ATOM     24  SG  CYS B   1      -8.305   4.351  66.640  1.00  0.00    -0.105 SA 
ATOM     25  HG  CYS B   1      -7.911   3.694  67.800  1.00  0.00     0.000 H  
ENDBRANCH   3  23
BRANCH  10  26
ATOM     26  CB  CYS C   1     -10.014   9.648  67.050  1.00  0.00    -0.206 C  
ATOM     27  SG  CYS C   1      -9.533  11.384  66.673  1.00  0.00    -0.194 SA 
ATOM     28  HG  CYS C   1     -10.074  11.983  65.542  1.00  0.00     0.000 H  
ENDBRANCH  10  26
TORSDOF 2
ENDMDL
MODEL      164
REMARK 921   NORMALIZED FREE ENERGY PREDICTED BY IDOCK:   -1.83 KCAL/MOL
REMARK 922        TOTAL FREE ENERGY PREDICTED BY IDOCK:   -1.47 KCAL/MOL
REMARK 923 INTER-LIGAND FREE ENERGY PREDICTED BY IDOCK:   -2.54 KCAL/MOL
REMARK 924 INTRA-LIGAND FREE ENERGY PREDICTED BY IDOCK:    1.07 KCAL/MOL
REMARK 927      BINDING AFFINITY PREDICTED BY RF-SCORE:    0.00 PKD
ROOT
HETATM    1 FE   UNL     1      -5.204   7.311  71.795  1.00  0.00    -0.029 Fe 
ATOM      2  N   GLY A   1     -11.321   9.789  67.467  1.00  0.00    -0.395 NA 
ATOM      3  CA  CYS B   1      -8.947   5.635  68.837  1.00  0.00    -0.111 C  
ATOM      4  CA  GLY A   1     -10.280  10.776  67.130  1.00  0.00    -0.213 C  
ATOM      5  H2  GLY A   1     -12.117  10.223  67.934  1.00  0.00     0.000 HD 
ATOM      6  H1  GLY A   1     -11.605   9.272  66.636  1.00  0.00     0.000 HD 
ATOM      7  OXT CYS C   1      -7.065   9.222  66.237  1.00  0.00    -0.085 OA 
ATOM      8  C   GLY A   1      -9.851  11.557  68.384  1.00  0.00    -0.204 C  
ATOM      9  C   CYS B   1      -9.033   6.250  70.276  1.00  0.00    -0.154 C  
ATOM     10  CA  CYS C   1      -6.816   9.021  68.599  1.00  0.00    -0.063 C  
ATOM     11  N   CYS B   1      -9.745   4.381  68.949  1.00  0.00    -0.163 NA 
ATOM     12  H2  CYS C   1      -8.543   9.154  69.840  1.00  0.00     0.000 HD 
ATOM     13  N   CYS C   1      -8.264   8.871  68.901  1.00  0.00    -0.116 NA 
ATOM     14  C   CYS C   1      -6.609   8.453  67.136  1.00  0.00    -0.058 C  
ATOM     15  H2  CYS B   1      -9.718   3.816  68.101  1.00  0.00     0.000 HD 
ATOM     16  H1  CYS B   1      -9.414   3.879  69.773  1.00  0.00     0.000 HD 
ATOM     17  O   CYS B   1      -8.785   5.264  71.221  1.00  0.00    -0.126 OA 
ATOM     18  O   CYS C   1      -6.197   7.255  67.066  1.00  0.00    -0.042 OA 
ATOM     19  OXT GLY A   1     -10.445  11.550  69.453  1.00  0.00    -0.108 OA 
ATOM     20  O   GLY A   1      -8.689  12.238  68.222  1.00  0.00    -0.182 OA 
ATOM     21  OXT CYS B   1      -9.272   7.357  70.753  1.00  0.00    -0.158 OA 
ATOM     22  H1  CYS C   1      -8.690   9.404  68.142  1.00  0.00     0.000 HD 
ENDROOT
BRANCH   3  23
ATOM     23  CB  CYS B   1      -9.448   6.395  67.591  1.00  0.00    -0.119 C  
ATOM     24  SG  CYS B   1      -9.324   5.440  66.015  1.00  0.00    -0.138 SA 
ATOM     25  HG  CYS B   1      -9.776   6.124  64.893  1.00  0.00     0.000 H  
ENDBRANCH   3  23
BRANCH  10  26
ATOM     26  CB  CYS C   1      -6.183   8.230  69.726  1.00  0.00    -0.032 C  
ATOM     27  SG  CYS C   1      -5.388   9.163  71.100  1.00  0.00    -0.045 SA 
ATOM     28  HG  CYS C   1      -4.807   8.437  72.134  1.00  0.00     0.000 H  
ENDBRANCH  10  26
TORSDOF 2
ENDMDL
MODEL      165
REMARK 921   NORMALIZED FREE ENERGY PREDICTED BY IDOCK:   -1.83 KCAL/MOL
REMARK 922        TOTAL FREE ENERGY PREDICTED BY IDOCK:   -1.47 KCAL/MOL
REMARK 923 INTER-LIGAND FREE ENERGY PREDICTED BY IDOCK:   -2.34 KCAL/MOL
REMARK 924 INTRA-LIGAND FREE ENERGY PREDICTED BY IDOCK:    0.87 KCAL/MOL
REMARK 927      BINDING AFFINITY PREDICTED BY RF-SCORE:    0.00 PKD
ROOT
HETATM    1 FE   UNL     1      -9.337  10.626  64.266  1.00  0.00    -0.170 Fe 
ATOM      2  N   GLY A   1      -8.396   5.664  70.331  1.00  0.00    -0.117 NA 
ATOM      3  CA  CYS B   1      -7.290  10.294  68.878  1.00  0.00    -0.090 C  
ATOM      4  CA  GLY A   1      -8.150   4.790  69.171  1.00  0.00    -0.074 C  
ATOM      5  H2  GLY A   1      -9.215   5.368  70.862  1.00  0.00     0.000 HD 
ATOM      6  H1  GLY A   1      -7.564   5.722  70.918  1.00  0.00     0.000 HD 
ATOM      7  OXT CYS C   1      -5.785   6.245  66.754  1.00  0.00    -0.015 OA 
ATOM      8  C   GLY A   1      -9.404   4.702  68.286  1.00  0.00    -0.136 C  
ATOM      9  C   CYS B   1      -8.804  10.361  68.478  1.00  0.00    -0.142 C  
ATOM     10  CA  CYS C   1      -7.693   7.486  66.047  1.00  0.00    -0.094 C  
ATOM     11  N   CYS B   1      -7.164  11.343  69.929  1.00  0.00    -0.367 NA 
ATOM     12  H2  CYS C   1      -9.364   7.659  67.358  1.00  0.00     0.000 HD 
ATOM     13  N   CYS C   1      -8.351   7.542  67.379  1.00  0.00    -0.112 NA 
ATOM     14  C   CYS C   1      -6.138   7.384  66.326  1.00  0.00    -0.037 C  
ATOM     15  H2  CYS B   1      -6.203  11.481  70.240  1.00  0.00     0.000 HD 
ATOM     16  H1  CYS B   1      -7.591  12.195  69.565  1.00  0.00     0.000 HD 
ATOM     17  O   CYS B   1      -9.180  11.683  68.291  1.00  0.00    -0.177 OA 
ATOM     18  O   CYS C   1      -5.498   8.478  66.266  1.00  0.00    -0.034 OA 
ATOM     19  OXT GLY A   1     -10.519   5.088  68.607  1.00  0.00    -0.092 OA 
ATOM     20  O   GLY A   1      -9.158   4.193  67.053  1.00  0.00    -0.124 OA 
ATOM     21  OXT CYS B   1      -9.711   9.549  68.307  1.00  0.00    -0.143 OA 
ATOM     22  H1  CYS C   1      -8.022   6.678  67.810  1.00  0.00     0.000 HD 
ENDROOT
BRANCH   3  23
ATOM     23  CB  CYS B   1      -6.645   9.005  69.428  1.00  0.00    -0.044 C  
ATOM     24  SG  CYS B   1      -7.255   8.500  71.097  1.00  0.00    -0.085 SA 
ATOM     25  HG  CYS B   1      -6.674   7.338  71.592  1.00  0.00     0.000 H  
ENDBRANCH   3  23
BRANCH  10  26
ATOM     26  CB  CYS C   1      -8.182   8.769  65.407  1.00  0.00    -0.136 C  
ATOM     27  SG  CYS C   1      -7.860   9.021  63.612  1.00  0.00    -0.145 SA 
ATOM     28  HG  CYS C   1      -8.309  10.198  63.025  1.00  0.00     0.000 H  
ENDBRANCH  10  26
TORSDOF 2
ENDMDL
MODEL      166
REMARK 921   NORMALIZED FREE ENERGY PREDICTED BY IDOCK:   -1.80 KCAL/MOL
REMARK 922        TOTAL FREE ENERGY PREDICTED BY IDOCK:   -1.43 KCAL/MOL
REMARK 923 INTER-LIGAND FREE ENERGY PREDICTED BY IDOCK:   -2.56 KCAL/MOL
REMARK 924 INTRA-LIGAND FREE ENERGY PREDICTED BY IDOCK:    1.13 KCAL/MOL
REMARK 927      BINDING AFFINITY PREDICTED BY RF-SCORE:    0.00 PKD
ROOT
HETATM    1 FE   UNL     1      -9.882   8.096  74.205  1.00  0.00    -0.357 Fe 
ATOM      2  N   GLY A   1      -8.611   4.888  67.107  1.00  0.00    -0.105 NA 
ATOM      3  CA  CYS B   1      -8.909   3.688  71.928  1.00  0.00    -0.096 C  
ATOM      4  CA  GLY A   1      -7.827   6.133  67.032  1.00  0.00    -0.101 C  
ATOM      5  H2  GLY A   1      -9.369   4.876  66.425  1.00  0.00     0.000 HD 
ATOM      6  H1  GLY A   1      -8.002   4.076  67.012  1.00  0.00     0.000 HD 
ATOM      7  OXT CYS C   1      -5.655   6.639  69.961  1.00  0.00    -0.017 OA 
ATOM      8  C   GLY A   1      -8.745   7.358  67.175  1.00  0.00    -0.121 C  
ATOM      9  C   CYS B   1     -10.224   4.540  71.896  1.00  0.00    -0.171 C  
ATOM     10  CA  CYS C   1      -7.674   7.383  70.988  1.00  0.00    -0.091 C  
ATOM     11  N   CYS B   1      -9.393   2.322  72.277  1.00  0.00    -0.086 NA 
ATOM     12  H2  CYS C   1      -9.542   6.834  70.124  1.00  0.00     0.000 HD 
ATOM     13  N   CYS C   1      -8.584   6.498  70.214  1.00  0.00    -0.135 NA 
ATOM     14  C   CYS C   1      -6.283   6.630  71.062  1.00  0.00    -0.040 C  
ATOM     15  H2  CYS B   1      -8.633   1.655  72.418  1.00  0.00     0.000 HD 
ATOM     16  H1  CYS B   1     -10.000   2.410  73.092  1.00  0.00     0.000 HD 
ATOM     17  O   CYS B   1     -10.990   4.261  73.019  1.00  0.00    -0.201 OA 
ATOM     18  O   CYS C   1      -6.070   5.974  72.128  1.00  0.00    -0.039 OA 
ATOM     19  OXT GLY A   1      -9.966   7.332  67.111  1.00  0.00    -0.178 OA 
ATOM     20  O   GLY A   1      -8.073   8.506  67.442  1.00  0.00    -0.104 OA 
ATOM     21  OXT CYS B   1     -10.729   5.361  71.133  1.00  0.00    -0.231 OA 
ATOM     22  H1  CYS C   1      -8.075   6.396  69.335  1.00  0.00     0.000 HD 
ENDROOT
BRANCH   3  23
ATOM     23  CB  CYS B   1      -7.990   3.555  70.696  1.00  0.00    -0.053 C  
ATOM     24  SG  CYS B   1      -6.480   2.529  70.979  1.00  0.00    -0.024 SA 
ATOM     25  HG  CYS B   1      -5.652   2.409  69.869  1.00  0.00     0.000 H  
ENDBRANCH   3  23
BRANCH  10  26
ATOM     26  CB  CYS C   1      -8.429   7.535  72.293  1.00  0.00    -0.114 C  
ATOM     27  SG  CYS C   1     -10.017   8.467  72.273  1.00  0.00    -0.293 SA 
ATOM     28  HG  CYS C   1     -10.710   8.607  73.469  1.00  0.00     0.000 H  
ENDBRANCH  10  26
TORSDOF 2
ENDMDL
MODEL      167
REMARK 921   NORMALIZED FREE ENERGY PREDICTED BY IDOCK:   -1.61 KCAL/MOL
REMARK 922        TOTAL FREE ENERGY PREDICTED BY IDOCK:   -1.22 KCAL/MOL
REMARK 923 INTER-LIGAND FREE ENERGY PREDICTED BY IDOCK:   -1.88 KCAL/MOL
REMARK 924 INTRA-LIGAND FREE ENERGY PREDICTED BY IDOCK:    0.66 KCAL/MOL
REMARK 927      BINDING AFFINITY PREDICTED BY RF-SCORE:    0.00 PKD
ROOT
HETATM    1 FE   UNL     1      -7.051   9.783  71.099  1.00  0.00    -0.098 Fe 
ATOM      2  N   GLY A   1      -6.819   2.189  68.961  1.00  0.00    -0.033 NA 
ATOM      3  CA  CYS B   1      -7.519   6.745  67.084  1.00  0.00    -0.091 C  
ATOM      4  CA  GLY A   1      -7.574   2.135  70.225  1.00  0.00    -0.042 C  
ATOM      5  H2  GLY A   1      -5.937   1.682  69.025  1.00  0.00     0.000 HD 
ATOM      6  H1  GLY A   1      -7.393   1.856  68.187  1.00  0.00     0.000 HD 
ATOM      7  OXT CYS C   1     -10.306   4.599  70.370  1.00  0.00    -0.195 OA 
ATOM      8  C   GLY A   1      -6.710   2.638  71.393  1.00  0.00    -0.030 C  
ATOM      9  C   CYS B   1      -6.229   7.106  67.897  1.00  0.00    -0.042 C  
ATOM     10  CA  CYS C   1      -8.545   6.114  70.907  1.00  0.00    -0.132 C  
ATOM     11  N   CYS B   1      -7.114   6.986  65.670  1.00  0.00    -0.067 NA 
ATOM     12  H2  CYS C   1      -6.537   5.580  70.436  1.00  0.00     0.000 HD 
ATOM     13  N   CYS C   1      -7.492   5.423  70.116  1.00  0.00    -0.067 NA 
ATOM     14  C   CYS C   1      -9.919   5.792  70.188  1.00  0.00    -0.198 C  
ATOM     15  H2  CYS B   1      -7.885   6.871  65.011  1.00  0.00     0.000 HD 
ATOM     16  H1  CYS B   1      -6.688   7.912  65.625  1.00  0.00     0.000 HD 
ATOM     17  O   CYS B   1      -5.711   8.310  67.441  1.00  0.00    -0.037 OA 
ATOM     18  O   CYS C   1     -10.345   6.686  69.394  1.00  0.00    -0.181 OA 
ATOM     19  OXT GLY A   1      -5.502   2.822  71.343  1.00  0.00    -0.007 OA 
ATOM     20  O   GLY A   1      -7.425   2.923  72.509  1.00  0.00    -0.046 OA 
ATOM     21  OXT CYS B   1      -5.580   6.589  68.804  1.00  0.00    -0.015 OA 
ATOM     22  H1  CYS C   1      -7.809   4.453  70.153  1.00  0.00     0.000 HD 
ENDROOT
BRANCH   3  23
ATOM     23  CB  CYS B   1      -8.164   5.345  67.151  1.00  0.00    -0.104 C  
ATOM     24  SG  CYS B   1      -9.521   5.071  65.928  1.00  0.00    -0.159 SA 
ATOM     25  HG  CYS B   1     -10.101   3.810  65.988  1.00  0.00     0.000 H  
ENDBRANCH   3  23
BRANCH  10  26
ATOM     26  CB  CYS C   1      -8.076   7.553  70.853  1.00  0.00    -0.104 C  
ATOM     27  SG  CYS C   1      -9.268   8.873  71.331  1.00  0.00    -0.232 SA 
ATOM     28  HG  CYS C   1      -8.838  10.193  71.282  1.00  0.00     0.000 H  
ENDBRANCH  10  26
TORSDOF 2
ENDMDL
MODEL      168
REMARK 921   NORMALIZED FREE ENERGY PREDICTED BY IDOCK:   -1.43 KCAL/MOL
REMARK 922        TOTAL FREE ENERGY PREDICTED BY IDOCK:   -1.02 KCAL/MOL
REMARK 923 INTER-LIGAND FREE ENERGY PREDICTED BY IDOCK:   -2.36 KCAL/MOL
REMARK 924 INTRA-LIGAND FREE ENERGY PREDICTED BY IDOCK:    1.34 KCAL/MOL
REMARK 927      BINDING AFFINITY PREDICTED BY RF-SCORE:    0.00 PKD
ROOT
HETATM    1 FE   UNL     1     -11.242   4.753  66.686  1.00  0.00    -0.334 Fe 
ATOM      2  N   GLY A   1     -10.803  11.808  70.195  1.00  0.00    -0.046 NA 
ATOM      3  CA  CYS B   1      -7.942   8.306  68.118  1.00  0.00    -0.123 C  
ATOM      4  CA  GLY A   1     -11.788  11.103  71.034  1.00  0.00    -0.023 C  
ATOM      5  H2  GLY A   1     -11.212  12.619  69.733  1.00  0.00     0.000 HD 
ATOM      6  H1  GLY A   1      -9.981  12.059  70.744  1.00  0.00     0.000 HD 
ATOM      7  OXT CYS C   1     -10.668   7.745  72.045  1.00  0.00    -0.213 OA 
ATOM      8  C   GLY A   1     -13.028  10.725  70.208  1.00  0.00    -0.071 C  
ATOM      9  C   CYS B   1      -8.997   8.355  66.960  1.00  0.00    -0.142 C  
ATOM     10  CA  CYS C   1     -11.368   7.147  69.846  1.00  0.00    -0.163 C  
ATOM     11  N   CYS B   1      -6.680   8.740  67.454  1.00  0.00    -0.065 NA 
ATOM     12  H2  CYS C   1     -11.596   8.674  68.378  1.00  0.00     0.000 HD 
ATOM     13  N   CYS C   1     -11.058   8.458  69.217  1.00  0.00    -0.428 NA 
ATOM     14  C   CYS C   1     -10.370   6.997  71.067  1.00  0.00    -0.200 C  
ATOM     15  H2  CYS B   1      -5.868   8.682  68.068  1.00  0.00     0.000 HD 
ATOM     16  H1  CYS B   1      -6.575   8.188  66.603  1.00  0.00     0.000 HD 
ATOM     17  O   CYS B   1      -8.476   7.745  65.828  1.00  0.00    -0.133 OA 
ATOM     18  O   CYS C   1      -9.328   6.308  70.842  1.00  0.00    -0.160 OA 
ATOM     19  OXT GLY A   1     -13.285  11.153  69.092  1.00  0.00     0.645 OA 
ATOM     20  O   GLY A   1     -13.819   9.804  70.814  1.00  0.00    -0.114 OA 
ATOM     21  OXT CYS B   1     -10.133   8.801  66.816  1.00  0.00    -0.243 OA 
ATOM     22  H1  CYS C   1     -11.195   9.100  69.998  1.00  0.00     0.000 HD 
ENDROOT
BRANCH   3  23
ATOM     23  CB  CYS B   1      -8.100   9.141  69.406  1.00  0.00    -0.102 C  
ATOM     24  SG  CYS B   1      -7.402  10.847  69.299  1.00  0.00    -0.110 SA 
ATOM     25  HG  CYS B   1      -7.545  11.599  70.459  1.00  0.00     0.000 H  
ENDBRANCH   3  23
BRANCH  10  26
ATOM     26  CB  CYS C   1     -11.164   6.193  68.687  1.00  0.00    -0.185 C  
ATOM     27  SG  CYS C   1      -9.839   4.922  68.831  1.00  0.00    -0.151 SA 
ATOM     28  HG  CYS C   1      -9.652   4.048  67.768  1.00  0.00     0.000 H  
ENDBRANCH  10  26
TORSDOF 2
ENDMDL
MODEL      169
REMARK 921   NORMALIZED FREE ENERGY PREDICTED BY IDOCK:   -1.35 KCAL/MOL
REMARK 922        TOTAL FREE ENERGY PREDICTED BY IDOCK:   -0.93 KCAL/MOL
REMARK 923 INTER-LIGAND FREE ENERGY PREDICTED BY IDOCK:   -2.51 KCAL/MOL
REMARK 924 INTRA-LIGAND FREE ENERGY PREDICTED BY IDOCK:    1.58 KCAL/MOL
REMARK 927      BINDING AFFINITY PREDICTED BY RF-SCORE:    0.00 PKD
ROOT
HETATM    1 FE   UNL     1      -8.719   5.668  67.171  1.00  0.00    -0.110 Fe 
ATOM      2  N   GLY A   1     -12.584   9.494  72.890  1.00  0.00     0.084 NA 
ATOM      3  CA  CYS B   1      -7.975   8.477  71.309  1.00  0.00    -0.132 C  
ATOM      4  CA  GLY A   1     -13.352   8.243  72.777  1.00  0.00     0.172 C  
ATOM      5  H2  GLY A   1     -13.148  10.309  72.649  1.00  0.00     0.000 HD 
ATOM      6  H1  GLY A   1     -12.173   9.580  73.819  1.00  0.00     0.000 HD 
ATOM      7  OXT CYS C   1     -11.219   5.243  72.790  1.00  0.00    -0.270 OA 
ATOM      8  C   GLY A   1     -13.972   8.115  71.375  1.00  0.00    -0.279 C  
ATOM      9  C   CYS B   1      -8.529   8.917  69.910  1.00  0.00    -0.135 C  
ATOM     10  CA  CYS C   1     -10.865   5.818  70.504  1.00  0.00    -0.278 C  
ATOM     11  N   CYS B   1      -6.907   9.477  71.587  1.00  0.00    -0.304 NA 
ATOM     12  H2  CYS C   1     -11.290   7.802  69.854  1.00  0.00     0.000 HD 
ATOM     13  N   CYS C   1     -10.999   7.288  70.685  1.00  0.00    -0.250 NA 
ATOM     14  C   CYS C   1     -10.334   5.250  71.883  1.00  0.00    -0.215 C  
ATOM     15  H2  CYS B   1      -6.386   9.276  72.441  1.00  0.00     0.000 HD 
ATOM     16  H1  CYS B   1      -6.310   9.528  70.761  1.00  0.00     0.000 HD 
ATOM     17  O   CYS B   1      -7.472   9.170  69.048  1.00  0.00    -0.072 OA 
ATOM     18  O   CYS C   1      -9.081   5.057  71.951  1.00  0.00    -0.134 OA 
ATOM     19  OXT GLY A   1     -14.037   9.016  70.552  1.00  0.00     0.372 OA 
ATOM     20  O   GLY A   1     -14.409   6.862  71.092  1.00  0.00    -0.135 OA 
ATOM     21  OXT CYS B   1      -9.639   9.097  69.414  1.00  0.00    -0.159 OA 
ATOM     22  H1  CYS C   1     -11.641   7.341  71.476  1.00  0.00     0.000 HD 
ENDROOT
BRANCH   3  23
ATOM     23  CB  CYS B   1      -8.877   8.400  72.559  1.00  0.00    -0.225 C  
ATOM     24  SG  CYS B   1      -8.264   7.256  73.873  1.00  0.00    -0.153 SA 
ATOM     25  HG  CYS B   1      -9.076   7.188  74.999  1.00  0.00     0.000 H  
ENDBRANCH   3  23
BRANCH  10  26
ATOM     26  CB  CYS C   1      -9.911   5.739  69.329  1.00  0.00    -0.182 C  
ATOM     27  SG  CYS C   1     -10.626   5.547  67.643  1.00  0.00    -0.109 SA 
ATOM     28  HG  CYS C   1      -9.752   5.474  66.565  1.00  0.00     0.000 H  
ENDBRANCH  10  26
TORSDOF 2
ENDMDL
MODEL      170
REMARK 921   NORMALIZED FREE ENERGY PREDICTED BY IDOCK:   -1.34 KCAL/MOL
REMARK 922        TOTAL FREE ENERGY PREDICTED BY IDOCK:   -0.92 KCAL/MOL
REMARK 923 INTER-LIGAND FREE ENERGY PREDICTED BY IDOCK:   -2.05 KCAL/MOL
REMARK 924 INTRA-LIGAND FREE ENERGY PREDICTED BY IDOCK:    1.13 KCAL/MOL
REMARK 927      BINDING AFFINITY PREDICTED BY RF-SCORE:    0.00 PKD
ROOT
HETATM    1 FE   UNL     1     -10.763   9.487  66.519  1.00  0.00    -0.230 Fe 
ATOM      2  N   GLY A   1      -5.233   3.928  67.414  1.00  0.00    -0.011 NA 
ATOM      3  CA  CYS B   1      -8.194   5.958  63.967  1.00  0.00    -0.066 C  
ATOM      4  CA  GLY A   1      -6.057   3.745  68.621  1.00  0.00    -0.031 C  
ATOM      5  H2  GLY A   1      -4.280   4.208  67.645  1.00  0.00     0.000 HD 
ATOM      6  H1  GLY A   1      -5.252   3.087  66.838  1.00  0.00     0.000 HD 
ATOM      7  OXT CYS C   1      -9.661   3.577  67.885  1.00  0.00    -0.190 OA 
ATOM      8  C   GLY A   1      -6.029   5.013  69.491  1.00  0.00    -0.021 C  
ATOM      9  C   CYS B   1      -7.678   7.317  64.553  1.00  0.00    -0.113 C  
ATOM     10  CA  CYS C   1      -9.470   5.951  67.767  1.00  0.00    -0.113 C  
ATOM     11  N   CYS B   1      -7.708   5.982  62.559  1.00  0.00    -0.074 NA 
ATOM     12  H2  CYS C   1      -7.547   6.825  67.487  1.00  0.00     0.000 HD 
ATOM     13  N   CYS C   1      -8.068   5.975  67.273  1.00  0.00    -0.106 NA 
ATOM     14  C   CYS C   1     -10.095   4.588  67.257  1.00  0.00    -0.087 C  
ATOM     15  H2  CYS B   1      -8.038   5.188  62.011  1.00  0.00     0.000 HD 
ATOM     16  H1  CYS B   1      -7.976   6.881  62.157  1.00  0.00     0.000 HD 
ATOM     17  O   CYS B   1      -7.956   8.345  63.663  1.00  0.00    -0.149 OA 
ATOM     18  O   CYS C   1     -10.783   4.666  66.193  1.00  0.00    -0.269 OA 
ATOM     19  OXT GLY A   1      -5.251   5.946  69.348  1.00  0.00    -0.004 OA 
ATOM     20  O   GLY A   1      -7.006   5.042  70.432  1.00  0.00    -0.046 OA 
ATOM     21  OXT CYS B   1      -7.094   7.677  65.573  1.00  0.00    -0.061 OA 
ATOM     22  H1  CYS C   1      -7.689   5.119  67.682  1.00  0.00     0.000 HD 
ENDROOT
BRANCH   3  23
ATOM     23  CB  CYS B   1      -7.789   4.599  64.575  1.00  0.00    -0.087 C  
ATOM     24  SG  CYS B   1      -6.727   3.559  63.478  1.00  0.00    -0.036 SA 
ATOM     25  HG  CYS B   1      -6.362   2.335  64.026  1.00  0.00     0.000 H  
ENDBRANCH   3  23
BRANCH  10  26
ATOM     26  CB  CYS C   1     -10.031   7.221  67.160  1.00  0.00    -0.215 C  
ATOM     27  SG  CYS C   1      -9.521   8.831  67.892  1.00  0.00    -0.145 SA 
ATOM     28  HG  CYS C   1     -10.036   9.996  67.336  1.00  0.00     0.000 H  
ENDBRANCH  10  26
TORSDOF 2
ENDMDL
MODEL      171
REMARK 921   NORMALIZED FREE ENERGY PREDICTED BY IDOCK:   -0.90 KCAL/MOL
REMARK 922        TOTAL FREE ENERGY PREDICTED BY IDOCK:   -0.43 KCAL/MOL
REMARK 923 INTER-LIGAND FREE ENERGY PREDICTED BY IDOCK:   -1.85 KCAL/MOL
REMARK 924 INTRA-LIGAND FREE ENERGY PREDICTED BY IDOCK:    1.42 KCAL/MOL
REMARK 927      BINDING AFFINITY PREDICTED BY RF-SCORE:    0.00 PKD
ROOT
HETATM    1 FE   UNL     1     -12.341  12.069  68.461  1.00  0.00    -0.296 Fe 
ATOM      2  N   GLY A   1      -7.320   8.310  63.670  1.00  0.00    -0.102 NA 
ATOM      3  CA  CYS B   1      -8.867   8.396  68.400  1.00  0.00    -0.140 C  
ATOM      4  CA  GLY A   1      -7.154   9.714  63.257  1.00  0.00    -0.109 C  
ATOM      5  H2  GLY A   1      -7.691   7.735  62.915  1.00  0.00     0.000 HD 
ATOM      6  H1  GLY A   1      -6.443   7.938  64.035  1.00  0.00     0.000 HD 
ATOM      7  OXT CYS C   1      -6.646  11.995  66.102  1.00  0.00     0.336 OA 
ATOM      8  C   GLY A   1      -8.475  10.276  62.708  1.00  0.00    -0.180 C  
ATOM      9  C   CYS B   1     -10.300   8.402  67.765  1.00  0.00    -0.235 C  
ATOM     10  CA  CYS C   1      -9.014  11.817  66.317  1.00  0.00    -0.176 C  
ATOM     11  N   CYS B   1      -8.835   7.118  69.167  1.00  0.00    -0.136 NA 
ATOM     12  H2  CYS C   1     -10.019  10.181  65.393  1.00  0.00     0.000 HD 
ATOM     13  N   CYS C   1      -9.117  10.426  65.800  1.00  0.00    -0.161 NA 
ATOM     14  C   CYS C   1      -7.574  11.941  66.964  1.00  0.00    -0.134 C  
ATOM     15  H2  CYS B   1      -7.981   7.003  69.713  1.00  0.00     0.000 HD 
ATOM     16  H1  CYS B   1      -9.680   7.081  69.738  1.00  0.00     0.000 HD 
ATOM     17  O   CYS B   1     -11.239   8.062  68.728  1.00  0.00     0.230 OA 
ATOM     18  O   CYS C   1      -7.523  11.786  68.222  1.00  0.00    -0.089 OA 
ATOM     19  OXT GLY A   1      -9.456   9.605  62.417  1.00  0.00    -0.216 OA 
ATOM     20  O   GLY A   1      -8.489  11.629  62.617  1.00  0.00    -0.125 OA 
ATOM     21  OXT CYS B   1     -10.774   8.618  66.652  1.00  0.00    -0.180 OA 
ATOM     22  H1  CYS C   1      -8.325  10.384  65.159  1.00  0.00     0.000 HD 
ENDROOT
BRANCH   3  23
ATOM     23  CB  CYS B   1      -7.589   8.452  67.537  1.00  0.00    -0.098 C  
ATOM     24  SG  CYS B   1      -6.016   8.475  68.505  1.00  0.00    -0.046 SA 
ATOM     25  HG  CYS B   1      -4.865   8.525  67.728  1.00  0.00     0.000 H  
ENDBRANCH   3  23
BRANCH  10  26
ATOM     26  CB  CYS C   1     -10.190  11.880  67.270  1.00  0.00    -0.200 C  
ATOM     27  SG  CYS C   1      -9.847  11.802  69.077  1.00  0.00     0.209 SA 
ATOM     28  HG  CYS C   1     -10.926  11.860  69.951  1.00  0.00     0.000 H  
ENDBRANCH  10  26
TORSDOF 2
ENDMDL
MODEL      172
REMARK 921   NORMALIZED FREE ENERGY PREDICTED BY IDOCK:   -0.82 KCAL/MOL
REMARK 922        TOTAL FREE ENERGY PREDICTED BY IDOCK:   -0.33 KCAL/MOL
REMARK 923 INTER-LIGAND FREE ENERGY PREDICTED BY IDOCK:   -0.87 KCAL/MOL
REMARK 924 INTRA-LIGAND FREE ENERGY PREDICTED BY IDOCK:    0.54 KCAL/MOL
REMARK 927      BINDING AFFINITY PREDICTED BY RF-SCORE:    0.00 PKD
ROOT
HETATM    1 FE   UNL     1      -5.705   4.217  63.044  1.00  0.00    -0.010 Fe 
ATOM      2  N   GLY A   1      -8.302   8.386  69.222  1.00  0.00    -0.120 NA 
ATOM      3  CA  CYS B   1      -9.863   5.170  65.759  1.00  0.00    -0.084 C  
ATOM      4  CA  GLY A   1      -7.434   9.356  68.533  1.00  0.00    -0.080 C  
ATOM      5  H2  GLY A   1      -7.955   8.162  70.154  1.00  0.00     0.000 HD 
ATOM      6  H1  GLY A   1      -9.265   8.722  69.247  1.00  0.00     0.000 HD 
ATOM      7  OXT CYS C   1      -8.111   9.574  64.920  1.00  0.00    -0.119 OA 
ATOM      8  C   GLY A   1      -5.983   8.851  68.495  1.00  0.00    -0.045 C  
ATOM      9  C   CYS B   1      -8.589   4.355  66.169  1.00  0.00    -0.113 C  
ATOM     10  CA  CYS C   1      -6.801   7.584  64.832  1.00  0.00    -0.047 C  
ATOM     11  N   CYS B   1     -10.986   4.256  66.113  1.00  0.00    -0.149 NA 
ATOM     12  H2  CYS C   1      -6.517   6.448  66.612  1.00  0.00     0.000 HD 
ATOM     13  N   CYS C   1      -7.191   7.075  66.174  1.00  0.00    -0.073 NA 
ATOM     14  C   CYS C   1      -8.016   8.461  64.322  1.00  0.00    -0.149 C  
ATOM     15  H2  CYS B   1     -11.896   4.616  65.827  1.00  0.00     0.000 HD 
ATOM     16  H1  CYS B   1     -10.776   3.342  65.711  1.00  0.00     0.000 HD 
ATOM     17  O   CYS B   1      -8.696   3.054  65.699  1.00  0.00    -0.117 OA 
ATOM     18  O   CYS C   1      -8.824   7.875  63.538  1.00  0.00     0.410 OA 
ATOM     19  OXT GLY A   1      -5.549   7.912  69.147  1.00  0.00    -0.031 OA 
ATOM     20  O   GLY A   1      -5.203   9.518  67.608  1.00  0.00    -0.036 OA 
ATOM     21  OXT CYS B   1      -7.556   4.582  66.796  1.00  0.00    -0.084 OA 
ATOM     22  H1  CYS C   1      -7.370   7.943  66.680  1.00  0.00     0.000 HD 
ENDROOT
BRANCH   3  23
ATOM     23  CB  CYS B   1     -10.181   6.552  66.366  1.00  0.00     0.031 C  
ATOM     24  SG  CYS B   1     -11.203   6.493  67.904  1.00  0.00     0.006 SA 
ATOM     25  HG  CYS B   1     -11.488   7.738  68.451  1.00  0.00     0.000 H  
ENDBRANCH   3  23
BRANCH  10  26
ATOM     26  CB  CYS C   1      -6.535   6.296  64.080  1.00  0.00    -0.030 C  
ATOM     27  SG  CYS C   1      -5.924   6.414  62.347  1.00  0.00    -0.031 SA 
ATOM     28  HG  CYS C   1      -5.680   5.233  61.656  1.00  0.00     0.000 H  
ENDBRANCH  10  26
TORSDOF 2
ENDMDL
MODEL      173
REMARK 921   NORMALIZED FREE ENERGY PREDICTED BY IDOCK:   -0.62 KCAL/MOL
REMARK 922        TOTAL FREE ENERGY PREDICTED BY IDOCK:   -0.12 KCAL/MOL
REMARK 923 INTER-LIGAND FREE ENERGY PREDICTED BY IDOCK:   -1.63 KCAL/MOL
REMARK 924 INTRA-LIGAND FREE ENERGY PREDICTED BY IDOCK:    1.51 KCAL/MOL
REMARK 927      BINDING AFFINITY PREDICTED BY RF-SCORE:    0.00 PKD
ROOT
HETATM    1 FE   UNL     1      -6.179  13.561  66.773  1.00  0.00    -0.154 Fe 
ATOM      2  N   GLY A   1     -10.236  20.160  68.283  1.00  0.00    -0.391 NA 
ATOM      3  CA  CYS B   1     -10.001  15.354  69.555  1.00  0.00    -0.264 C  
ATOM      4  CA  GLY A   1     -10.085  20.215  66.819  1.00  0.00    -0.457 C  
ATOM      5  H2  GLY A   1      -9.764  20.939  68.741  1.00  0.00     0.000 HD 
ATOM      6  H1  GLY A   1     -11.222  20.110  68.539  1.00  0.00     0.000 HD 
ATOM      7  OXT CYS C   1     -10.996  17.055  65.164  1.00  0.00    -0.528 OA 
ATOM      8  C   GLY A   1      -8.599  20.290  66.431  1.00  0.00    -0.153 C  
ATOM      9  C   CYS B   1      -8.465  15.632  69.702  1.00  0.00    -0.076 C  
ATOM     10  CA  CYS C   1      -8.821  16.377  65.864  1.00  0.00    -0.135 C  
ATOM     11  N   CYS B   1     -10.416  14.978  70.936  1.00  0.00    -0.434 NA 
ATOM     12  H2  CYS C   1      -7.851  17.452  67.427  1.00  0.00     0.000 HD 
ATOM     13  N   CYS C   1      -8.784  17.205  67.098  1.00  0.00    -0.207 NA 
ATOM     14  C   CYS C   1     -10.347  16.055  65.594  1.00  0.00    -0.392 C  
ATOM     15  H2  CYS B   1     -11.391  14.684  70.992  1.00  0.00     0.000 HD 
ATOM     16  H1  CYS B   1      -9.767  14.265  71.269  1.00  0.00     0.000 HD 
ATOM     17  O   CYS B   1      -7.873  14.610  70.430  1.00  0.00     0.551 OA 
ATOM     18  O   CYS C   1     -10.751  14.925  66.008  1.00  0.00    -0.303 OA 
ATOM     19  OXT GLY A   1      -7.682  20.523  67.207  1.00  0.00    -0.316 OA 
ATOM     20  O   GLY A   1      -8.368  20.016  65.123  1.00  0.00     0.050 OA 
ATOM     21  OXT CYS B   1      -7.687  16.515  69.348  1.00  0.00    -0.209 OA 
ATOM     22  H1  CYS C   1      -9.376  17.994  66.836  1.00  0.00     0.000 HD 
ENDROOT
BRANCH   3  23
ATOM     23  CB  CYS B   1     -10.983  16.432  69.052  1.00  0.00    -0.325 C  
ATOM     24  SG  CYS B   1     -12.761  16.059  69.386  1.00  0.00     1.282 SA 
ATOM     25  HG  CYS B   1     -13.645  17.031  68.933  1.00  0.00     0.000 H  
ENDBRANCH   3  23
BRANCH  10  26
ATOM     26  CB  CYS C   1      -7.942  15.205  66.253  1.00  0.00     0.830 C  
ATOM     27  SG  CYS C   1      -8.762  13.627  66.729  1.00  0.00    -0.003 SA 
ATOM     28  HG  CYS C   1      -7.956  12.552  67.086  1.00  0.00     0.000 H  
ENDBRANCH  10  26
TORSDOF 2
ENDMDL
MODEL      174
REMARK 921   NORMALIZED FREE ENERGY PREDICTED BY IDOCK:   -0.40 KCAL/MOL
REMARK 922        TOTAL FREE ENERGY PREDICTED BY IDOCK:    0.14 KCAL/MOL
REMARK 923 INTER-LIGAND FREE ENERGY PREDICTED BY IDOCK:   -1.33 KCAL/MOL
REMARK 924 INTRA-LIGAND FREE ENERGY PREDICTED BY IDOCK:    1.47 KCAL/MOL
REMARK 927      BINDING AFFINITY PREDICTED BY RF-SCORE:    0.00 PKD
ROOT
HETATM    1 FE   UNL     1     -10.528  15.631  64.055  1.00  0.00    -0.568 Fe 
ATOM      2  N   GLY A   1     -10.701  15.009  71.920  1.00  0.00    -0.106 NA 
ATOM      3  CA  CYS B   1      -7.543  14.924  68.074  1.00  0.00    -0.122 C  
ATOM      4  CA  GLY A   1     -11.873  14.214  71.519  1.00  0.00     0.100 C  
ATOM      5  H2  GLY A   1     -10.966  15.821  72.477  1.00  0.00     0.000 HD 
ATOM      6  H1  GLY A   1     -10.020  14.423  72.405  1.00  0.00     0.000 HD 
ATOM      7  OXT CYS C   1     -11.120  11.797  68.846  1.00  0.00    -0.215 OA 
ATOM      8  C   GLY A   1     -12.900  15.096  70.789  1.00  0.00    -0.416 C  
ATOM      9  C   CYS B   1      -8.299  16.223  67.629  1.00  0.00    -0.161 C  
ATOM     10  CA  CYS C   1     -11.309  13.710  67.436  1.00  0.00    -0.315 C  
ATOM     11  N   CYS B   1      -6.150  15.399  68.307  1.00  0.00    -0.108 NA 
ATOM     12  H2  CYS C   1     -11.145  15.653  68.296  1.00  0.00     0.000 HD 
ATOM     13  N   CYS C   1     -10.823  14.696  68.438  1.00  0.00    -0.239 NA 
ATOM     14  C   CYS C   1     -10.627  12.330  67.808  1.00  0.00    -0.219 C  
ATOM     15  H2  CYS B   1      -5.503  14.641  68.528  1.00  0.00     0.000 HD 
ATOM     16  H1  CYS B   1      -5.867  15.935  67.486  1.00  0.00     0.000 HD 
ATOM     17  O   CYS B   1      -7.549  16.896  66.676  1.00  0.00    -0.208 OA 
ATOM     18  O   CYS C   1      -9.582  12.041  67.148  1.00  0.00    -0.187 OA 
ATOM     19  OXT GLY A   1     -12.878  16.318  70.757  1.00  0.00     0.023 OA 
ATOM     20  O   GLY A   1     -13.836  14.385  70.112  1.00  0.00     0.784 OA 
ATOM     21  OXT CYS B   1      -9.358  16.775  67.922  1.00  0.00    -0.224 OA 
ATOM     22  H1  CYS C   1     -11.118  14.264  69.314  1.00  0.00     0.000 HD 
ENDROOT
BRANCH   3  23
ATOM     23  CB  CYS B   1      -7.970  14.113  69.316  1.00  0.00     0.187 C  
ATOM     24  SG  CYS B   1      -6.593  13.198  70.140  1.00  0.00     0.431 SA 
ATOM     25  HG  CYS B   1      -6.978  12.468  71.258  1.00  0.00     0.000 H  
ENDBRANCH   3  23
BRANCH  10  26
ATOM     26  CB  CYS C   1     -10.871  14.351  66.135  1.00  0.00    -0.309 C  
ATOM     27  SG  CYS C   1     -11.427  16.072  65.786  1.00  0.00     0.540 SA 
ATOM     28  HG  CYS C   1     -11.026  16.660  64.593  1.00  0.00     0.000 H  
ENDBRANCH  10  26
TORSDOF 2
ENDMDL
MODEL      175
REMARK 921   NORMALIZED FREE ENERGY PREDICTED BY IDOCK:    0.83 KCAL/MOL
REMARK 922        TOTAL FREE ENERGY PREDICTED BY IDOCK:    1.50 KCAL/MOL
REMARK 923 INTER-LIGAND FREE ENERGY PREDICTED BY IDOCK:   -0.63 KCAL/MOL
REMARK 924 INTRA-LIGAND FREE ENERGY PREDICTED BY IDOCK:    2.13 KCAL/MOL
REMARK 927      BINDING AFFINITY PREDICTED BY RF-SCORE:    0.00 PKD
ROOT
HETATM    1 FE   UNL     1     -12.221  10.565  65.090  1.00  0.00     0.819 Fe 
ATOM      2  N   GLY A   1      -5.135  13.397  67.105  1.00  0.00    -0.200 NA 
ATOM      3  CA  CYS B   1      -7.307   9.376  65.134  1.00  0.00    -0.104 C  
ATOM      4  CA  GLY A   1      -5.972  13.810  68.245  1.00  0.00    -0.108 C  
ATOM      5  H2  GLY A   1      -4.759  14.199  66.601  1.00  0.00     0.000 HD 
ATOM      6  H1  GLY A   1      -4.398  12.764  67.414  1.00  0.00     0.000 HD 
ATOM      7  OXT CYS C   1      -8.029  11.066  69.583  1.00  0.00     0.037 OA 
ATOM      8  C   GLY A   1      -7.084  14.765  67.780  1.00  0.00    -0.174 C  
ATOM      9  C   CYS B   1      -8.057  10.417  64.235  1.00  0.00    -0.102 C  
ATOM     10  CA  CYS C   1      -9.432  11.576  67.724  1.00  0.00    -0.168 C  
ATOM     11  N   CYS B   1      -6.525   8.572  64.152  1.00  0.00    -0.071 NA 
ATOM     12  H2  CYS C   1      -8.628  12.677  66.087  1.00  0.00     0.000 HD 
ATOM     13  N   CYS C   1      -8.342  12.027  66.819  1.00  0.00    -0.288 NA 
ATOM     14  C   CYS C   1      -8.778  10.527  68.714  1.00  0.00    -0.154 C  
ATOM     15  H2  CYS B   1      -6.036   7.786  64.581  1.00  0.00     0.000 HD 
ATOM     16  H1  CYS B   1      -7.164   8.285  63.411  1.00  0.00     0.000 HD 
ATOM     17  O   CYS B   1      -8.625   9.771  63.146  1.00  0.00    -0.164 OA 
ATOM     18  O   CYS C   1      -8.934   9.307  68.401  1.00  0.00    -0.129 OA 
ATOM     19  OXT GLY A   1      -7.132  15.306  66.685  1.00  0.00     0.046 OA 
ATOM     20  O   GLY A   1      -8.074  14.924  68.694  1.00  0.00    -0.136 OA 
ATOM     21  OXT CYS B   1      -8.246  11.631  64.256  1.00  0.00     0.927 OA 
ATOM     22  H1  CYS C   1      -7.660  12.393  67.484  1.00  0.00     0.000 HD 
ENDROOT
BRANCH   3  23
ATOM     23  CB  CYS B   1      -6.340   9.809  66.256  1.00  0.00    -0.070 C  
ATOM     24  SG  CYS B   1      -5.580   8.409  67.190  1.00  0.00    -0.039 SA 
ATOM     25  HG  CYS B   1      -4.708   8.799  68.199  1.00  0.00     0.000 H  
ENDBRANCH   3  23
BRANCH  10  26
ATOM     26  CB  CYS C   1     -10.446  11.032  66.738  1.00  0.00    -0.251 C  
ATOM     27  SG  CYS C   1     -10.741  11.978  65.186  1.00  0.00    -0.299 SA 
ATOM     28  HG  CYS C   1     -11.670  11.479  64.281  1.00  0.00     0.000 H  
ENDBRANCH  10  26
TORSDOF 2
ENDMDL
MODEL      176
REMARK 921   NORMALIZED FREE ENERGY PREDICTED BY IDOCK:    0.85 KCAL/MOL
REMARK 922        TOTAL FREE ENERGY PREDICTED BY IDOCK:    1.52 KCAL/MOL
REMARK 923 INTER-LIGAND FREE ENERGY PREDICTED BY IDOCK:   -1.08 KCAL/MOL
REMARK 924 INTRA-LIGAND FREE ENERGY PREDICTED BY IDOCK:    2.60 KCAL/MOL
REMARK 927      BINDING AFFINITY PREDICTED BY RF-SCORE:    0.00 PKD
ROOT
HETATM    1 FE   UNL     1      -5.194  12.393  68.562  1.00  0.00    -0.050 Fe 
ATOM      2  N   GLY A   1     -13.021  13.327  68.182  1.00  0.00     1.089 NA 
ATOM      3  CA  CYS B   1      -9.128  11.913  65.422  1.00  0.00     0.140 C  
ATOM      4  CA  GLY A   1     -12.599  14.530  68.919  1.00  0.00     0.314 C  
ATOM      5  H2  GLY A   1     -13.621  12.728  68.747  1.00  0.00     0.000 HD 
ATOM      6  H1  GLY A   1     -13.466  13.585  67.301  1.00  0.00     0.000 HD 
ATOM      7  OXT CYS C   1      -9.799  16.293  67.303  1.00  0.00    -0.236 OA 
ATOM      8  C   GLY A   1     -11.929  14.142  70.247  1.00  0.00    -0.334 C  
ATOM      9  C   CYS B   1      -8.759  11.044  66.673  1.00  0.00    -0.160 C  
ATOM     10  CA  CYS C   1      -8.488  14.590  68.336  1.00  0.00    -0.163 C  
ATOM     11  N   CYS B   1      -9.362  10.900  64.355  1.00  0.00    -0.218 NA 
ATOM     12  H2  CYS C   1      -9.439  12.796  68.983  1.00  0.00     0.000 HD 
ATOM     13  N   CYS C   1      -9.530  13.530  68.280  1.00  0.00    -0.213 NA 
ATOM     14  C   CYS C   1      -8.781  15.561  67.120  1.00  0.00    -0.211 C  
ATOM     15  H2  CYS B   1      -9.537  11.318  63.441  1.00  0.00     0.000 HD 
ATOM     16  H1  CYS B   1      -8.565  10.263  64.355  1.00  0.00     0.000 HD 
ATOM     17  O   CYS B   1      -7.829  10.080  66.314  1.00  0.00    -0.106 OA 
ATOM     18  O   CYS C   1      -8.092  15.353  66.074  1.00  0.00     0.387 OA 
ATOM     19  OXT GLY A   1     -11.957  13.027  70.748  1.00  0.00    -0.267 OA 
ATOM     20  O   GLY A   1     -11.232  15.157  70.816  1.00  0.00    -0.293 OA 
ATOM     21  OXT CYS B   1      -9.094  11.006  67.855  1.00  0.00    -0.141 OA 
ATOM     22  H1  CYS C   1     -10.388  14.079  68.333  1.00  0.00     0.000 HD 
ENDROOT
BRANCH   3  23
ATOM     23  CB  CYS B   1     -10.334  12.876  65.421  1.00  0.00    -0.296 C  
ATOM     24  SG  CYS B   1     -11.855  12.191  64.627  1.00  0.00    -0.297 SA 
ATOM     25  HG  CYS B   1     -12.942  13.058  64.627  1.00  0.00     0.000 H  
ENDBRANCH   3  23
BRANCH  10  26
ATOM     26  CB  CYS C   1      -7.214  13.774  68.257  1.00  0.00    -0.114 C  
ATOM     27  SG  CYS C   1      -7.181  12.133  69.092  1.00  0.00     0.095 SA 
ATOM     28  HG  CYS C   1      -6.012  11.385  69.019  1.00  0.00     0.000 H  
ENDBRANCH  10  26
TORSDOF 2
ENDMDL
MODEL      177
REMARK 921   NORMALIZED FREE ENERGY PREDICTED BY IDOCK:    1.63 KCAL/MOL
REMARK 922        TOTAL FREE ENERGY PREDICTED BY IDOCK:    2.40 KCAL/MOL
REMARK 923 INTER-LIGAND FREE ENERGY PREDICTED BY IDOCK:    1.71 KCAL/MOL
REMARK 924 INTRA-LIGAND FREE ENERGY PREDICTED BY IDOCK:    0.69 KCAL/MOL
REMARK 927      BINDING AFFINITY PREDICTED BY RF-SCORE:    0.00 PKD
ROOT
HETATM    1 FE   UNL     1      -6.988  11.326  62.396  1.00  0.00    -0.193 Fe 
ATOM      2  N   GLY A   1      -8.673  11.073  70.102  1.00  0.00     0.595 NA 
ATOM      3  CA  CYS B   1      -7.144   8.181  66.352  1.00  0.00    -0.075 C  
ATOM      4  CA  GLY A   1      -9.765  11.907  69.571  1.00  0.00     0.991 C  
ATOM      5  H2  GLY A   1      -8.086  11.590  70.756  1.00  0.00     0.000 HD 
ATOM      6  H1  GLY A   1      -9.045  10.220  70.519  1.00  0.00     0.000 HD 
ATOM      7  OXT CYS C   1     -11.391  10.429  66.617  1.00  0.00    -0.024 OA 
ATOM      8  C   GLY A   1      -9.206  13.193  68.942  1.00  0.00     0.293 C  
ATOM      9  C   CYS B   1      -6.141   9.352  66.067  1.00  0.00    -0.063 C  
ATOM     10  CA  CYS C   1      -9.493  11.306  65.472  1.00  0.00    -0.229 C  
ATOM     11  N   CYS B   1      -6.250   7.033  66.677  1.00  0.00    -0.041 NA 
ATOM     12  H2  CYS C   1      -7.747  11.805  66.587  1.00  0.00     0.000 HD 
ATOM     13  N   CYS C   1      -8.543  11.167  66.607  1.00  0.00    -0.160 NA 
ATOM     14  C   CYS C   1     -10.586  10.178  65.671  1.00  0.00     0.089 C  
ATOM     15  H2  CYS B   1      -6.758   6.159  66.810  1.00  0.00     0.000 HD 
ATOM     16  H1  CYS B   1      -5.545   6.975  65.942  1.00  0.00     0.000 HD 
ATOM     17  O   CYS B   1      -5.129   8.907  65.230  1.00  0.00    -0.036 OA 
ATOM     18  O   CYS C   1     -10.404   9.115  65.002  1.00  0.00     0.932 OA 
ATOM     19  OXT GLY A   1      -8.059  13.598  69.075  1.00  0.00     0.030 OA 
ATOM     20  O   GLY A   1     -10.100  13.842  68.156  1.00  0.00    -0.235 OA 
ATOM     21  OXT CYS B   1      -6.035  10.528  66.407  1.00  0.00    -0.066 OA 
ATOM     22  H1  CYS C   1      -9.163  11.272  67.410  1.00  0.00     0.000 HD 
ENDROOT
BRANCH   3  23
ATOM     23  CB  CYS B   1      -8.210   8.268  67.463  1.00  0.00    -0.122 C  
ATOM     24  SG  CYS B   1      -7.546   8.063  69.175  1.00  0.00    -0.099 SA 
ATOM     25  HG  CYS B   1      -8.507   8.142  70.176  1.00  0.00     0.000 H  
ENDBRANCH   3  23
BRANCH  10  26
ATOM     26  CB  CYS C   1      -8.572  11.151  64.279  1.00  0.00     0.268 C  
ATOM     27  SG  CYS C   1      -9.307  11.275  62.595  1.00  0.00    -0.148 SA 
ATOM     28  HG  CYS C   1      -8.463  11.133  61.500  1.00  0.00     0.000 H  
ENDBRANCH  10  26
TORSDOF 2
ENDMDL
MODEL      178
REMARK 921   NORMALIZED FREE ENERGY PREDICTED BY IDOCK:    2.42 KCAL/MOL
REMARK 922        TOTAL FREE ENERGY PREDICTED BY IDOCK:    3.28 KCAL/MOL
REMARK 923 INTER-LIGAND FREE ENERGY PREDICTED BY IDOCK:    2.46 KCAL/MOL
REMARK 924 INTRA-LIGAND FREE ENERGY PREDICTED BY IDOCK:    0.82 KCAL/MOL
REMARK 927      BINDING AFFINITY PREDICTED BY RF-SCORE:    0.00 PKD
ROOT
HETATM    1 FE   UNL     1      -6.647  14.615  70.602  1.00  0.00    -0.155 Fe 
ATOM      2  N   GLY A   1      -6.553  21.182  66.225  1.00  0.00    -0.490 NA 
ATOM      3  CA  CYS B   1      -7.305  19.620  70.890  1.00  0.00     1.238 C  
ATOM      4  CA  GLY A   1      -7.254  20.231  65.346  1.00  0.00    -0.180 C  
ATOM      5  H2  GLY A   1      -5.672  21.495  65.818  1.00  0.00     0.000 HD 
ATOM      6  H1  GLY A   1      -7.161  21.965  66.461  1.00  0.00     0.000 HD 
ATOM      7  OXT CYS C   1      -9.962  18.420  67.061  1.00  0.00    -0.311 OA 
ATOM      8  C   GLY A   1      -6.337  19.049  64.989  1.00  0.00    -0.248 C  
ATOM      9  C   CYS B   1      -5.978  18.816  70.666  1.00  0.00     0.051 C  
ATOM     10  CA  CYS C   1      -8.170  17.092  67.904  1.00  0.00    -0.200 C  
ATOM     11  N   CYS B   1      -6.959  20.552  72.001  1.00  0.00    -0.304 NA 
ATOM     12  H2  CYS C   1      -6.187  17.869  67.851  1.00  0.00     0.000 HD 
ATOM     13  N   CYS C   1      -7.157  18.179  67.917  1.00  0.00    -0.214 NA 
ATOM     14  C   CYS C   1      -9.576  17.796  68.094  1.00  0.00    -0.303 C  
ATOM     15  H2  CYS B   1      -7.758  21.099  72.324  1.00  0.00     0.000 HD 
ATOM     16  H1  CYS B   1      -6.530  20.000  72.744  1.00  0.00     0.000 HD 
ATOM     17  O   CYS B   1      -5.473  18.398  71.889  1.00  0.00    -0.337 OA 
ATOM     18  O   CYS C   1     -10.030  17.802  69.279  1.00  0.00    -0.235 OA 
ATOM     19  OXT GLY A   1      -5.131  19.011  65.189  1.00  0.00    -0.142 OA 
ATOM     20  O   GLY A   1      -7.003  17.990  64.464  1.00  0.00     1.397 OA 
ATOM     21  OXT CYS B   1      -5.295  18.487  69.699  1.00  0.00    -0.186 OA 
ATOM     22  H1  CYS C   1      -7.477  18.770  67.149  1.00  0.00     0.000 HD 
ENDROOT
BRANCH   3  23
ATOM     23  CB  CYS B   1      -7.955  20.456  69.768  1.00  0.00     1.101 C  
ATOM     24  SG  CYS B   1      -9.731  20.873  70.059  1.00  0.00     2.124 SA 
ATOM     25  HG  CYS B   1     -10.316  21.626  69.048  1.00  0.00     0.000 H  
ENDBRANCH   3  23
BRANCH  10  26
ATOM     26  CB  CYS C   1      -7.695  16.214  69.044  1.00  0.00    -0.222 C  
ATOM     27  SG  CYS C   1      -8.362  14.501  69.156  1.00  0.00     0.074 SA 
ATOM     28  HG  CYS C   1      -7.926  13.696  70.202  1.00  0.00     0.000 H  
ENDBRANCH  10  26
TORSDOF 2
ENDMDL
MODEL      179
REMARK 921   NORMALIZED FREE ENERGY PREDICTED BY IDOCK:    6.26 KCAL/MOL
REMARK 922        TOTAL FREE ENERGY PREDICTED BY IDOCK:    7.57 KCAL/MOL
REMARK 923 INTER-LIGAND FREE ENERGY PREDICTED BY IDOCK:    6.44 KCAL/MOL
REMARK 924 INTRA-LIGAND FREE ENERGY PREDICTED BY IDOCK:    1.13 KCAL/MOL
REMARK 927      BINDING AFFINITY PREDICTED BY RF-SCORE:    0.00 PKD
ROOT
HETATM    1 FE   UNL     1      -9.451  20.022  72.432  1.00  0.00     0.299 Fe 
ATOM      2  N   GLY A   1     -10.768  17.114  65.214  1.00  0.00    -0.619 NA 
ATOM      3  CA  CYS B   1      -9.813  15.672  69.880  1.00  0.00    -0.192 C  
ATOM      4  CA  GLY A   1      -9.874  18.250  64.934  1.00  0.00     3.014 C  
ATOM      5  H2  GLY A   1     -11.685  17.240  64.787  1.00  0.00     0.000 HD 
ATOM      6  H1  GLY A   1     -10.334  16.237  64.926  1.00  0.00     0.000 HD 
ATOM      7  OXT CYS C   1      -6.893  18.295  67.095  1.00  0.00    -0.189 OA 
ATOM      8  C   GLY A   1     -10.528  19.572  65.368  1.00  0.00     0.055 C  
ATOM      9  C   CYS B   1     -10.947  16.686  70.257  1.00  0.00    -0.052 C  
ATOM     10  CA  CYS C   1      -8.399  19.228  68.690  1.00  0.00    -0.372 C  
ATOM     11  N   CYS B   1     -10.360  14.360  70.330  1.00  0.00    -0.060 NA 
ATOM     12  H2  CYS C   1     -10.496  18.977  68.409  1.00  0.00     0.000 HD 
ATOM     13  N   CYS C   1      -9.610  18.516  68.203  1.00  0.00    -0.312 NA 
ATOM     14  C   CYS C   1      -7.167  18.300  68.332  1.00  0.00    -0.268 C  
ATOM     15  H2  CYS B   1      -9.694  13.595  70.225  1.00  0.00     0.000 HD 
ATOM     16  H1  CYS B   1     -10.685  14.476  71.290  1.00  0.00     0.000 HD 
ATOM     17  O   CYS B   1     -11.383  16.439  71.551  1.00  0.00    -0.308 OA 
ATOM     18  O   CYS C   1      -6.747  17.559  69.273  1.00  0.00    -0.248 OA 
ATOM     19  OXT GLY A   1     -11.706  19.707  65.669  1.00  0.00     0.773 OA 
ATOM     20  O   GLY A   1      -9.654  20.606  65.446  1.00  0.00     0.228 OA 
ATOM     21  OXT CYS B   1     -11.531  17.610  69.696  1.00  0.00     1.492 OA 
ATOM     22  H1  CYS C   1      -9.399  18.402  67.211  1.00  0.00     0.000 HD 
ENDROOT
BRANCH   3  23
ATOM     23  CB  CYS B   1      -9.321  15.497  68.428  1.00  0.00    -0.192 C  
ATOM     24  SG  CYS B   1     -10.308  14.298  67.428  1.00  0.00    -0.260 SA 
ATOM     25  HG  CYS B   1      -9.866  14.141  66.120  1.00  0.00     0.000 H  
ENDBRANCH   3  23
BRANCH  10  26
ATOM     26  CB  CYS C   1      -8.712  19.396  70.163  1.00  0.00     1.316 C  
ATOM     27  SG  CYS C   1      -9.985  20.637  70.643  1.00  0.00     2.329 SA 
ATOM     28  HG  CYS C   1     -10.272  20.791  71.994  1.00  0.00     0.000 H  
ENDBRANCH  10  26
TORSDOF 2
ENDMDL
MODEL      180
REMARK 921   NORMALIZED FREE ENERGY PREDICTED BY IDOCK:    6.96 KCAL/MOL
REMARK 922        TOTAL FREE ENERGY PREDICTED BY IDOCK:    8.35 KCAL/MOL
REMARK 923 INTER-LIGAND FREE ENERGY PREDICTED BY IDOCK:    6.97 KCAL/MOL
REMARK 924 INTRA-LIGAND FREE ENERGY PREDICTED BY IDOCK:    1.38 KCAL/MOL
REMARK 927      BINDING AFFINITY PREDICTED BY RF-SCORE:    0.00 PKD
ROOT
HETATM    1 FE   UNL     1     -13.310   5.125  71.608  1.00  0.00     1.159 Fe 
ATOM      2  N   GLY A   1      -6.221   8.256  70.112  1.00  0.00    -0.031 NA 
ATOM      3  CA  CYS B   1     -10.875   9.547  71.316  1.00  0.00    -0.343 C  
ATOM      4  CA  GLY A   1      -6.329   7.217  69.074  1.00  0.00    -0.036 C  
ATOM      5  H2  GLY A   1      -5.451   8.072  70.754  1.00  0.00     0.000 HD 
ATOM      6  H1  GLY A   1      -6.147   9.180  69.687  1.00  0.00     0.000 HD 
ATOM      7  OXT CYS C   1      -9.532   7.327  67.262  1.00  0.00    -0.130 OA 
ATOM      8  C   GLY A   1      -6.441   5.824  69.714  1.00  0.00    -0.042 C  
ATOM      9  C   CYS B   1     -10.738   8.420  72.398  1.00  0.00    -0.335 C  
ATOM     10  CA  CYS C   1     -10.350   6.190  69.191  1.00  0.00    -0.218 C  
ATOM     11  N   CYS B   1     -11.067  10.782  72.128  1.00  0.00     3.067 NA 
ATOM     12  H2  CYS C   1      -9.225   6.271  70.999  1.00  0.00     0.000 HD 
ATOM     13  N   CYS C   1      -9.410   6.817  70.157  1.00  0.00    -0.159 NA 
ATOM     14  C   CYS C   1     -10.543   7.238  68.020  1.00  0.00    -0.189 C  
ATOM     15  H2  CYS B   1     -11.255  11.607  71.558  1.00  0.00     0.000 HD 
ATOM     16  H1  CYS B   1     -11.804  10.592  72.807  1.00  0.00     0.000 HD 
ATOM     17  O   CYS B   1     -11.736   8.565  73.351  1.00  0.00     0.407 OA 
ATOM     18  O   CYS C   1     -11.580   7.966  68.102  1.00  0.00     0.966 OA 
ATOM     19  OXT GLY A   1      -6.224   5.572  70.891  1.00  0.00    -0.028 OA 
ATOM     20  O   GLY A   1      -6.866   4.867  68.851  1.00  0.00    -0.048 OA 
ATOM     21  OXT CYS B   1      -9.977   7.478  72.603  1.00  0.00    -0.178 OA 
ATOM     22  H1  CYS C   1      -8.596   6.996  69.569  1.00  0.00     0.000 HD 
ENDROOT
BRANCH   3  23
ATOM     23  CB  CYS B   1      -9.760   9.835  70.289  1.00  0.00    -0.223 C  
ATOM     24  SG  CYS B   1     -10.171  11.159  69.069  1.00  0.00    -0.132 SA 
ATOM     25  HG  CYS B   1      -9.166  11.418  68.144  1.00  0.00     0.000 H  
ENDBRANCH   3  23
BRANCH  10  26
ATOM     26  CB  CYS C   1     -11.558   5.923  70.065  1.00  0.00     0.231 C  
ATOM     27  SG  CYS C   1     -13.045   6.984  69.837  1.00  0.00     3.232 SA 
ATOM     28  HG  CYS C   1     -14.154   6.740  70.638  1.00  0.00     0.000 H  
ENDBRANCH  10  26
TORSDOF 2
ENDMDL
MODEL      181
REMARK 921   NORMALIZED FREE ENERGY PREDICTED BY IDOCK:   11.26 KCAL/MOL
REMARK 922        TOTAL FREE ENERGY PREDICTED BY IDOCK:   13.16 KCAL/MOL
REMARK 923 INTER-LIGAND FREE ENERGY PREDICTED BY IDOCK:   11.68 KCAL/MOL
REMARK 924 INTRA-LIGAND FREE ENERGY PREDICTED BY IDOCK:    1.47 KCAL/MOL
REMARK 927      BINDING AFFINITY PREDICTED BY RF-SCORE:    0.00 PKD
ROOT
HETATM    1 FE   UNL     1      -6.234  15.803  69.805  1.00  0.00    -0.117 Fe 
ATOM      2  N   GLY A   1      -8.195   8.974  66.369  1.00  0.00    -0.110 NA 
ATOM      3  CA  CYS B   1     -10.079  13.431  67.536  1.00  0.00    -0.227 C  
ATOM      4  CA  GLY A   1      -7.425   8.524  67.541  1.00  0.00    -0.093 C  
ATOM      5  H2  GLY A   1      -7.743   8.711  65.494  1.00  0.00     0.000 HD 
ATOM      6  H1  GLY A   1      -9.155   8.632  66.418  1.00  0.00     0.000 HD 
ATOM      7  OXT CYS C   1      -8.502  10.136  70.670  1.00  0.00     0.090 OA 
ATOM      8  C   GLY A   1      -5.979   9.041  67.467  1.00  0.00    -0.050 C  
ATOM      9  C   CYS B   1      -8.754  13.980  66.904  1.00  0.00    -0.164 C  
ATOM     10  CA  CYS C   1      -7.178  11.951  69.872  1.00  0.00     0.700 C  
ATOM     11  N   CYS B   1     -11.141  13.991  66.652  1.00  0.00    -0.304 NA 
ATOM     12  H2  CYS C   1      -6.680  12.041  67.802  1.00  0.00     0.000 HD 
ATOM     13  N   CYS C   1      -7.409  11.693  68.426  1.00  0.00    -0.089 NA 
ATOM     14  C   CYS C   1      -8.457  11.402  70.627  1.00  0.00     4.827 C  
ATOM     15  H2  CYS B   1     -12.083  13.787  66.984  1.00  0.00     0.000 HD 
ATOM     16  H1  CYS B   1     -10.962  14.991  66.554  1.00  0.00     0.000 HD 
ATOM     17  O   CYS B   1      -8.891  15.334  66.634  1.00  0.00    -0.255 OA 
ATOM     18  O   CYS C   1      -9.337  12.269  70.916  1.00  0.00     7.010 OA 
ATOM     19  OXT GLY A   1      -5.461   9.538  66.478  1.00  0.00    -0.044 OA 
ATOM     20  O   GLY A   1      -5.313   8.948  68.646  1.00  0.00    -0.036 OA 
ATOM     21  OXT CYS B   1      -7.662  13.511  66.590  1.00  0.00     0.410 OA 
ATOM     22  H1  CYS C   1      -7.545  10.682  68.414  1.00  0.00     0.000 HD 
ENDROOT
BRANCH   3  23
ATOM     23  CB  CYS B   1     -10.350  11.919  67.685  1.00  0.00    -0.200 C  
ATOM     24  SG  CYS B   1     -11.047  11.117  66.174  1.00  0.00     0.012 SA 
ATOM     25  HG  CYS B   1     -11.290   9.755  66.309  1.00  0.00     0.000 H  
ENDBRANCH   3  23
BRANCH  10  26
ATOM     26  CB  CYS C   1      -6.977  13.452  69.889  1.00  0.00     0.408 C  
ATOM     27  SG  CYS C   1      -5.669  14.165  68.805  1.00  0.00    -0.086 SA 
ATOM     28  HG  CYS C   1      -5.484  15.542  68.821  1.00  0.00     0.000 H  
ENDBRANCH  10  26
TORSDOF 2
ENDMDL
MODEL      182
REMARK 921   NORMALIZED FREE ENERGY PREDICTED BY IDOCK:   12.48 KCAL/MOL
REMARK 922        TOTAL FREE ENERGY PREDICTED BY IDOCK:   14.52 KCAL/MOL
REMARK 923 INTER-LIGAND FREE ENERGY PREDICTED BY IDOCK:   10.86 KCAL/MOL
REMARK 924 INTRA-LIGAND FREE ENERGY PREDICTED BY IDOCK:    3.65 KCAL/MOL
REMARK 927      BINDING AFFINITY PREDICTED BY RF-SCORE:    0.00 PKD
ROOT
HETATM    1 FE   UNL     1      -6.476   6.926  69.821  1.00  0.00    -0.032 Fe 
ATOM      2  N   GLY A   1      -9.957  11.066  64.074  1.00  0.00    -0.303 NA 
ATOM      3  CA  CYS B   1     -10.615   7.035  66.919  1.00  0.00    -0.301 C  
ATOM      4  CA  GLY A   1      -8.551  11.046  63.637  1.00  0.00     0.118 C  
ATOM      5  H2  GLY A   1     -10.280  12.013  64.270  1.00  0.00     0.000 HD 
ATOM      6  H1  GLY A   1     -10.551  10.597  63.391  1.00  0.00     0.000 HD 
ATOM      7  OXT CYS C   1      -7.066   7.678  63.731  1.00  0.00    -0.060 OA 
ATOM      8  C   GLY A   1      -7.655  11.753  64.667  1.00  0.00     2.518 C  
ATOM      9  C   CYS B   1     -10.213   7.993  68.093  1.00  0.00    -0.207 C  
ATOM     10  CA  CYS C   1      -6.857   8.133  66.062  1.00  0.00    -0.057 C  
ATOM     11  N   CYS B   1     -12.012   6.642  67.258  1.00  0.00     0.344 NA 
ATOM     12  H2  CYS C   1      -8.046   9.673  66.931  1.00  0.00     0.000 HD 
ATOM     13  N   CYS C   1      -8.061   8.999  66.166  1.00  0.00    -0.109 NA 
ATOM     14  C   CYS C   1      -7.136   7.128  64.871  1.00  0.00    -0.064 C  
ATOM     15  H2  CYS B   1     -12.394   5.944  66.620  1.00  0.00     0.000 HD 
ATOM     16  H1  CYS B   1     -12.018   6.337  68.231  1.00  0.00     0.000 HD 
ATOM     17  O   CYS B   1     -10.578   7.425  69.305  1.00  0.00    -0.218 OA 
ATOM     18  O   CYS C   1      -7.566   5.983  65.209  1.00  0.00    -0.080 OA 
ATOM     19  OXT GLY A   1      -8.059  12.449  65.589  1.00  0.00     1.092 OA 
ATOM     20  O   GLY A   1      -6.334  11.493  64.501  1.00  0.00     1.236 OA 
ATOM     21  OXT CYS B   1      -9.680   9.096  68.192  1.00  0.00    -0.149 OA 
ATOM     22  H1  CYS C   1      -8.106   9.404  65.230  1.00  0.00     0.000 HD 
ENDROOT
BRANCH   3  23
ATOM     23  CB  CYS B   1     -10.606   7.496  65.446  1.00  0.00     4.017 C  
ATOM     24  SG  CYS B   1      -9.731   6.348  64.294  1.00  0.00     3.212 SA 
ATOM     25  HG  CYS B   1      -9.724   6.764  62.967  1.00  0.00     0.000 H  
ENDBRANCH   3  23
BRANCH  10  26
ATOM     26  CB  CYS C   1      -6.789   7.531  67.451  1.00  0.00    -0.071 C  
ATOM     27  SG  CYS C   1      -5.131   7.131  68.143  1.00  0.00    -0.020 SA 
ATOM     28  HG  CYS C   1      -5.068   6.579  69.417  1.00  0.00     0.000 H  
ENDBRANCH  10  26
TORSDOF 2
ENDMDL
MODEL      183
REMARK 921   NORMALIZED FREE ENERGY PREDICTED BY IDOCK:   13.90 KCAL/MOL
REMARK 922        TOTAL FREE ENERGY PREDICTED BY IDOCK:   16.10 KCAL/MOL
REMARK 923 INTER-LIGAND FREE ENERGY PREDICTED BY IDOCK:   14.47 KCAL/MOL
REMARK 924 INTRA-LIGAND FREE ENERGY PREDICTED BY IDOCK:    1.63 KCAL/MOL
REMARK 927      BINDING AFFINITY PREDICTED BY RF-SCORE:    0.00 PKD
ROOT
HETATM    1 FE   UNL     1     -13.478   4.354  71.136  1.00  0.00     4.947 Fe 
ATOM      2  N   GLY A   1      -5.633   4.958  71.749  1.00  0.00    -0.008 NA 
ATOM      3  CA  CYS B   1      -9.610   7.428  70.061  1.00  0.00    -0.168 C  
ATOM      4  CA  GLY A   1      -5.806   3.553  71.342  1.00  0.00    -0.013 C  
ATOM      5  H2  GLY A   1      -5.211   5.035  72.675  1.00  0.00     0.000 HD 
ATOM      6  H1  GLY A   1      -5.100   5.471  71.047  1.00  0.00     0.000 HD 
ATOM      7  OXT CYS C   1      -8.056   3.166  68.453  1.00  0.00    -0.064 OA 
ATOM      8  C   GLY A   1      -6.609   2.779  72.401  1.00  0.00    -0.015 C  
ATOM      9  C   CYS B   1     -10.225   7.075  71.460  1.00  0.00    -0.198 C  
ATOM     10  CA  CYS C   1      -9.765   3.423  70.096  1.00  0.00    -0.055 C  
ATOM     11  N   CYS B   1      -9.561   8.918  70.072  1.00  0.00    -0.171 NA 
ATOM     12  H2  CYS C   1      -9.275   4.300  71.975  1.00  0.00     0.000 HD 
ATOM     13  N   CYS C   1      -8.989   4.316  70.996  1.00  0.00    -0.111 NA 
ATOM     14  C   CYS C   1      -9.203   3.672  68.636  1.00  0.00    -0.160 C  
ATOM     15  H2  CYS B   1      -9.254   9.312  69.183  1.00  0.00     0.000 HD 
ATOM     16  H1  CYS B   1     -10.481   9.253  70.359  1.00  0.00     0.000 HD 
ATOM     17  O   CYS B   1     -11.331   7.878  71.699  1.00  0.00    -0.247 OA 
ATOM     18  O   CYS C   1      -9.871   4.482  67.922  1.00  0.00    -0.155 OA 
ATOM     19  OXT GLY A   1      -6.857   3.184  73.528  1.00  0.00    -0.032 OA 
ATOM     20  O   GLY A   1      -7.084   1.590  71.954  1.00  0.00    -0.025 OA 
ATOM     21  OXT CYS B   1      -9.963   6.292  72.370  1.00  0.00    -0.172 OA 
ATOM     22  H1  CYS C   1      -8.032   4.009  70.818  1.00  0.00     0.000 HD 
ENDROOT
BRANCH   3  23
ATOM     23  CB  CYS B   1      -8.219   6.921  69.627  1.00  0.00    -0.131 C  
ATOM     24  SG  CYS B   1      -7.739   7.390  67.906  1.00  0.00    -0.118 SA 
ATOM     25  HG  CYS B   1      -6.486   6.933  67.516  1.00  0.00     0.000 H  
ENDBRANCH   3  23
BRANCH  10  26
ATOM     26  CB  CYS C   1     -11.185   3.879  70.359  1.00  0.00     4.462 C  
ATOM     27  SG  CYS C   1     -11.929   5.109  69.208  1.00  0.00     6.905 SA 
ATOM     28  HG  CYS C   1     -13.232   5.527  69.449  1.00  0.00     0.000 H  
ENDBRANCH  10  26
TORSDOF 2
ENDMDL
MODEL      184
REMARK 921   NORMALIZED FREE ENERGY PREDICTED BY IDOCK:   15.30 KCAL/MOL
REMARK 922        TOTAL FREE ENERGY PREDICTED BY IDOCK:   17.67 KCAL/MOL
REMARK 923 INTER-LIGAND FREE ENERGY PREDICTED BY IDOCK:   16.53 KCAL/MOL
REMARK 924 INTRA-LIGAND FREE ENERGY PREDICTED BY IDOCK:    1.14 KCAL/MOL
REMARK 927      BINDING AFFINITY PREDICTED BY RF-SCORE:    0.00 PKD
ROOT
HETATM    1 FE   UNL     1      -8.229  18.441  66.788  1.00  0.00    -0.210 Fe 
ATOM      2  N   GLY A   1     -11.523  11.292  67.362  1.00  0.00    -0.513 NA 
ATOM      3  CA  CYS B   1      -7.252  13.694  68.230  1.00  0.00    -0.111 C  
ATOM      4  CA  GLY A   1     -12.005  11.753  66.049  1.00  0.00     0.301 C  
ATOM      5  H2  GLY A   1     -12.290  11.150  68.018  1.00  0.00     0.000 HD 
ATOM      6  H1  GLY A   1     -10.952  10.453  67.260  1.00  0.00     0.000 HD 
ATOM      7  OXT CYS C   1      -9.313  13.091  63.923  1.00  0.00     0.499 OA 
ATOM      8  C   GLY A   1     -12.866  13.017  66.203  1.00  0.00     0.590 C  
ATOM      9  C   CYS B   1      -8.174  14.759  68.918  1.00  0.00    -0.165 C  
ATOM     10  CA  CYS C   1      -9.592  15.040  65.268  1.00  0.00     0.043 C  
ATOM     11  N   CYS B   1      -6.394  13.208  69.348  1.00  0.00    -0.110 NA 
ATOM     12  H2  CYS C   1     -10.570  14.870  67.153  1.00  0.00     0.000 HD 
ATOM     13  N   CYS C   1     -10.003  14.324  66.504  1.00  0.00    -0.272 NA 
ATOM     14  C   CYS C   1      -8.667  14.037  64.464  1.00  0.00     5.492 C  
ATOM     15  H2  CYS B   1      -5.672  12.557  69.041  1.00  0.00     0.000 HD 
ATOM     16  H1  CYS B   1      -6.014  14.028  69.823  1.00  0.00     0.000 HD 
ATOM     17  O   CYS B   1      -7.408  15.595  69.716  1.00  0.00    -0.176 OA 
ATOM     18  O   CYS C   1      -7.417  14.200  64.619  1.00  0.00    10.899 OA 
ATOM     19  OXT GLY A   1     -13.302  13.444  67.263  1.00  0.00     1.977 OA 
ATOM     20  O   GLY A   1     -13.069  13.677  65.035  1.00  0.00    -0.742 OA 
ATOM     21  OXT CYS B   1      -9.377  15.014  68.927  1.00  0.00    -0.195 OA 
ATOM     22  H1  CYS C   1     -10.456  13.494  66.122  1.00  0.00     0.000 HD 
ENDROOT
BRANCH   3  23
ATOM     23  CB  CYS B   1      -7.826  12.455  67.513  1.00  0.00    -0.169 C  
ATOM     24  SG  CYS B   1      -7.411  10.846  68.321  1.00  0.00    -0.098 SA 
ATOM     25  HG  CYS B   1      -7.929   9.730  67.675  1.00  0.00     0.000 H  
ENDBRANCH   3  23
BRANCH  10  26
ATOM     26  CB  CYS C   1      -8.918  16.273  65.835  1.00  0.00    -0.186 C  
ATOM     27  SG  CYS C   1      -9.982  17.575  66.585  1.00  0.00    -0.327 SA 
ATOM     28  HG  CYS C   1      -9.364  18.706  67.106  1.00  0.00     0.000 H  
ENDBRANCH  10  26
TORSDOF 2
ENDMDL
MODEL      185
REMARK 921   NORMALIZED FREE ENERGY PREDICTED BY IDOCK:   15.54 KCAL/MOL
REMARK 922        TOTAL FREE ENERGY PREDICTED BY IDOCK:   17.94 KCAL/MOL
REMARK 923 INTER-LIGAND FREE ENERGY PREDICTED BY IDOCK:    9.28 KCAL/MOL
REMARK 924 INTRA-LIGAND FREE ENERGY PREDICTED BY IDOCK:    8.66 KCAL/MOL
REMARK 927      BINDING AFFINITY PREDICTED BY RF-SCORE:    0.00 PKD
ROOT
HETATM    1 FE   UNL     1      -6.228  10.889  68.830  1.00  0.00    -0.042 Fe 
ATOM      2  N   GLY A   1     -10.588  17.224  67.058  1.00  0.00    -0.278 NA 
ATOM      3  CA  CYS B   1      -9.251  14.368  70.909  1.00  0.00     3.500 C  
ATOM      4  CA  GLY A   1     -10.898  16.311  65.945  1.00  0.00    -0.139 C  
ATOM      5  H2  GLY A   1     -10.123  18.072  66.734  1.00  0.00     0.000 HD 
ATOM      6  H1  GLY A   1     -11.430  17.435  67.594  1.00  0.00     0.000 HD 
ATOM      7  OXT CYS C   1     -11.778  12.920  67.077  1.00  0.00    -0.350 OA 
ATOM      8  C   GLY A   1      -9.629  15.993  65.138  1.00  0.00     0.563 C  
ATOM      9  C   CYS B   1      -7.804  14.543  70.332  1.00  0.00     1.206 C  
ATOM     10  CA  CYS C   1      -9.416  12.670  67.282  1.00  0.00    -0.199 C  
ATOM     11  N   CYS B   1      -9.166  15.006  72.253  1.00  0.00     4.543 NA 
ATOM     12  H2  CYS C   1      -8.193  14.412  67.383  1.00  0.00     0.000 HD 
ATOM     13  N   CYS C   1      -9.133  14.091  67.614  1.00  0.00    -0.184 NA 
ATOM     14  C   CYS C   1     -10.885  12.381  67.796  1.00  0.00    -0.225 C  
ATOM     15  H2  CYS B   1     -10.022  14.901  72.798  1.00  0.00     0.000 HD 
ATOM     16  H1  CYS B   1      -8.346  14.623  72.724  1.00  0.00     0.000 HD 
ATOM     17  O   CYS B   1      -6.871  14.184  71.294  1.00  0.00     0.534 OA 
ATOM     18  O   CYS C   1     -10.968  11.823  68.933  1.00  0.00    -0.220 OA 
ATOM     19  OXT GLY A   1      -8.567  16.592  65.235  1.00  0.00     0.402 OA 
ATOM     20  O   GLY A   1      -9.767  14.923  64.315  1.00  0.00     0.822 OA 
ATOM     21  OXT CYS B   1      -7.314  14.921  69.270  1.00  0.00    -0.152 OA 
ATOM     22  H1  CYS C   1      -9.889  14.573  67.127  1.00  0.00     0.000 HD 
ENDROOT
BRANCH   3  23
ATOM     23  CB  CYS B   1     -10.492  14.948  70.197  1.00  0.00     0.011 C  
ATOM     24  SG  CYS B   1     -10.200  15.446  68.442  1.00  0.00    -0.225 SA 
ATOM     25  HG  CYS B   1     -11.317  15.968  67.801  1.00  0.00     0.000 H  
ENDBRANCH   3  23
BRANCH  10  26
ATOM     26  CB  CYS C   1      -8.294  11.955  68.006  1.00  0.00    -0.160 C  
ATOM     27  SG  CYS C   1      -7.044  11.056  66.996  1.00  0.00    -0.126 SA 
ATOM     28  HG  CYS C   1      -6.015  10.399  67.660  1.00  0.00     0.000 H  
ENDBRANCH  10  26
TORSDOF 2
ENDMDL
MODEL      186
REMARK 921   NORMALIZED FREE ENERGY PREDICTED BY IDOCK:   15.64 KCAL/MOL
REMARK 922        TOTAL FREE ENERGY PREDICTED BY IDOCK:   18.04 KCAL/MOL
REMARK 923 INTER-LIGAND FREE ENERGY PREDICTED BY IDOCK:    6.26 KCAL/MOL
REMARK 924 INTRA-LIGAND FREE ENERGY PREDICTED BY IDOCK:   11.78 KCAL/MOL
REMARK 927      BINDING AFFINITY PREDICTED BY RF-SCORE:    0.00 PKD
ROOT
HETATM    1 FE   UNL     1     -12.113   9.428  65.922  1.00  0.00     2.168 Fe 
ATOM      2  N   GLY A   1      -6.331  13.900  68.895  1.00  0.00    -0.088 NA 
ATOM      3  CA  CYS B   1      -7.320   9.221  67.518  1.00  0.00    -0.087 C  
ATOM      4  CA  GLY A   1      -7.508  14.377  69.641  1.00  0.00     0.104 C  
ATOM      5  H2  GLY A   1      -5.925  14.636  68.318  1.00  0.00     0.000 HD 
ATOM      6  H1  GLY A   1      -5.644  13.496  69.532  1.00  0.00     0.000 HD 
ATOM      7  OXT CYS C   1      -9.514  11.634  71.058  1.00  0.00     5.676 OA 
ATOM      8  C   GLY A   1      -8.544  14.986  68.682  1.00  0.00    -0.174 C  
ATOM      9  C   CYS B   1      -7.896   9.892  66.223  1.00  0.00    -0.108 C  
ATOM     10  CA  CYS C   1     -10.363  11.472  68.836  1.00  0.00    -0.169 C  
ATOM     11  N   CYS B   1      -6.192   8.393  67.004  1.00  0.00    -0.055 NA 
ATOM     12  H2  CYS C   1      -9.257  12.340  67.236  1.00  0.00     0.000 HD 
ATOM     13  N   CYS C   1      -9.121  11.922  68.156  1.00  0.00    -0.185 NA 
ATOM     14  C   CYS C   1      -9.904  10.795  70.192  1.00  0.00     0.766 C  
ATOM     15  H2  CYS B   1      -5.758   7.820  67.728  1.00  0.00     0.000 HD 
ATOM     16  H1  CYS B   1      -6.547   7.843  66.221  1.00  0.00     0.000 HD 
ATOM     17  O   CYS B   1      -8.037   8.938  65.226  1.00  0.00    -0.113 OA 
ATOM     18  O   CYS C   1      -9.811   9.529  70.169  1.00  0.00    -0.212 OA 
ATOM     19  OXT GLY A   1      -8.335  15.269  67.511  1.00  0.00    -0.154 OA 
ATOM     20  O   GLY A   1      -9.770  15.144  69.242  1.00  0.00    -0.222 OA 
ATOM     21  OXT CYS B   1      -8.231  11.026  65.888  1.00  0.00    -0.160 OA 
ATOM     22  H1  CYS C   1      -8.713  12.540  68.858  1.00  0.00     0.000 HD 
ENDROOT
BRANCH   3  23
ATOM     23  CB  CYS B   1      -6.784  10.053  68.701  1.00  0.00    -0.053 C  
ATOM     24  SG  CYS B   1      -7.297  11.828  68.680  1.00  0.00    -0.115 SA 
ATOM     25  HG  CYS B   1      -6.815  12.577  69.747  1.00  0.00     0.000 H  
ENDBRANCH   3  23
BRANCH  10  26
ATOM     26  CB  CYS C   1     -10.969  10.553  67.794  1.00  0.00    -0.313 C  
ATOM     27  SG  CYS C   1     -10.059   9.012  67.362  1.00  0.00    -0.250 SA 
ATOM     28  HG  CYS C   1     -10.614   8.170  66.406  1.00  0.00     0.000 H  
ENDBRANCH  10  26
TORSDOF 2
ENDMDL
MODEL      187
REMARK 921   NORMALIZED FREE ENERGY PREDICTED BY IDOCK:   16.89 KCAL/MOL
REMARK 922        TOTAL FREE ENERGY PREDICTED BY IDOCK:   19.45 KCAL/MOL
REMARK 923 INTER-LIGAND FREE ENERGY PREDICTED BY IDOCK:    6.50 KCAL/MOL
REMARK 924 INTRA-LIGAND FREE ENERGY PREDICTED BY IDOCK:   12.95 KCAL/MOL
REMARK 927      BINDING AFFINITY PREDICTED BY RF-SCORE:    0.00 PKD
ROOT
HETATM    1 FE   UNL     1     -13.331  17.894  67.984  1.00  0.00     2.065 Fe 
ATOM      2  N   GLY A   1      -8.225  11.877  67.962  1.00  0.00    -0.148 NA 
ATOM      3  CA  CYS B   1     -12.529  13.341  65.937  1.00  0.00    -0.368 C  
ATOM      4  CA  GLY A   1      -8.295  12.221  69.392  1.00  0.00     1.016 C  
ATOM      5  H2  GLY A   1      -7.289  12.021  67.583  1.00  0.00     0.000 HD 
ATOM      6  H1  GLY A   1      -8.554  10.924  67.807  1.00  0.00     0.000 HD 
ATOM      7  OXT CYS C   1     -11.750  12.551  70.620  1.00  0.00    -0.086 OA 
ATOM      8  C   GLY A   1      -7.799  13.658  69.626  1.00  0.00     0.854 C  
ATOM      9  C   CYS B   1     -11.765  14.684  65.673  1.00  0.00    -0.304 C  
ATOM     10  CA  CYS C   1     -11.620  14.700  69.596  1.00  0.00    -0.307 C  
ATOM     11  N   CYS B   1     -12.854  12.855  64.566  1.00  0.00    -0.729 NA 
ATOM     12  H2  CYS C   1     -10.120  15.060  68.127  1.00  0.00     0.000 HD 
ATOM     13  N   CYS C   1     -10.686  14.303  68.509  1.00  0.00    -0.248 NA 
ATOM     14  C   CYS C   1     -12.437  13.397  69.973  1.00  0.00    -0.137 C  
ATOM     15  H2  CYS B   1     -13.433  12.015  64.569  1.00  0.00     0.000 HD 
ATOM     16  H1  CYS B   1     -13.282  13.631  64.059  1.00  0.00     0.000 HD 
ATOM     17  O   CYS B   1     -12.456  15.439  64.736  1.00  0.00    -0.016 OA 
ATOM     18  O   CYS C   1     -13.580  13.291  69.432  1.00  0.00     2.554 OA 
ATOM     19  OXT GLY A   1      -7.200  14.336  68.804  1.00  0.00    -0.116 OA 
ATOM     20  O   GLY A   1      -8.135  14.152  70.844  1.00  0.00     2.522 OA 
ATOM     21  OXT CYS B   1     -10.728  15.207  66.076  1.00  0.00    -0.310 OA 
ATOM     22  H1  CYS C   1     -10.160  13.549  68.953  1.00  0.00     0.000 HD 
ENDROOT
BRANCH   3  23
ATOM     23  CB  CYS B   1     -11.882  12.169  66.703  1.00  0.00    -0.237 C  
ATOM     24  SG  CYS B   1     -11.085  12.649  68.299  1.00  0.00    -0.281 SA 
ATOM     25  HG  CYS B   1     -10.503  11.593  68.990  1.00  0.00     0.000 H  
ENDBRANCH   3  23
BRANCH  10  26
ATOM     26  CB  CYS C   1     -12.400  15.819  68.938  1.00  0.00     0.222 C  
ATOM     27  SG  CYS C   1     -11.464  17.084  67.981  1.00  0.00     0.550 SA 
ATOM     28  HG  CYS C   1     -12.180  18.111  67.377  1.00  0.00     0.000 H  
ENDBRANCH  10  26
TORSDOF 2
ENDMDL
MODEL      188
REMARK 921   NORMALIZED FREE ENERGY PREDICTED BY IDOCK:   18.91 KCAL/MOL
REMARK 922        TOTAL FREE ENERGY PREDICTED BY IDOCK:   21.70 KCAL/MOL
REMARK 923 INTER-LIGAND FREE ENERGY PREDICTED BY IDOCK:   20.27 KCAL/MOL
REMARK 924 INTRA-LIGAND FREE ENERGY PREDICTED BY IDOCK:    1.44 KCAL/MOL
REMARK 927      BINDING AFFINITY PREDICTED BY RF-SCORE:    0.00 PKD
ROOT
HETATM    1 FE   UNL     1      -7.476  13.553  71.160  1.00  0.00     0.526 Fe 
ATOM      2  N   GLY A   1     -13.533  17.640  68.178  1.00  0.00     5.774 NA 
ATOM      3  CA  CYS B   1     -12.194  13.012  69.425  1.00  0.00    -0.113 C  
ATOM      4  CA  GLY A   1     -12.381  18.238  67.482  1.00  0.00     4.311 C  
ATOM      5  H2  GLY A   1     -14.013  18.319  68.768  1.00  0.00     0.000 HD 
ATOM      6  H1  GLY A   1     -14.168  17.204  67.510  1.00  0.00     0.000 HD 
ATOM      7  OXT CYS C   1     -10.120  15.721  66.030  1.00  0.00    -0.290 OA 
ATOM      8  C   GLY A   1     -11.424  18.896  68.489  1.00  0.00     1.988 C  
ATOM      9  C   CYS B   1     -11.708  13.681  70.757  1.00  0.00     0.068 C  
ATOM     10  CA  CYS C   1      -9.316  15.550  68.268  1.00  0.00    -0.192 C  
ATOM     11  N   CYS B   1     -13.262  12.076  69.879  1.00  0.00     1.137 NA 
ATOM     12  H2  CYS C   1     -10.530  16.267  69.865  1.00  0.00     0.000 HD 
ATOM     13  N   CYS C   1     -10.608  15.872  68.928  1.00  0.00    -0.230 NA 
ATOM     14  C   CYS C   1      -9.684  14.886  66.878  1.00  0.00    -0.240 C  
ATOM     15  H2  CYS B   1     -13.629  11.496  69.125  1.00  0.00     0.000 HD 
ATOM     16  H1  CYS B   1     -12.883  11.529  70.653  1.00  0.00     0.000 HD 
ATOM     17  O   CYS B   1     -11.514  12.707  71.725  1.00  0.00     2.471 OA 
ATOM     18  O   CYS C   1      -9.672  13.617  66.856  1.00  0.00    -0.245 OA 
ATOM     19  OXT GLY A   1     -11.684  19.119  69.663  1.00  0.00     4.676 OA 
ATOM     20  O   GLY A   1     -10.201  19.173  67.969  1.00  0.00    -0.363 OA 
ATOM     21  OXT CYS B   1     -11.477  14.826  71.139  1.00  0.00    -0.294 OA 
ATOM     22  H1  CYS C   1     -11.049  16.480  68.236  1.00  0.00     0.000 HD 
ENDROOT
BRANCH   3  23
ATOM     23  CB  CYS B   1     -12.768  13.839  68.255  1.00  0.00     1.003 C  
ATOM     24  SG  CYS B   1     -12.499  13.089  66.589  1.00  0.00     0.384 SA 
ATOM     25  HG  CYS B   1     -13.017  13.834  65.535  1.00  0.00     0.000 H  
ENDBRANCH   3  23
BRANCH  10  26
ATOM     26  CB  CYS C   1      -8.662  14.647  69.294  1.00  0.00     0.037 C  
ATOM     27  SG  CYS C   1      -6.827  14.499  69.276  1.00  0.00    -0.141 SA 
ATOM     28  HG  CYS C   1      -6.227  13.671  70.217  1.00  0.00     0.000 H  
ENDBRANCH  10  26
TORSDOF 2
ENDMDL
MODEL      189
REMARK 921   NORMALIZED FREE ENERGY PREDICTED BY IDOCK:   23.88 KCAL/MOL
REMARK 922        TOTAL FREE ENERGY PREDICTED BY IDOCK:   27.25 KCAL/MOL
REMARK 923 INTER-LIGAND FREE ENERGY PREDICTED BY IDOCK:   25.68 KCAL/MOL
REMARK 924 INTRA-LIGAND FREE ENERGY PREDICTED BY IDOCK:    1.57 KCAL/MOL
REMARK 927      BINDING AFFINITY PREDICTED BY RF-SCORE:    0.00 PKD
ROOT
HETATM    1 FE   UNL     1     -10.729   1.661  63.451  1.00  0.00    -0.109 Fe 
ATOM      2  N   GLY A   1      -6.692   7.146  67.440  1.00  0.00    -0.065 NA 
ATOM      3  CA  CYS B   1     -11.287   5.311  66.906  1.00  0.00     1.279 C  
ATOM      4  CA  GLY A   1      -6.128   7.268  66.085  1.00  0.00    -0.037 C  
ATOM      5  H2  GLY A   1      -5.990   6.851  68.117  1.00  0.00     0.000 HD 
ATOM      6  H1  GLY A   1      -7.145   8.016  67.718  1.00  0.00     0.000 HD 
ATOM      7  OXT CYS C   1      -8.712   7.487  63.471  1.00  0.00     0.364 OA 
ATOM      8  C   GLY A   1      -5.445   5.957  65.664  1.00  0.00    -0.013 C  
ATOM      9  C   CYS B   1     -10.578   3.921  67.052  1.00  0.00     1.497 C  
ATOM     10  CA  CYS C   1      -8.815   5.123  63.757  1.00  0.00     0.025 C  
ATOM     11  N   CYS B   1     -12.198   5.358  68.085  1.00  0.00     4.965 NA 
ATOM     12  H2  CYS C   1      -8.034   4.258  65.541  1.00  0.00     0.000 HD 
ATOM     13  N   CYS C   1      -8.459   5.120  65.201  1.00  0.00    -0.141 NA 
ATOM     14  C   CYS C   1      -9.522   6.512  63.479  1.00  0.00     2.543 C  
ATOM     15  H2  CYS B   1     -12.800   6.182  68.089  1.00  0.00     0.000 HD 
ATOM     16  H1  CYS B   1     -12.722   4.483  68.105  1.00  0.00     0.000 HD 
ATOM     17  O   CYS B   1     -11.520   2.942  67.334  1.00  0.00     7.899 OA 
ATOM     18  O   CYS C   1     -10.791   6.493  63.488  1.00  0.00     8.378 OA 
ATOM     19  OXT GLY A   1      -5.181   5.030  66.417  1.00  0.00    -0.008 OA 
ATOM     20  O   GLY A   1      -5.197   5.881  64.333  1.00  0.00    -0.015 OA 
ATOM     21  OXT CYS B   1      -9.423   3.505  66.991  1.00  0.00    -0.197 OA 
ATOM     22  H1  CYS C   1      -7.872   5.951  65.271  1.00  0.00     0.000 HD 
ENDROOT
BRANCH   3  23
ATOM     23  CB  CYS B   1     -10.495   6.635  66.877  1.00  0.00    -0.279 C  
ATOM     24  SG  CYS B   1      -9.649   7.052  68.465  1.00  0.00    -0.137 SA 
ATOM     25  HG  CYS B   1      -8.935   8.244  68.438  1.00  0.00     0.000 H  
ENDBRANCH   3  23
BRANCH  10  26
ATOM     26  CB  CYS C   1      -9.688   3.888  63.653  1.00  0.00    -0.162 C  
ATOM     27  SG  CYS C   1      -8.929   2.254  64.033  1.00  0.00    -0.105 SA 
ATOM     28  HG  CYS C   1      -9.729   1.122  63.937  1.00  0.00     0.000 H  
ENDBRANCH  10  26
TORSDOF 2
ENDMDL
MODEL      190
REMARK 921   NORMALIZED FREE ENERGY PREDICTED BY IDOCK:   29.26 KCAL/MOL
REMARK 922        TOTAL FREE ENERGY PREDICTED BY IDOCK:   33.25 KCAL/MOL
REMARK 923 INTER-LIGAND FREE ENERGY PREDICTED BY IDOCK:   25.18 KCAL/MOL
REMARK 924 INTRA-LIGAND FREE ENERGY PREDICTED BY IDOCK:    8.08 KCAL/MOL
REMARK 927      BINDING AFFINITY PREDICTED BY RF-SCORE:    0.00 PKD
ROOT
HETATM    1 FE   UNL     1     -10.187  19.368  73.011  1.00  0.00     0.065 Fe 
ATOM      2  N   GLY A   1      -9.259  16.591  65.682  1.00  0.00    -0.448 NA 
ATOM      3  CA  CYS B   1      -6.650  18.304  69.559  1.00  0.00    -0.155 C  
ATOM      4  CA  GLY A   1     -10.423  17.481  65.534  1.00  0.00    -0.068 C  
ATOM      5  H2  GLY A   1      -9.497  15.619  65.485  1.00  0.00     0.000 HD 
ATOM      6  H1  GLY A   1      -8.484  16.916  65.104  1.00  0.00     0.000 HD 
ATOM      7  OXT CYS C   1      -9.888  20.804  67.024  1.00  0.00    -0.427 OA 
ATOM      8  C   GLY A   1     -11.592  16.991  66.405  1.00  0.00     1.497 C  
ATOM      9  C   CYS B   1      -7.539  17.316  70.391  1.00  0.00     2.794 C  
ATOM     10  CA  CYS C   1     -10.384  19.670  69.061  1.00  0.00    -0.125 C  
ATOM     11  N   CYS B   1      -5.270  17.776  69.758  1.00  0.00    -0.187 NA 
ATOM     12  H2  CYS C   1     -10.228  17.547  69.132  1.00  0.00     0.000 HD 
ATOM     13  N   CYS C   1      -9.830  18.353  68.651  1.00  0.00    -0.364 NA 
ATOM     14  C   CYS C   1      -9.573  20.762  68.250  1.00  0.00     0.321 C  
ATOM     15  H2  CYS B   1      -4.554  18.368  69.337  1.00  0.00     0.000 HD 
ATOM     16  H1  CYS B   1      -5.135  17.639  70.760  1.00  0.00     0.000 HD 
ATOM     17  O   CYS B   1      -6.968  17.111  71.638  1.00  0.00     4.587 OA 
ATOM     18  O   CYS C   1      -8.611  21.306  68.875  1.00  0.00     2.006 OA 
ATOM     19  OXT GLY A   1     -11.651  15.898  66.950  1.00  0.00     0.127 OA 
ATOM     20  O   GLY A   1     -12.565  17.921  66.574  1.00  0.00     5.430 OA 
ATOM     21  OXT CYS B   1      -8.580  16.691  70.204  1.00  0.00     1.257 OA 
ATOM     22  H1  CYS C   1      -9.977  18.372  67.641  1.00  0.00     0.000 HD 
ENDROOT
BRANCH   3  23
ATOM     23  CB  CYS B   1      -6.854  18.511  68.044  1.00  0.00    -0.221 C  
ATOM     24  SG  CYS B   1      -5.296  18.475  67.052  1.00  0.00    -0.129 SA 
ATOM     25  HG  CYS B   1      -5.481  18.661  65.687  1.00  0.00     0.000 H  
ENDBRANCH   3  23
BRANCH  10  26
ATOM     26  CB  CYS C   1     -10.167  19.643  70.560  1.00  0.00     1.292 C  
ATOM     27  SG  CYS C   1      -8.872  18.516  71.228  1.00  0.00     7.924 SA 
ATOM     28  HG  CYS C   1      -8.673  18.490  72.603  1.00  0.00     0.000 H  
ENDBRANCH  10  26
TORSDOF 2
ENDMDL
MODEL      191
REMARK 921   NORMALIZED FREE ENERGY PREDICTED BY IDOCK:   59.22 KCAL/MOL
REMARK 922        TOTAL FREE ENERGY PREDICTED BY IDOCK:   66.72 KCAL/MOL
REMARK 923 INTER-LIGAND FREE ENERGY PREDICTED BY IDOCK:   65.72 KCAL/MOL
REMARK 924 INTRA-LIGAND FREE ENERGY PREDICTED BY IDOCK:    1.01 KCAL/MOL
REMARK 927      BINDING AFFINITY PREDICTED BY RF-SCORE:    0.00 PKD
ROOT
HETATM    1 FE   UNL     1      -9.628  13.552  67.699  1.00  0.00    -0.187 Fe 
ATOM      2  N   GLY A   1     -10.596  18.663  73.633  1.00  0.00     2.159 NA 
ATOM      3  CA  CYS B   1     -11.509  13.935  72.377  1.00  0.00     2.293 C  
ATOM      4  CA  GLY A   1     -10.933  19.484  72.457  1.00  0.00     5.499 C  
ATOM      5  H2  GLY A   1      -9.774  19.020  74.121  1.00  0.00     0.000 HD 
ATOM      6  H1  GLY A   1     -11.400  18.582  74.255  1.00  0.00     0.000 HD 
ATOM      7  OXT CYS C   1     -13.310  17.825  70.187  1.00  0.00    12.234 OA 
ATOM      8  C   GLY A   1      -9.721  19.606  71.519  1.00  0.00     2.876 C  
ATOM      9  C   CYS B   1     -10.010  13.934  71.918  1.00  0.00     7.675 C  
ATOM     10  CA  CYS C   1     -11.366  16.662  69.442  1.00  0.00     0.020 C  
ATOM     11  N   CYS B   1     -11.537  12.918  73.465  1.00  0.00     6.397 NA 
ATOM     12  H2  CYS C   1      -9.639  16.621  70.689  1.00  0.00     0.000 HD 
ATOM     13  N   CYS C   1     -10.655  16.685  70.748  1.00  0.00     0.513 NA 
ATOM     14  C   CYS C   1     -12.913  16.692  69.781  1.00  0.00     3.692 C  
ATOM     15  H2  CYS B   1     -12.477  12.741  73.819  1.00  0.00     0.000 HD 
ATOM     16  H1  CYS B   1     -11.080  12.077  73.112  1.00  0.00     0.000 HD 
ATOM     17  O   CYS B   1      -9.571  12.627  71.759  1.00  0.00    13.224 OA 
ATOM     18  O   CYS C   1     -13.495  15.564  69.783  1.00  0.00     0.410 OA 
ATOM     19  OXT GLY A   1      -8.575  19.290  71.807  1.00  0.00     4.646 OA 
ATOM     20  O   GLY A   1     -10.041  20.059  70.281  1.00  0.00     0.164 OA 
ATOM     21  OXT CYS B   1      -9.155  14.785  71.685  1.00  0.00     3.247 OA 
ATOM     22  H1  CYS C   1     -11.013  17.546  71.164  1.00  0.00     0.000 HD 
ENDROOT
BRANCH   3  23
ATOM     23  CB  CYS B   1     -12.200  15.207  72.911  1.00  0.00    -0.386 C  
ATOM     24  SG  CYS B   1     -13.966  14.967  73.398  1.00  0.00     1.719 SA 
ATOM     25  HG  CYS B   1     -14.588  16.113  73.880  1.00  0.00     0.000 H  
ENDBRANCH   3  23
BRANCH  10  26
ATOM     26  CB  CYS C   1     -10.835  15.384  68.825  1.00  0.00    -0.252 C  
ATOM     27  SG  CYS C   1      -9.826  15.516  67.291  1.00  0.00    -0.225 SA 
ATOM     28  HG  CYS C   1      -9.338  14.345  66.725  1.00  0.00     0.000 H  
ENDBRANCH  10  26
TORSDOF 2
ENDMDL
