MODEL        1
REMARK 921   NORMALIZED FREE ENERGY PREDICTED BY IDOCK:   -6.95 KCAL/MOL
REMARK 922        TOTAL FREE ENERGY PREDICTED BY IDOCK:   25.76 KCAL/MOL
REMARK 923 INTER-LIGAND FREE ENERGY PREDICTED BY IDOCK:   -8.57 KCAL/MOL
REMARK 924 INTRA-LIGAND FREE ENERGY PREDICTED BY IDOCK:   34.33 KCAL/MOL
REMARK 927      BINDING AFFINITY PREDICTED BY RF-SCORE:    0.00 PKD
ROOT
HETATM    1 FE   UNL     1     -10.093  12.024  67.693  1.00  0.00    -0.179 Fe 
HETATM    2  C   UNL     2      -9.679  18.221  67.976  1.00  0.00    -0.312 C  
HETATM    3  O   UNL     2     -10.476  18.254  69.212  1.00  0.00    -0.426 OA 
HETATM    4  C   UNL     3     -11.346  15.323  68.849  1.00  0.00    -0.305 C  
HETATM    5  H   UNL     3     -11.671  17.163  68.715  1.00  0.00     0.000 HD 
HETATM    6  H   UNL     2     -11.369  18.228  68.890  1.00  0.00     0.000 HD 
HETATM    7  O   UNL     3     -12.158  16.452  69.114  1.00  0.00    -0.033 OA 
ENDROOT
BRANCH   2   8
HETATM    8  C   UNL     2      -9.839  16.861  67.305  1.00  0.00    -0.265 C  
HETATM    9  H   UNL     2      -8.218  12.815  67.849  1.00  0.00     0.000 HD 
HETATM   10  H   UNL     2      -8.636  14.130  69.394  1.00  0.00     0.000 HD 
HETATM   11  C   UNL     2      -9.344  14.110  66.923  1.00  0.00    -0.264 C  
HETATM   12  O   UNL     2      -9.965  16.683  65.388  1.00  0.00    -0.565 OA 
HETATM   13  O   UNL     2     -10.351  13.805  64.574  1.00  0.00    -0.510 OA 
HETATM   14  O   UNL     2      -8.775  15.015  69.079  1.00  0.00    -0.193 OA 
HETATM   15  C   UNL     2      -9.673  14.705  65.176  1.00  0.00     0.038 C  
HETATM   16  H   UNL     2     -10.213  12.871  64.474  1.00  0.00     0.000 HD 
HETATM   17  O   UNL     2      -8.385  13.116  66.963  1.00  0.00    -0.166 OA 
HETATM   18  C   UNL     2      -9.560  15.081  67.938  1.00  0.00    -0.203 C  
ENDBRANCH   2   8
BRANCH   2  19
HETATM   19  C   UNL     2      -8.232  18.263  68.498  1.00  0.00    -0.312 C  
HETATM   20  H   UNL     2      -6.448  17.732  67.860  1.00  0.00     0.000 HD 
HETATM   21  O   UNL     2      -7.341  17.706  67.537  1.00  0.00    -0.184 OA 
ENDBRANCH   2  19
BRANCH   4  22
HETATM   22  C   UNL     3     -10.760  15.112  67.119  1.00  0.00    -0.310 C  
HETATM   23  H   UNL     3     -11.550  17.161  63.547  1.00  0.00     0.000 HD 
HETATM   24  C   UNL     3     -12.153  14.570  64.377  1.00  0.00    -0.472 C  
HETATM   25  O   UNL     3     -11.629  13.459  67.015  1.00  0.00    -0.320 OA 
HETATM   26  O   UNL     3     -12.529  11.979  65.166  1.00  0.00    -0.425 OA 
HETATM   27  C   UNL     3     -11.402  15.739  65.047  1.00  0.00    -0.220 C  
HETATM   28  O   UNL     3     -12.457  14.362  63.162  1.00  0.00    -0.482 OA 
HETATM   29  O   UNL     3     -11.280  16.897  64.418  1.00  0.00    -1.159 OA 
HETATM   30  C   UNL     3     -12.360  13.147  65.521  1.00  0.00    -0.474 C  
ENDBRANCH   4  22
BRANCH   4  31
HETATM   31  C   UNL     3     -12.137  14.172  69.496  1.00  0.00    -0.340 C  
HETATM   32  O   UNL     3     -11.294  13.061  69.870  1.00  0.00    -0.488 OA 
HETATM   33  H   UNL     3     -11.782  12.351  70.269  1.00  0.00     0.000 HD 
ENDBRANCH   4  31
TORSDOF 4
ENDMDL
MODEL        2
REMARK 921   NORMALIZED FREE ENERGY PREDICTED BY IDOCK:   -6.20 KCAL/MOL
REMARK 922        TOTAL FREE ENERGY PREDICTED BY IDOCK:   26.68 KCAL/MOL
REMARK 923 INTER-LIGAND FREE ENERGY PREDICTED BY IDOCK:   -7.79 KCAL/MOL
REMARK 924 INTRA-LIGAND FREE ENERGY PREDICTED BY IDOCK:   34.46 KCAL/MOL
REMARK 927      BINDING AFFINITY PREDICTED BY RF-SCORE:    0.00 PKD
ROOT
HETATM    1 FE   UNL     1     -10.779  10.306  66.117  1.00  0.00    -0.231 Fe 
HETATM    2  C   UNL     2      -9.033  15.460  69.126  1.00  0.00    -0.245 C  
HETATM    3  O   UNL     2      -9.781  15.056  70.326  1.00  0.00    -0.458 OA 
HETATM    4  C   UNL     3     -11.269  12.849  68.780  1.00  0.00    -0.279 C  
HETATM    5  H   UNL     3     -11.192  14.562  69.532  1.00  0.00     0.000 HD 
HETATM    6  H   UNL     2     -10.665  15.347  70.134  1.00  0.00     0.000 HD 
HETATM    7  O   UNL     3     -11.814  13.850  69.620  1.00  0.00    -0.286 OA 
ENDROOT
BRANCH   2   8
HETATM    8  C   UNL     2      -9.495  14.626  67.935  1.00  0.00    -0.210 C  
HETATM    9  H   UNL     2      -8.760  10.583  66.384  1.00  0.00     0.000 HD 
HETATM   10  H   UNL     2      -8.852  11.071  68.395  1.00  0.00     0.000 HD 
HETATM   11  C   UNL     2      -9.606  12.337  66.290  1.00  0.00    -0.242 C  
HETATM   12  O   UNL     2      -9.702  15.394  66.177  1.00  0.00    -0.271 OA 
HETATM   13  O   UNL     2     -10.711  13.353  64.200  1.00  0.00    -0.505 OA 
HETATM   14  O   UNL     2      -8.807  12.009  68.535  1.00  0.00    -0.166 OA 
HETATM   15  C   UNL     2      -9.843  13.729  65.057  1.00  0.00    -0.052 C  
HETATM   16  H   UNL     2     -10.778  12.567  63.670  1.00  0.00     0.000 HD 
HETATM   17  O   UNL     2      -8.880  11.288  65.759  1.00  0.00    -0.196 OA 
HETATM   18  C   UNL     2      -9.586  12.740  67.653  1.00  0.00    -0.192 C  
ENDBRANCH   2   8
BRANCH   2  19
HETATM   19  C   UNL     2      -7.602  14.989  69.437  1.00  0.00    -0.195 C  
HETATM   20  H   UNL     2      -5.848  15.816  69.776  1.00  0.00     0.000 HD 
HETATM   21  O   UNL     2      -6.732  16.107  69.584  1.00  0.00    -0.203 OA 
ENDBRANCH   2  19
BRANCH   4  22
HETATM   22  C   UNL     3     -10.775  13.368  67.087  1.00  0.00    -0.268 C  
HETATM   23  H   UNL     3     -11.110  16.974  64.974  1.00  0.00     0.000 HD 
HETATM   24  C   UNL     3     -12.296  14.481  64.596  1.00  0.00    -0.403 C  
HETATM   25  O   UNL     3     -12.012  12.175  66.348  1.00  0.00    -0.611 OA 
HETATM   26  O   UNL     3     -13.262  11.961  64.155  1.00  0.00    -0.645 OA 
HETATM   27  C   UNL     3     -11.280  15.015  65.628  1.00  0.00    -0.327 C  
HETATM   28  O   UNL     3     -12.658  14.939  63.469  1.00  0.00    -0.567 OA 
HETATM   29  O   UNL     3     -10.897  16.282  65.587  1.00  0.00    -0.297 OA 
HETATM   30  C   UNL     3     -12.817  12.762  64.980  1.00  0.00    -0.233 C  
ENDBRANCH   4  22
BRANCH   4  31
HETATM   31  C   UNL     3     -12.278  11.694  68.923  1.00  0.00    -0.050 C  
HETATM   32  O   UNL     3     -11.759  10.440  68.432  1.00  0.00    -0.654 OA 
HETATM   33  H   UNL     3     -12.381   9.728  68.520  1.00  0.00     0.000 HD 
ENDBRANCH   4  31
TORSDOF 4
ENDMDL
MODEL        3
REMARK 921   NORMALIZED FREE ENERGY PREDICTED BY IDOCK:   -6.08 KCAL/MOL
REMARK 922        TOTAL FREE ENERGY PREDICTED BY IDOCK:   26.83 KCAL/MOL
REMARK 923 INTER-LIGAND FREE ENERGY PREDICTED BY IDOCK:   -7.65 KCAL/MOL
REMARK 924 INTRA-LIGAND FREE ENERGY PREDICTED BY IDOCK:   34.48 KCAL/MOL
REMARK 927      BINDING AFFINITY PREDICTED BY RF-SCORE:    0.00 PKD
ROOT
HETATM    1 FE   UNL     1      -7.509  13.804  66.289  1.00  0.00    -0.231 Fe 
HETATM    2  C   UNL     2     -12.161  11.565  69.754  1.00  0.00    -0.306 C  
HETATM    3  O   UNL     2     -12.652  10.750  68.633  1.00  0.00    -0.669 OA 
HETATM    4  C   UNL     3     -10.867  12.254  66.625  1.00  0.00    -0.258 C  
HETATM    5  H   UNL     3     -12.525  11.945  67.440  1.00  0.00     0.000 HD 
HETATM    6  H   UNL     2     -13.182  11.365  68.139  1.00  0.00     0.000 HD 
HETATM    7  O   UNL     3     -12.252  11.978  66.531  1.00  0.00    -0.548 OA 
ENDROOT
BRANCH   2   8
HETATM    8  C   UNL     2     -11.193  12.621  69.229  1.00  0.00    -0.255 C  
HETATM    9  H   UNL     2      -6.970  12.771  68.028  1.00  0.00     0.000 HD 
HETATM   10  H   UNL     2      -8.222  11.151  67.717  1.00  0.00     0.000 HD 
HETATM   11  C   UNL     2      -8.710  13.603  68.316  1.00  0.00    -0.171 C  
HETATM   12  O   UNL     2     -11.188  14.424  69.913  1.00  0.00    -0.244 OA 
HETATM   13  O   UNL     2      -9.148  16.132  68.493  1.00  0.00    -0.192 OA 
HETATM   14  O   UNL     2      -9.022  11.219  68.224  1.00  0.00    -0.158 OA 
HETATM   15  C   UNL     2      -9.439  15.097  69.181  1.00  0.00    -0.221 C  
HETATM   16  H   UNL     2      -8.322  16.450  68.148  1.00  0.00     0.000 HD 
HETATM   17  O   UNL     2      -7.339  13.529  68.467  1.00  0.00    -0.103 OA 
HETATM   18  C   UNL     2      -9.583  12.485  68.210  1.00  0.00    -0.209 C  
ENDBRANCH   2   8
BRANCH   2  19
HETATM   19  C   UNL     2     -11.302  10.570  70.554  1.00  0.00    -0.314 C  
HETATM   20  H   UNL     2     -11.538   9.369  72.095  1.00  0.00     0.000 HD 
HETATM   21  O   UNL     2     -12.068   9.984  71.602  1.00  0.00    -0.387 OA 
ENDBRANCH   2  19
BRANCH   4  22
HETATM   22  C   UNL     3     -10.372  13.635  67.734  1.00  0.00    -0.241 C  
HETATM   23  H   UNL     3     -12.539  16.471  69.935  1.00  0.00     0.000 HD 
HETATM   24  C   UNL     3     -10.840  16.724  67.740  1.00  0.00    -0.285 C  
HETATM   25  O   UNL     3      -9.595  14.532  66.287  1.00  0.00    -0.286 OA 
HETATM   26  O   UNL     3      -9.003  16.930  65.725  1.00  0.00    -0.524 OA 
HETATM   27  C   UNL     3     -11.296  15.513  68.581  1.00  0.00    -0.344 C  
HETATM   28  O   UNL     3     -10.881  17.969  67.982  1.00  0.00    -0.336 OA 
HETATM   29  O   UNL     3     -12.150  15.682  69.578  1.00  0.00    -0.360 OA 
HETATM   30  C   UNL     3      -9.819  16.209  66.302  1.00  0.00    -0.307 C  
ENDBRANCH   4  22
BRANCH   4  31
HETATM   31  C   UNL     3     -10.426  12.309  65.151  1.00  0.00    -0.288 C  
HETATM   32  O   UNL     3      -9.061  11.881  64.964  1.00  0.00    -0.415 OA 
HETATM   33  H   UNL     3      -8.789  11.915  64.055  1.00  0.00     0.000 HD 
ENDBRANCH   4  31
TORSDOF 4
ENDMDL
MODEL        4
REMARK 921   NORMALIZED FREE ENERGY PREDICTED BY IDOCK:   -6.04 KCAL/MOL
REMARK 922        TOTAL FREE ENERGY PREDICTED BY IDOCK:   26.88 KCAL/MOL
REMARK 923 INTER-LIGAND FREE ENERGY PREDICTED BY IDOCK:   -7.89 KCAL/MOL
REMARK 924 INTRA-LIGAND FREE ENERGY PREDICTED BY IDOCK:   34.77 KCAL/MOL
REMARK 927      BINDING AFFINITY PREDICTED BY RF-SCORE:    0.00 PKD
ROOT
HETATM    1 FE   UNL     1      -9.145  12.829  68.793  1.00  0.00    -0.173 Fe 
HETATM    2  C   UNL     2     -10.041  18.463  66.319  1.00  0.00    -0.392 C  
HETATM    3  O   UNL     2     -10.544  18.985  67.599  1.00  0.00    -0.429 OA 
HETATM    4  C   UNL     3     -10.811  16.149  68.766  1.00  0.00    -0.310 C  
HETATM    5  H   UNL     3     -11.550  17.676  67.973  1.00  0.00     0.000 HD 
HETATM    6  H   UNL     2     -11.458  18.725  67.590  1.00  0.00     0.000 HD 
HETATM    7  O   UNL     3     -11.774  17.186  68.755  1.00  0.00     0.470 OA 
ENDROOT
BRANCH   2   8
HETATM    8  C   UNL     2     -10.041  16.938  66.357  1.00  0.00    -0.331 C  
HETATM    9  H   UNL     2      -7.480  13.782  68.024  1.00  0.00     0.000 HD 
HETATM   10  H   UNL     2      -7.825  15.614  68.927  1.00  0.00     0.000 HD 
HETATM   11  C   UNL     2      -9.043  14.385  67.027  1.00  0.00    -0.236 C  
HETATM   12  O   UNL     2     -10.549  15.883  64.824  1.00  0.00    -0.562 OA 
HETATM   13  O   UNL     2     -10.456  12.933  65.440  1.00  0.00    -0.282 OA 
HETATM   14  O   UNL     2      -8.224  16.235  68.330  1.00  0.00    -0.163 OA 
HETATM   15  C   UNL     2      -9.879  14.070  65.379  1.00  0.00    -0.185 C  
HETATM   16  H   UNL     2     -10.139  12.077  65.703  1.00  0.00     0.000 HD 
HETATM   17  O   UNL     2      -7.903  13.622  67.189  1.00  0.00    -0.129 OA 
HETATM   18  C   UNL     2      -9.238  15.690  67.559  1.00  0.00    -0.201 C  
ENDBRANCH   2   8
BRANCH   2  19
HETATM   19  C   UNL     2      -8.561  18.883  66.332  1.00  0.00    -0.294 C  
HETATM   20  H   UNL     2      -6.886  18.307  65.476  1.00  0.00     0.000 HD 
HETATM   21  O   UNL     2      -7.800  18.047  65.467  1.00  0.00    -0.451 OA 
ENDBRANCH   2  19
BRANCH   4  22
HETATM   22  C   UNL     3     -10.576  15.221  67.196  1.00  0.00    -0.302 C  
HETATM   23  H   UNL     3     -12.628  15.192  63.540  1.00  0.00     0.000 HD 
HETATM   24  C   UNL     3     -12.332  13.255  65.521  1.00  0.00    -0.480 C  
HETATM   25  O   UNL     3     -10.979  13.618  68.071  1.00  0.00    -0.240 OA 
HETATM   26  O   UNL     3     -11.831  11.329  67.397  1.00  0.00    -0.590 OA 
HETATM   27  C   UNL     3     -11.790  14.692  65.368  1.00  0.00    -0.304 C  
HETATM   28  O   UNL     3     -12.823  12.454  64.667  1.00  0.00    -0.714 OA 
HETATM   29  O   UNL     3     -12.117  15.415  64.309  1.00  0.00    -0.502 OA 
HETATM   30  C   UNL     3     -11.905  12.536  67.157  1.00  0.00    -0.316 C  
ENDBRANCH   4  22
BRANCH   4  31
HETATM   31  C   UNL     3     -11.175  15.355  70.034  1.00  0.00    -0.300 C  
HETATM   32  O   UNL     3     -12.594  15.351  70.298  1.00  0.00    -0.472 OA 
HETATM   33  H   UNL     3     -12.818  14.862  71.080  1.00  0.00     0.000 HD 
ENDBRANCH   4  31
TORSDOF 4
ENDMDL
MODEL        5
REMARK 921   NORMALIZED FREE ENERGY PREDICTED BY IDOCK:   -6.03 KCAL/MOL
REMARK 922        TOTAL FREE ENERGY PREDICTED BY IDOCK:   26.89 KCAL/MOL
REMARK 923 INTER-LIGAND FREE ENERGY PREDICTED BY IDOCK:   -7.53 KCAL/MOL
REMARK 924 INTRA-LIGAND FREE ENERGY PREDICTED BY IDOCK:   34.43 KCAL/MOL
REMARK 927      BINDING AFFINITY PREDICTED BY RF-SCORE:    0.00 PKD
ROOT
HETATM    1 FE   UNL     1      -7.588  12.929  66.107  1.00  0.00    -0.339 Fe 
HETATM    2  C   UNL     2     -12.514  14.452  69.582  1.00  0.00    -0.165 C  
HETATM    3  O   UNL     2     -12.254  13.336  70.504  1.00  0.00    -0.354 OA 
HETATM    4  C   UNL     3     -10.245  12.059  68.552  1.00  0.00    -0.212 C  
HETATM    5  H   UNL     3     -11.948  12.162  69.323  1.00  0.00     0.000 HD 
HETATM    6  H   UNL     2     -12.665  12.599  70.066  1.00  0.00     0.000 HD 
HETATM    7  O   UNL     3     -11.336  11.444  69.213  1.00  0.00    -0.242 OA 
ENDROOT
BRANCH   2   8
HETATM    8  C   UNL     2     -11.725  14.241  68.294  1.00  0.00    -0.377 C  
HETATM    9  H   UNL     2      -7.574  14.786  66.962  1.00  0.00     0.000 HD 
HETATM   10  H   UNL     2      -8.127  14.181  68.864  1.00  0.00     0.000 HD 
HETATM   11  C   UNL     2      -9.431  14.278  66.651  1.00  0.00    -0.286 C  
HETATM   12  O   UNL     2     -12.464  14.678  66.566  1.00  0.00    -0.193 OA 
HETATM   13  O   UNL     2     -10.540  14.002  64.345  1.00  0.00    -0.588 OA 
HETATM   14  O   UNL     2      -9.052  14.323  69.027  1.00  0.00    -0.086 OA 
HETATM   15  C   UNL     2     -10.807  14.625  65.427  1.00  0.00    -0.356 C  
HETATM   16  H   UNL     2      -9.757  13.977  63.807  1.00  0.00     0.000 HD 
HETATM   17  O   UNL     2      -8.272  14.962  66.341  1.00  0.00     0.061 OA 
HETATM   18  C   UNL     2      -9.865  13.956  67.966  1.00  0.00    -0.234 C  
ENDBRANCH   2   8
BRANCH   2  19
HETATM   19  C   UNL     2     -11.850  15.645  70.290  1.00  0.00    -0.365 C  
HETATM   20  H   UNL     2     -12.151  16.713  71.916  1.00  0.00     0.000 HD 
HETATM   21  O   UNL     2     -12.562  15.976  71.478  1.00  0.00    -0.447 OA 
ENDBRANCH   2  19
BRANCH   4  22
HETATM   22  C   UNL     3     -10.642  13.096  67.087  1.00  0.00    -0.259 C  
HETATM   23  H   UNL     3     -14.204  13.934  65.040  1.00  0.00     0.000 HD 
HETATM   24  C   UNL     3     -11.907  12.549  64.284  1.00  0.00    -0.395 C  
HETATM   25  O   UNL     3      -9.629  11.963  65.997  1.00  0.00    -0.229 OA 
HETATM   26  O   UNL     3      -9.549  11.386  63.531  1.00  0.00    -0.277 OA 
HETATM   27  C   UNL     3     -12.309  13.289  65.577  1.00  0.00    -0.480 C  
HETATM   28  O   UNL     3     -12.385  12.603  63.110  1.00  0.00    -0.537 OA 
HETATM   29  O   UNL     3     -13.503  13.853  65.675  1.00  0.00    -0.590 OA 
HETATM   30  C   UNL     3     -10.295  11.687  64.466  1.00  0.00    -0.300 C  
ENDBRANCH   4  22
BRANCH   4  31
HETATM   31  C   UNL     3      -9.252  10.895  68.374  1.00  0.00    -0.168 C  
HETATM   32  O   UNL     3      -7.890  11.347  68.221  1.00  0.00    -0.117 OA 
HETATM   33  H   UNL     3      -7.277  10.629  68.111  1.00  0.00     0.000 HD 
ENDBRANCH   4  31
TORSDOF 4
ENDMDL
MODEL        6
REMARK 921   NORMALIZED FREE ENERGY PREDICTED BY IDOCK:   -5.84 KCAL/MOL
REMARK 922        TOTAL FREE ENERGY PREDICTED BY IDOCK:   27.12 KCAL/MOL
REMARK 923 INTER-LIGAND FREE ENERGY PREDICTED BY IDOCK:   -7.33 KCAL/MOL
REMARK 924 INTRA-LIGAND FREE ENERGY PREDICTED BY IDOCK:   34.45 KCAL/MOL
REMARK 927      BINDING AFFINITY PREDICTED BY RF-SCORE:    0.00 PKD
ROOT
HETATM    1 FE   UNL     1      -8.740  12.137  65.452  1.00  0.00    -0.377 Fe 
HETATM    2  C   UNL     2     -10.414  17.239  68.587  1.00  0.00    -0.356 C  
HETATM    3  O   UNL     2      -9.039  17.438  69.068  1.00  0.00    -0.203 OA 
HETATM    4  C   UNL     3      -8.206  14.615  68.166  1.00  0.00    -0.142 C  
HETATM    5  H   UNL     3      -8.735  15.827  69.492  1.00  0.00     0.000 HD 
HETATM    6  H   UNL     2      -8.994  16.866  69.826  1.00  0.00     0.000 HD 
HETATM    7  O   UNL     3      -8.000  15.229  69.425  1.00  0.00    -0.205 OA 
ENDROOT
BRANCH   2   8
HETATM    8  C   UNL     2     -10.562  15.820  68.045  1.00  0.00    -0.279 C  
HETATM    9  H   UNL     2      -9.560  13.693  64.335  1.00  0.00     0.000 HD 
HETATM   10  H   UNL     2      -8.410  15.199  65.173  1.00  0.00     0.000 HD 
HETATM   11  C   UNL     2     -10.313  13.762  66.133  1.00  0.00    -0.301 C  
HETATM   12  O   UNL     2     -12.153  14.775  68.357  1.00  0.00    -0.272 OA 
HETATM   13  O   UNL     2     -11.914  12.022  67.150  1.00  0.00    -0.601 OA 
HETATM   14  O   UNL     2      -8.884  15.676  65.843  1.00  0.00    -0.279 OA 
HETATM   15  C   UNL     2     -11.894  13.293  67.023  1.00  0.00    -0.390 C  
HETATM   16  H   UNL     2     -11.791  11.322  66.519  1.00  0.00     0.000 HD 
HETATM   17  O   UNL     2     -10.362  13.455  64.786  1.00  0.00    -0.378 OA 
HETATM   18  C   UNL     2      -9.609  14.861  66.697  1.00  0.00    -0.266 C  
ENDBRANCH   2   8
BRANCH   2  19
HETATM   19  C   UNL     2     -10.487  18.165  67.361  1.00  0.00    -0.399 C  
HETATM   20  H   UNL     2     -10.762  20.083  67.011  1.00  0.00     0.000 HD 
HETATM   21  O   UNL     2     -10.717  19.510  67.768  1.00  0.00    -0.446 OA 
ENDBRANCH   2  19
BRANCH   4  22
HETATM   22  C   UNL     3      -9.892  13.965  67.828  1.00  0.00    -0.237 C  
HETATM   23  H   UNL     3     -13.362  13.623  70.158  1.00  0.00     0.000 HD 
HETATM   24  C   UNL     3     -11.665  11.705  69.057  1.00  0.00    -0.324 C  
HETATM   25  O   UNL     3      -9.196  12.242  67.613  1.00  0.00    -0.172 OA 
HETATM   26  O   UNL     3     -10.086   9.876  67.778  1.00  0.00    -0.162 OA 
HETATM   27  C   UNL     3     -11.677  13.248  69.010  1.00  0.00    -0.322 C  
HETATM   28  O   UNL     3     -12.573  10.874  69.365  1.00  0.00    -0.335 OA 
HETATM   29  O   UNL     3     -12.611  13.924  69.660  1.00  0.00    -0.238 OA 
HETATM   30  C   UNL     3     -10.168  11.011  68.250  1.00  0.00    -0.176 C  
ENDBRANCH   4  22
BRANCH   4  31
HETATM   31  C   UNL     3      -7.016  13.644  68.059  1.00  0.00    -0.135 C  
HETATM   32  O   UNL     3      -6.787  13.194  66.707  1.00  0.00    -0.338 OA 
HETATM   33  H   UNL     3      -6.053  12.595  66.641  1.00  0.00     0.000 HD 
ENDBRANCH   4  31
TORSDOF 4
ENDMDL
MODEL        7
REMARK 921   NORMALIZED FREE ENERGY PREDICTED BY IDOCK:   -5.83 KCAL/MOL
REMARK 922        TOTAL FREE ENERGY PREDICTED BY IDOCK:   27.13 KCAL/MOL
REMARK 923 INTER-LIGAND FREE ENERGY PREDICTED BY IDOCK:   -7.53 KCAL/MOL
REMARK 924 INTRA-LIGAND FREE ENERGY PREDICTED BY IDOCK:   34.66 KCAL/MOL
REMARK 927      BINDING AFFINITY PREDICTED BY RF-SCORE:    0.00 PKD
ROOT
HETATM    1 FE   UNL     1     -13.228  14.823  67.314  1.00  0.00    -0.470 Fe 
HETATM    2  C   UNL     2      -7.044  14.747  67.960  1.00  0.00    -0.138 C  
HETATM    3  O   UNL     2      -6.925  16.066  67.321  1.00  0.00    -0.171 OA 
HETATM    4  C   UNL     3      -9.834  15.957  66.319  1.00  0.00    -0.302 C  
HETATM    5  H   UNL     3      -7.991  15.771  66.040  1.00  0.00     0.000 HD 
HETATM    6  H   UNL     2      -6.931  15.856  66.395  1.00  0.00     0.000 HD 
HETATM    7  O   UNL     3      -8.664  16.261  65.582  1.00  0.00    -0.329 OA 
ENDROOT
BRANCH   2   8
HETATM    8  C   UNL     2      -8.426  14.168  67.675  1.00  0.00    -0.189 C  
HETATM    9  H   UNL     2     -12.491  14.664  69.265  1.00  0.00     0.000 HD 
HETATM   10  H   UNL     2     -11.100  16.190  69.100  1.00  0.00     0.000 HD 
HETATM   11  C   UNL     2     -11.204  13.846  68.048  1.00  0.00    -0.271 C  
HETATM   12  O   UNL     2      -8.681  12.298  67.274  1.00  0.00    -0.172 OA 
HETATM   13  O   UNL     2     -11.578  11.680  66.711  1.00  0.00    -0.503 OA 
HETATM   14  O   UNL     2     -10.226  15.857  68.937  1.00  0.00    -0.207 OA 
HETATM   15  C   UNL     2     -10.674  12.138  67.488  1.00  0.00    -0.232 C  
HETATM   16  H   UNL     2     -12.520  11.605  66.812  1.00  0.00     0.000 HD 
HETATM   17  O   UNL     2     -12.223  13.798  68.980  1.00  0.00    -0.343 OA 
HETATM   18  C   UNL     2     -10.185  14.837  68.001  1.00  0.00    -0.226 C  
ENDBRANCH   2   8
BRANCH   2  19
HETATM   19  C   UNL     2      -7.034  15.088  69.460  1.00  0.00    -0.187 C  
HETATM   20  H   UNL     2      -6.754  16.683  70.579  1.00  0.00     0.000 HD 
HETATM   21  O   UNL     2      -6.761  16.473  69.652  1.00  0.00    -0.218 OA 
ENDBRANCH   2  19
BRANCH   4  22
HETATM   22  C   UNL     3     -10.145  14.181  66.683  1.00  0.00    -0.275 C  
HETATM   23  H   UNL     3      -8.140  10.644  65.659  1.00  0.00     0.000 HD 
HETATM   24  C   UNL     3     -10.644  11.636  64.942  1.00  0.00    -0.296 C  
HETATM   25  O   UNL     3     -11.718  14.240  65.672  1.00  0.00    -0.343 OA 
HETATM   26  O   UNL     3     -13.168  12.563  64.446  1.00  0.00    -0.782 OA 
HETATM   27  C   UNL     3      -9.525  12.172  65.860  1.00  0.00    -0.179 C  
HETATM   28  O   UNL     3     -10.860  10.472  64.485  1.00  0.00    -0.008 OA 
HETATM   29  O   UNL     3      -8.401  11.489  66.005  1.00  0.00    -0.094 OA 
HETATM   30  C   UNL     3     -12.009  12.850  64.751  1.00  0.00    -0.396 C  
ENDBRANCH   4  22
BRANCH   4  31
HETATM   31  C   UNL     3     -10.924  16.751  65.576  1.00  0.00    -0.031 C  
HETATM   32  O   UNL     3     -10.934  16.485  64.158  1.00  0.00    -1.169 OA 
HETATM   33  H   UNL     3     -11.606  16.975  63.699  1.00  0.00     0.000 HD 
ENDBRANCH   4  31
TORSDOF 4
ENDMDL
MODEL        8
REMARK 921   NORMALIZED FREE ENERGY PREDICTED BY IDOCK:   -5.80 KCAL/MOL
REMARK 922        TOTAL FREE ENERGY PREDICTED BY IDOCK:   27.17 KCAL/MOL
REMARK 923 INTER-LIGAND FREE ENERGY PREDICTED BY IDOCK:   -7.66 KCAL/MOL
REMARK 924 INTRA-LIGAND FREE ENERGY PREDICTED BY IDOCK:   34.84 KCAL/MOL
REMARK 927      BINDING AFFINITY PREDICTED BY RF-SCORE:    0.00 PKD
ROOT
HETATM    1 FE   UNL     1      -9.853  16.467  66.838  1.00  0.00    -0.226 Fe 
HETATM    2  C   UNL     2     -10.808  10.861  64.322  1.00  0.00    -0.051 C  
HETATM    3  O   UNL     2     -11.657  11.439  63.269  1.00  0.00    -0.827 OA 
HETATM    4  C   UNL     3     -11.850  14.127  64.757  1.00  0.00    -0.417 C  
HETATM    5  H   UNL     3     -12.559  12.463  64.271  1.00  0.00     0.000 HD 
HETATM    6  H   UNL     2     -12.505  11.505  63.692  1.00  0.00     0.000 HD 
HETATM    7  O   UNL     3     -12.901  13.347  64.216  1.00  0.00    -0.637 OA 
ENDROOT
BRANCH   2   8
HETATM    8  C   UNL     2     -10.634  11.876  65.447  1.00  0.00    -0.315 C  
HETATM    9  H   UNL     2      -8.323  15.553  66.109  1.00  0.00     0.000 HD 
HETATM   10  H   UNL     2      -9.140  14.991  64.291  1.00  0.00     0.000 HD 
HETATM   11  C   UNL     2      -9.580  14.179  66.690  1.00  0.00    -0.289 C  
HETATM   12  O   UNL     2     -10.531  11.335  67.296  1.00  0.00    -0.197 OA 
HETATM   13  O   UNL     2     -10.269  13.718  69.126  1.00  0.00    -0.422 OA 
HETATM   14  O   UNL     2      -9.416  14.082  64.291  1.00  0.00     0.860 OA 
HETATM   15  C   UNL     2      -9.842  13.025  68.142  1.00  0.00    -0.228 C  
HETATM   16  H   UNL     2      -9.944  14.516  69.525  1.00  0.00     0.000 HD 
HETATM   17  O   UNL     2      -8.456  14.968  66.846  1.00  0.00    -0.224 OA 
HETATM   18  C   UNL     2     -10.080  13.704  65.447  1.00  0.00    -0.271 C  
ENDBRANCH   2   8
BRANCH   2  19
HETATM   19  C   UNL     2      -9.434  10.755  63.637  1.00  0.00    -0.291 C  
HETATM   20  H   UNL     2      -7.614  10.187  64.126  1.00  0.00     0.000 HD 
HETATM   21  O   UNL     2      -8.462  10.252  64.549  1.00  0.00    -0.168 OA 
ENDBRANCH   2  19
BRANCH   4  22
HETATM   22  C   UNL     3     -11.143  13.565  66.358  1.00  0.00    -0.311 C  
HETATM   23  H   UNL     3     -12.211  10.554  69.074  1.00  0.00     0.000 HD 
HETATM   24  C   UNL     3     -12.224  13.333  69.280  1.00  0.00    -0.147 C  
HETATM   25  O   UNL     3     -11.589  15.203  67.143  1.00  0.00    -0.311 OA 
HETATM   26  O   UNL     3     -12.015  16.051  69.492  1.00  0.00    -0.308 OA 
HETATM   27  C   UNL     3     -11.807  12.365  68.152  1.00  0.00    -0.315 C  
HETATM   28  O   UNL     3     -12.407  13.137  70.520  1.00  0.00    -0.344 OA 
HETATM   29  O   UNL     3     -11.931  11.058  68.320  1.00  0.00    -0.593 OA 
HETATM   30  C   UNL     3     -12.147  15.086  68.737  1.00  0.00    -0.180 C  
ENDBRANCH   4  22
BRANCH   4  31
HETATM   31  C   UNL     3     -12.406  15.560  64.669  1.00  0.00     0.110 C  
HETATM   32  O   UNL     3     -11.576  16.428  63.869  1.00  0.00    -1.564 OA 
HETATM   33  H   UNL     3     -11.918  17.312  63.815  1.00  0.00     0.000 HD 
ENDBRANCH   4  31
TORSDOF 4
ENDMDL
MODEL        9
REMARK 921   NORMALIZED FREE ENERGY PREDICTED BY IDOCK:   -5.67 KCAL/MOL
REMARK 922        TOTAL FREE ENERGY PREDICTED BY IDOCK:   27.33 KCAL/MOL
REMARK 923 INTER-LIGAND FREE ENERGY PREDICTED BY IDOCK:   -7.21 KCAL/MOL
REMARK 924 INTRA-LIGAND FREE ENERGY PREDICTED BY IDOCK:   34.54 KCAL/MOL
REMARK 927      BINDING AFFINITY PREDICTED BY RF-SCORE:    0.00 PKD
ROOT
HETATM    1 FE   UNL     1     -10.646  12.973  70.075  1.00  0.00    -0.431 Fe 
HETATM    2  C   UNL     2     -11.022  12.417  63.894  1.00  0.00    -0.414 C  
HETATM    3  O   UNL     2     -10.181  11.211  63.915  1.00  0.00    -0.300 OA 
HETATM    4  C   UNL     3      -9.337  11.727  66.830  1.00  0.00    -0.192 C  
HETATM    5  H   UNL     3      -9.010  11.797  64.988  1.00  0.00     0.000 HD 
HETATM    6  H   UNL     2      -9.300  11.567  63.930  1.00  0.00     0.000 HD 
HETATM    7  O   UNL     3      -8.511  11.446  65.716  1.00  0.00    -0.089 OA 
ENDROOT
BRANCH   2   8
HETATM    8  C   UNL     2     -10.892  13.150  65.225  1.00  0.00    -0.314 C  
HETATM    9  H   UNL     2     -12.546  12.743  69.274  1.00  0.00     0.000 HD 
HETATM   10  H   UNL     2     -12.078  11.153  68.032  1.00  0.00     0.000 HD 
HETATM   11  C   UNL     2     -11.427  13.639  67.952  1.00  0.00    -0.314 C  
HETATM   12  O   UNL     2     -10.812  15.075  65.321  1.00  0.00    -0.334 OA 
HETATM   13  O   UNL     2     -10.477  16.021  68.165  1.00  0.00    -0.252 OA 
HETATM   14  O   UNL     2     -11.936  11.433  67.135  1.00  0.00    -0.532 OA 
HETATM   15  C   UNL     2     -11.131  15.365  67.286  1.00  0.00    -0.302 C  
HETATM   16  H   UNL     2     -10.628  16.157  69.093  1.00  0.00     0.000 HD 
HETATM   17  O   UNL     2     -12.396  13.618  68.937  1.00  0.00    -0.276 OA 
HETATM   18  C   UNL     2     -11.177  12.587  67.028  1.00  0.00    -0.302 C  
ENDBRANCH   2   8
BRANCH   2  19
HETATM   19  C   UNL     2     -12.449  11.841  63.870  1.00  0.00    -0.274 C  
HETATM   20  H   UNL     2     -14.217  12.327  64.584  1.00  0.00     0.000 HD 
HETATM   21  O   UNL     2     -13.336  12.683  64.599  1.00  0.00    -0.767 OA 
ENDBRANCH   2  19
BRANCH   4  22
HETATM   22  C   UNL     3      -9.987  13.442  66.967  1.00  0.00    -0.246 C  
HETATM   23  H   UNL     3      -9.476  16.902  64.655  1.00  0.00     0.000 HD 
HETATM   24  C   UNL     3      -8.688  16.268  67.252  1.00  0.00    -0.182 C  
HETATM   25  O   UNL     3      -9.029  13.689  68.555  1.00  0.00    -0.174 OA 
HETATM   26  O   UNL     3      -8.129  15.666  69.859  1.00  0.00    -0.062 OA 
HETATM   27  C   UNL     3      -9.475  15.493  66.174  1.00  0.00    -0.341 C  
HETATM   28  O   UNL     3      -8.428  17.506  67.364  1.00  0.00    -0.212 OA 
HETATM   29  O   UNL     3      -9.691  16.039  64.988  1.00  0.00    -0.257 OA 
HETATM   30  C   UNL     3      -8.349  15.229  68.728  1.00  0.00    -0.179 C  
ENDBRANCH   4  22
BRANCH   4  31
HETATM   31  C   UNL     3      -8.528  11.158  68.010  1.00  0.00    -0.135 C  
HETATM   32  O   UNL     3      -9.341  10.926  69.179  1.00  0.00    -0.331 OA 
HETATM   33  H   UNL     3      -8.842  10.575  69.907  1.00  0.00     0.000 HD 
ENDBRANCH   4  31
TORSDOF 4
ENDMDL
MODEL       10
REMARK 921   NORMALIZED FREE ENERGY PREDICTED BY IDOCK:   -5.62 KCAL/MOL
REMARK 922        TOTAL FREE ENERGY PREDICTED BY IDOCK:   27.40 KCAL/MOL
REMARK 923 INTER-LIGAND FREE ENERGY PREDICTED BY IDOCK:   -7.26 KCAL/MOL
REMARK 924 INTRA-LIGAND FREE ENERGY PREDICTED BY IDOCK:   34.65 KCAL/MOL
REMARK 927      BINDING AFFINITY PREDICTED BY RF-SCORE:    0.00 PKD
ROOT
HETATM    1 FE   UNL     1      -7.377  16.218  65.533  1.00  0.00     0.067 Fe 
HETATM    2  C   UNL     2     -11.518  12.778  68.644  1.00  0.00    -0.303 C  
HETATM    3  O   UNL     2     -12.245  12.467  67.403  1.00  0.00    -0.430 OA 
HETATM    4  C   UNL     3     -10.727  14.647  65.847  1.00  0.00    -0.309 C  
HETATM    5  H   UNL     3     -12.241  14.035  66.765  1.00  0.00     0.000 HD 
HETATM    6  H   UNL     2     -12.808  13.225  67.292  1.00  0.00     0.000 HD 
HETATM    7  O   UNL     3     -12.124  14.425  65.907  1.00  0.00    -0.384 OA 
ENDROOT
BRANCH   2   8
HETATM    8  C   UNL     2     -10.583  13.959  68.402  1.00  0.00    -0.262 C  
HETATM    9  H   UNL     2      -6.622  14.586  66.609  1.00  0.00     0.000 HD 
HETATM   10  H   UNL     2      -8.016  13.213  65.928  1.00  0.00     0.000 HD 
HETATM   11  C   UNL     2      -8.229  15.231  67.506  1.00  0.00    -0.173 C  
HETATM   12  O   UNL     2     -10.341  15.349  69.717  1.00  0.00    -0.263 OA 
HETATM   13  O   UNL     2      -8.459  17.485  68.725  1.00  0.00    -0.274 OA 
HETATM   14  O   UNL     2      -8.713  13.073  66.557  1.00  0.00    -0.086 OA 
HETATM   15  C   UNL     2      -8.700  16.262  68.999  1.00  0.00    -0.246 C  
HETATM   16  H   UNL     2      -7.683  17.917  68.385  1.00  0.00     0.000 HD 
HETATM   17  O   UNL     2      -6.860  15.109  67.366  1.00  0.00    -0.185 OA 
HETATM   18  C   UNL     2      -9.181  14.241  67.136  1.00  0.00    -0.223 C  
ENDBRANCH   2   8
BRANCH   2  19
HETATM   19  C   UNL     2     -10.606  11.552  68.825  1.00  0.00    -0.211 C  
HETATM   20  H   UNL     2     -10.766   9.596  68.672  1.00  0.00     0.000 HD 
HETATM   21  O   UNL     2     -11.328  10.353  68.560  1.00  0.00    -0.264 OA 
ENDBRANCH   2  19
BRANCH   4  22
HETATM   22  C   UNL     3      -9.960  15.483  67.294  1.00  0.00    -0.238 C  
HETATM   23  H   UNL     3     -11.524  17.189  70.790  1.00  0.00     0.000 HD 
HETATM   24  C   UNL     3     -10.225  18.311  68.594  1.00  0.00    -0.353 C  
HETATM   25  O   UNL     3      -9.395  16.888  66.196  1.00  0.00    -0.350 OA 
HETATM   26  O   UNL     3      -8.762  19.320  66.516  1.00  0.00    -0.317 OA 
HETATM   27  C   UNL     3     -10.601  16.860  68.964  1.00  0.00    -0.338 C  
HETATM   28  O   UNL     3     -10.146  19.358  69.307  1.00  0.00    -0.378 OA 
HETATM   29  O   UNL     3     -11.254  16.610  70.088  1.00  0.00    -0.258 OA 
HETATM   30  C   UNL     3      -9.508  18.420  66.907  1.00  0.00    -0.291 C  
ENDBRANCH   4  22
BRANCH   4  31
HETATM   31  C   UNL     3     -10.539  15.279  64.456  1.00  0.00     0.087 C  
HETATM   32  O   UNL     3     -11.468  16.354  64.205  1.00  0.00    -1.277 OA 
HETATM   33  H   UNL     3     -11.352  16.744  63.346  1.00  0.00     0.000 HD 
ENDBRANCH   4  31
TORSDOF 4
ENDMDL
MODEL       11
REMARK 921   NORMALIZED FREE ENERGY PREDICTED BY IDOCK:   -5.57 KCAL/MOL
REMARK 922        TOTAL FREE ENERGY PREDICTED BY IDOCK:   27.46 KCAL/MOL
REMARK 923 INTER-LIGAND FREE ENERGY PREDICTED BY IDOCK:   -6.89 KCAL/MOL
REMARK 924 INTRA-LIGAND FREE ENERGY PREDICTED BY IDOCK:   34.35 KCAL/MOL
REMARK 927      BINDING AFFINITY PREDICTED BY RF-SCORE:    0.00 PKD
ROOT
HETATM    1 FE   UNL     1      -7.482   9.827  66.559  1.00  0.00    -0.086 Fe 
HETATM    2  C   UNL     2     -12.152  13.926  66.785  1.00  0.00    -0.439 C  
HETATM    3  O   UNL     2     -11.209  15.054  66.823  1.00  0.00    -0.339 OA 
HETATM    4  C   UNL     3      -8.836  13.181  67.406  1.00  0.00    -0.204 C  
HETATM    5  H   UNL     3     -10.147  14.395  67.965  1.00  0.00     0.000 HD 
HETATM    6  H   UNL     2     -10.981  15.110  67.744  1.00  0.00     0.000 HD 
HETATM    7  O   UNL     3      -9.206  14.365  68.088  1.00  0.00    -0.185 OA 
ENDROOT
BRANCH   2   8
HETATM    8  C   UNL     2     -11.411  12.633  67.111  1.00  0.00    -0.406 C  
HETATM    9  H   UNL     2      -8.814   9.810  64.970  1.00  0.00     0.000 HD 
HETATM   10  H   UNL     2      -8.828  11.858  64.662  1.00  0.00     0.000 HD 
HETATM   11  C   UNL     2      -9.768  10.406  66.563  1.00  0.00    -0.194 C  
HETATM   12  O   UNL     2     -12.201  11.259  68.211  1.00  0.00    -0.611 OA 
HETATM   13  O   UNL     2     -10.304   8.951  68.616  1.00  0.00    -0.200 OA 
HETATM   14  O   UNL     2      -9.589  12.271  65.053  1.00  0.00    -0.118 OA 
HETATM   15  C   UNL     2     -10.959   9.722  67.838  1.00  0.00    -0.188 C  
HETATM   16  H   UNL     2      -9.717   8.224  68.440  1.00  0.00     0.000 HD 
HETATM   17  O   UNL     2      -9.418   9.463  65.616  1.00  0.00    -0.231 OA 
HETATM   18  C   UNL     2      -9.882  11.803  66.324  1.00  0.00    -0.221 C  
ENDBRANCH   2   8
BRANCH   2  19
HETATM   19  C   UNL     2     -12.520  13.834  65.294  1.00  0.00    -0.480 C  
HETATM   20  H   UNL     2     -13.457  12.572  64.110  1.00  0.00     0.000 HD 
HETATM   21  O   UNL     2     -13.230  12.628  65.031  1.00  0.00    -0.753 OA 
ENDBRANCH   2  19
BRANCH   4  22
HETATM   22  C   UNL     3      -9.812  11.669  67.782  1.00  0.00    -0.186 C  
HETATM   23  H   UNL     3     -12.824  10.813  70.571  1.00  0.00     0.000 HD 
HETATM   24  C   UNL     3     -10.209   9.883  70.314  1.00  0.00    -0.264 C  
HETATM   25  O   UNL     3      -8.259  10.797  68.357  1.00  0.00    -0.116 OA 
HETATM   26  O   UNL     3      -7.713   8.853  69.886  1.00  0.00    -0.068 OA 
HETATM   27  C   UNL     3     -11.061  10.865  69.482  1.00  0.00    -0.268 C  
HETATM   28  O   UNL     3     -10.544   9.012  71.175  1.00  0.00    -0.240 OA 
HETATM   29  O   UNL     3     -12.298  11.151  69.856  1.00  0.00    -0.303 OA 
HETATM   30  C   UNL     3      -8.476   9.804  69.710  1.00  0.00    -0.193 C  
ENDBRANCH   4  22
BRANCH   4  31
HETATM   31  C   UNL     3      -7.310  13.132  67.605  1.00  0.00    -0.154 C  
HETATM   32  O   UNL     3      -6.642  12.357  66.588  1.00  0.00    -0.438 OA 
HETATM   33  H   UNL     3      -5.701  12.326  66.711  1.00  0.00     0.000 HD 
ENDBRANCH   4  31
TORSDOF 4
ENDMDL
MODEL       12
REMARK 921   NORMALIZED FREE ENERGY PREDICTED BY IDOCK:   -5.53 KCAL/MOL
REMARK 922        TOTAL FREE ENERGY PREDICTED BY IDOCK:   27.51 KCAL/MOL
REMARK 923 INTER-LIGAND FREE ENERGY PREDICTED BY IDOCK:   -6.93 KCAL/MOL
REMARK 924 INTRA-LIGAND FREE ENERGY PREDICTED BY IDOCK:   34.44 KCAL/MOL
REMARK 927      BINDING AFFINITY PREDICTED BY RF-SCORE:    0.00 PKD
ROOT
HETATM    1 FE   UNL     1     -10.559  15.048  69.356  1.00  0.00    -0.196 Fe 
HETATM    2  C   UNL     2      -9.955   9.939  65.865  1.00  0.00    -0.277 C  
HETATM    3  O   UNL     2      -8.537   9.809  66.235  1.00  0.00    -0.125 OA 
HETATM    4  C   UNL     3      -8.484  12.649  67.424  1.00  0.00    -0.186 C  
HETATM    5  H   UNL     3      -8.125  11.440  66.040  1.00  0.00     0.000 HD 
HETATM    6  H   UNL     2      -8.104  10.398  65.627  1.00  0.00     0.000 HD 
HETATM    7  O   UNL     3      -7.582  12.069  66.500  1.00  0.00     0.022 OA 
ENDROOT
BRANCH   2   8
HETATM    8  C   UNL     2     -10.447  11.339  66.219  1.00  0.00    -0.308 C  
HETATM    9  H   UNL     2     -11.790  13.435  69.838  1.00  0.00     0.000 HD 
HETATM   10  H   UNL     2     -10.299  11.998  69.798  1.00  0.00     0.000 HD 
HETATM   11  C   UNL     2     -11.406  13.369  67.927  1.00  0.00    -0.289 C  
HETATM   12  O   UNL     2     -11.638  12.319  65.062  1.00  0.00    -0.332 OA 
HETATM   13  O   UNL     2     -12.244  15.056  66.174  1.00  0.00     0.008 OA 
HETATM   14  O   UNL     2     -10.294  11.513  68.982  1.00  0.00    -0.194 OA 
HETATM   15  C   UNL     2     -12.239  13.786  66.301  1.00  0.00    -0.447 C  
HETATM   16  H   UNL     2     -12.528  15.748  66.759  1.00  0.00     0.000 HD 
HETATM   17  O   UNL     2     -12.213  13.647  69.013  1.00  0.00    -0.334 OA 
HETATM   18  C   UNL     2     -10.456  12.313  67.861  1.00  0.00    -0.213 C  
ENDBRANCH   2   8
BRANCH   2  19
HETATM   19  C   UNL     2     -10.656   8.986  66.849  1.00  0.00    -0.173 C  
HETATM   20  H   UNL     2     -10.162   7.451  67.977  1.00  0.00     0.000 HD 
HETATM   21  O   UNL     2      -9.729   8.040  67.369  1.00  0.00    -0.148 OA 
ENDBRANCH   2  19
BRANCH   4  22
HETATM   22  C   UNL     3     -10.100  13.217  66.757  1.00  0.00    -0.258 C  
HETATM   23  H   UNL     3     -11.689  13.453  62.884  1.00  0.00     0.000 HD 
HETATM   24  C   UNL     3     -10.989  15.421  64.730  1.00  0.00    -0.393 C  
HETATM   25  O   UNL     3      -9.726  14.964  67.311  1.00  0.00    -0.224 OA 
HETATM   26  O   UNL     3     -10.483  17.292  66.658  1.00  0.00    -0.313 OA 
HETATM   27  C   UNL     3     -10.952  13.878  64.774  1.00  0.00    -0.401 C  
HETATM   28  O   UNL     3     -11.609  16.217  63.960  1.00  0.00    -0.953 OA 
HETATM   29  O   UNL     3     -11.331  13.175  63.718  1.00  0.00    -0.393 OA 
HETATM   30  C   UNL     3     -10.233  16.164  66.230  1.00  0.00    -0.320 C  
ENDBRANCH   4  22
BRANCH   4  31
HETATM   31  C   UNL     3      -7.604  13.668  68.170  1.00  0.00    -0.137 C  
HETATM   32  O   UNL     3      -8.201  14.119  69.404  1.00  0.00    -0.346 OA 
HETATM   33  H   UNL     3      -7.658  14.748  69.864  1.00  0.00     0.000 HD 
ENDBRANCH   4  31
TORSDOF 4
ENDMDL
MODEL       13
REMARK 921   NORMALIZED FREE ENERGY PREDICTED BY IDOCK:   -5.45 KCAL/MOL
REMARK 922        TOTAL FREE ENERGY PREDICTED BY IDOCK:   27.60 KCAL/MOL
REMARK 923 INTER-LIGAND FREE ENERGY PREDICTED BY IDOCK:   -6.87 KCAL/MOL
REMARK 924 INTRA-LIGAND FREE ENERGY PREDICTED BY IDOCK:   34.47 KCAL/MOL
REMARK 927      BINDING AFFINITY PREDICTED BY RF-SCORE:    0.00 PKD
ROOT
HETATM    1 FE   UNL     1      -8.921  13.392  65.722  1.00  0.00    -0.408 Fe 
HETATM    2  C   UNL     2      -9.630  18.840  68.633  1.00  0.00    -0.387 C  
HETATM    3  O   UNL     2      -8.195  18.900  68.949  1.00  0.00    -0.320 OA 
HETATM    4  C   UNL     3      -7.799  15.947  68.173  1.00  0.00    -0.133 C  
HETATM    5  H   UNL     3      -8.029  17.293  69.455  1.00  0.00     0.000 HD 
HETATM    6  H   UNL     2      -8.128  18.373  69.737  1.00  0.00     0.000 HD 
HETATM    7  O   UNL     3      -7.381  16.606  69.354  1.00  0.00    -0.222 OA 
ENDROOT
BRANCH   2   8
HETATM    8  C   UNL     2     -10.000  17.420  68.217  1.00  0.00    -0.320 C  
HETATM    9  H   UNL     2      -9.710  14.977  64.579  1.00  0.00     0.000 HD 
HETATM   10  H   UNL     2      -8.305  16.382  65.165  1.00  0.00     0.000 HD 
HETATM   11  C   UNL     2     -10.221  15.239  66.442  1.00  0.00    -0.277 C  
HETATM   12  O   UNL     2     -11.645  16.591  68.788  1.00  0.00    -0.251 OA 
HETATM   13  O   UNL     2     -11.864  13.763  67.763  1.00  0.00    -0.337 OA 
HETATM   14  O   UNL     2      -8.636  16.950  65.850  1.00  0.00    -0.514 OA 
HETATM   15  C   UNL     2     -11.720  15.013  67.544  1.00  0.00    -0.253 C  
HETATM   16  H   UNL     2     -11.899  13.018  67.175  1.00  0.00     0.000 HD 
HETATM   17  O   UNL     2     -10.470  14.862  65.137  1.00  0.00    -0.372 OA 
HETATM   18  C   UNL     2      -9.335  16.277  66.840  1.00  0.00    -0.224 C  
ENDBRANCH   2   8
BRANCH   2  19
HETATM   19  C   UNL     2      -9.738  19.693  67.358  1.00  0.00    -0.354 C  
HETATM   20  H   UNL     2     -11.056  19.998  65.928  1.00  0.00     0.000 HD 
HETATM   21  O   UNL     2     -10.990  19.471  66.716  1.00  0.00    -0.436 OA 
ENDBRANCH   2  19
BRANCH   4  22
HETATM   22  C   UNL     3      -9.576  15.488  68.067  1.00  0.00    -0.203 C  
HETATM   23  H   UNL     3     -12.763  15.681  70.784  1.00  0.00     0.000 HD 
HETATM   24  C   UNL     3     -11.436  13.522  69.626  1.00  0.00    -0.217 C  
HETATM   25  O   UNL     3      -9.110  13.685  67.886  1.00  0.00    -0.181 OA 
HETATM   26  O   UNL     3     -10.236  11.454  68.300  1.00  0.00    -0.180 OA 
HETATM   27  C   UNL     3     -11.278  15.050  69.483  1.00  0.00    -0.276 C  
HETATM   28  O   UNL     3     -12.389  12.822  70.086  1.00  0.00    -0.261 OA 
HETATM   29  O   UNL     3     -12.047  15.865  70.189  1.00  0.00    -0.344 OA 
HETATM   30  C   UNL     3     -10.133  12.613  68.704  1.00  0.00    -0.122 C  
ENDBRANCH   4  22
BRANCH   4  31
HETATM   31  C   UNL     3      -6.747  14.834  68.011  1.00  0.00    -0.144 C  
HETATM   32  O   UNL     3      -6.793  14.213  66.709  1.00  0.00    -0.133 OA 
HETATM   33  H   UNL     3      -6.144  13.527  66.609  1.00  0.00     0.000 HD 
ENDBRANCH   4  31
TORSDOF 4
ENDMDL
MODEL       14
REMARK 921   NORMALIZED FREE ENERGY PREDICTED BY IDOCK:   -5.39 KCAL/MOL
REMARK 922        TOTAL FREE ENERGY PREDICTED BY IDOCK:   27.68 KCAL/MOL
REMARK 923 INTER-LIGAND FREE ENERGY PREDICTED BY IDOCK:   -6.72 KCAL/MOL
REMARK 924 INTRA-LIGAND FREE ENERGY PREDICTED BY IDOCK:   34.40 KCAL/MOL
REMARK 927      BINDING AFFINITY PREDICTED BY RF-SCORE:    0.00 PKD
ROOT
HETATM    1 FE   UNL     1     -10.933  12.884  65.742  1.00  0.00    -0.267 Fe 
HETATM    2  C   UNL     2      -7.954  17.416  68.783  1.00  0.00    -0.244 C  
HETATM    3  O   UNL     2      -6.666  16.723  68.627  1.00  0.00    -0.158 OA 
HETATM    4  C   UNL     3      -8.055  14.125  67.736  1.00  0.00    -0.166 C  
HETATM    5  H   UNL     3      -7.214  15.175  69.038  1.00  0.00     0.000 HD 
HETATM    6  H   UNL     2      -6.668  16.104  69.348  1.00  0.00     0.000 HD 
HETATM    7  O   UNL     3      -7.060  14.290  68.729  1.00  0.00    -0.094 OA 
ENDROOT
BRANCH   2   8
HETATM    8  C   UNL     2      -9.092  16.443  68.492  1.00  0.00    -0.223 C  
HETATM    9  H   UNL     2     -10.997  14.728  64.924  1.00  0.00     0.000 HD 
HETATM   10  H   UNL     2      -8.976  15.150  65.088  1.00  0.00     0.000 HD 
HETATM   11  C   UNL     2     -10.830  14.938  66.856  1.00  0.00    -0.319 C  
HETATM   12  O   UNL     2     -10.733  16.466  69.505  1.00  0.00    -0.288 OA 
HETATM   13  O   UNL     2     -12.621  14.300  68.590  1.00  0.00    -0.506 OA 
HETATM   14  O   UNL     2      -8.788  15.703  65.837  1.00  0.00    -0.279 OA 
HETATM   15  C   UNL     2     -11.911  15.330  68.336  1.00  0.00    -0.260 C  
HETATM   16  H   UNL     2     -13.177  13.764  68.037  1.00  0.00     0.000 HD 
HETATM   17  O   UNL     2     -11.546  14.927  65.674  1.00  0.00    -0.329 OA 
HETATM   18  C   UNL     2      -9.469  15.332  66.985  1.00  0.00    -0.223 C  
ENDBRANCH   2   8
BRANCH   2  19
HETATM   19  C   UNL     2      -7.950  18.418  67.617  1.00  0.00    -0.242 C  
HETATM   20  H   UNL     2      -9.271  19.486  66.621  1.00  0.00     0.000 HD 
HETATM   21  O   UNL     2      -9.274  18.866  67.342  1.00  0.00    -0.283 OA 
ENDBRANCH   2  19
BRANCH   4  22
HETATM   22  C   UNL     3      -9.771  14.602  68.194  1.00  0.00    -0.220 C  
HETATM   23  H   UNL     3     -11.513  16.003  71.741  1.00  0.00     0.000 HD 
HETATM   24  C   UNL     3     -11.828  13.621  70.330  1.00  0.00    -0.266 C  
HETATM   25  O   UNL     3     -10.336  12.834  67.959  1.00  0.00    -0.216 OA 
HETATM   26  O   UNL     3     -12.251  11.400  68.793  1.00  0.00    -0.502 OA 
HETATM   27  C   UNL     3     -10.980  14.886  70.079  1.00  0.00    -0.206 C  
HETATM   28  O   UNL     3     -12.827  13.424  71.088  1.00  0.00    -0.333 OA 
HETATM   29  O   UNL     3     -11.004  15.884  70.948  1.00  0.00    -0.309 OA 
HETATM   30  C   UNL     3     -11.474  12.307  69.096  1.00  0.00    -0.296 C  
ENDBRANCH   4  22
BRANCH   4  31
HETATM   31  C   UNL     3      -7.806  12.690  67.236  1.00  0.00    -0.155 C  
HETATM   32  O   UNL     3      -8.501  12.403  66.004  1.00  0.00    -0.335 OA 
HETATM   33  H   UNL     3      -8.348  11.518  65.696  1.00  0.00     0.000 HD 
ENDBRANCH   4  31
TORSDOF 4
ENDMDL
MODEL       15
REMARK 921   NORMALIZED FREE ENERGY PREDICTED BY IDOCK:   -5.37 KCAL/MOL
REMARK 922        TOTAL FREE ENERGY PREDICTED BY IDOCK:   27.70 KCAL/MOL
REMARK 923 INTER-LIGAND FREE ENERGY PREDICTED BY IDOCK:   -6.74 KCAL/MOL
REMARK 924 INTRA-LIGAND FREE ENERGY PREDICTED BY IDOCK:   34.44 KCAL/MOL
REMARK 927      BINDING AFFINITY PREDICTED BY RF-SCORE:    0.00 PKD
ROOT
HETATM    1 FE   UNL     1     -10.900  13.229  69.592  1.00  0.00    -0.302 Fe 
HETATM    2  C   UNL     2      -9.616  18.342  66.296  1.00  0.00    -0.261 C  
HETATM    3  O   UNL     2     -10.579  17.956  65.253  1.00  0.00    -0.637 OA 
HETATM    4  C   UNL     3     -10.815  15.103  66.387  1.00  0.00    -0.326 C  
HETATM    5  H   UNL     3     -10.125  16.328  65.150  1.00  0.00     0.000 HD 
HETATM    6  H   UNL     2     -10.076  17.358  64.711  1.00  0.00     0.000 HD 
HETATM    7  O   UNL     3     -10.574  15.497  65.049  1.00  0.00    -0.413 OA 
ENDROOT
BRANCH   2   8
HETATM    8  C   UNL     2      -9.311  17.136  67.179  1.00  0.00    -0.249 C  
HETATM    9  H   UNL     2     -11.280  15.012  70.482  1.00  0.00     0.000 HD 
HETATM   10  H   UNL     2     -12.274  15.881  68.886  1.00  0.00     0.000 HD 
HETATM   11  C   UNL     2      -9.803  15.267  69.234  1.00  0.00    -0.255 C  
HETATM   12  O   UNL     2      -7.538  16.796  67.857  1.00  0.00    -0.163 OA 
HETATM   13  O   UNL     2      -7.450  14.253  69.476  1.00  0.00    -0.336 OA 
HETATM   14  O   UNL     2     -11.712  16.466  68.393  1.00  0.00    -0.205 OA 
HETATM   15  C   UNL     2      -7.935  15.416  69.265  1.00  0.00    -0.229 C  
HETATM   16  H   UNL     2      -7.638  13.602  70.141  1.00  0.00     0.000 HD 
HETATM   17  O   UNL     2     -10.333  15.087  70.497  1.00  0.00    -0.056 OA 
HETATM   18  C   UNL     2     -10.442  15.958  68.169  1.00  0.00    -0.270 C  
ENDBRANCH   2   8
BRANCH   2  19
HETATM   19  C   UNL     2     -10.429  19.309  67.174  1.00  0.00    -0.457 C  
HETATM   20  H   UNL     2     -10.462  21.241  67.551  1.00  0.00     0.000 HD 
HETATM   21  O   UNL     2      -9.960  20.644  67.009  1.00  0.00    -0.441 OA 
ENDBRANCH   2  19
BRANCH   4  22
HETATM   22  C   UNL     3      -9.388  15.187  67.544  1.00  0.00    -0.198 C  
HETATM   23  H   UNL     3      -5.318  16.050  67.029  1.00  0.00     0.000 HD 
HETATM   24  C   UNL     3      -6.644  13.710  67.760  1.00  0.00    -0.171 C  
HETATM   25  O   UNL     3      -9.530  13.350  67.867  1.00  0.00    -0.201 OA 
HETATM   26  O   UNL     3      -7.986  11.510  68.674  1.00  0.00    -0.140 OA 
HETATM   27  C   UNL     3      -7.134  15.135  67.426  1.00  0.00    -0.187 C  
HETATM   28  O   UNL     3      -5.492  13.277  68.071  1.00  0.00    -0.092 OA 
HETATM   29  O   UNL     3      -6.266  16.072  67.079  1.00  0.00    -0.314 OA 
HETATM   30  C   UNL     3      -8.045  12.550  68.015  1.00  0.00    -0.164 C  
ENDBRANCH   4  22
BRANCH   4  31
HETATM   31  C   UNL     3     -11.543  13.756  66.223  1.00  0.00    -0.350 C  
HETATM   32  O   UNL     3     -12.249  13.359  67.417  1.00  0.00    -0.326 OA 
HETATM   33  H   UNL     3     -12.698  12.528  67.316  1.00  0.00     0.000 HD 
ENDBRANCH   4  31
TORSDOF 4
ENDMDL
MODEL       16
REMARK 921   NORMALIZED FREE ENERGY PREDICTED BY IDOCK:   -5.28 KCAL/MOL
REMARK 922        TOTAL FREE ENERGY PREDICTED BY IDOCK:   27.82 KCAL/MOL
REMARK 923 INTER-LIGAND FREE ENERGY PREDICTED BY IDOCK:   -6.55 KCAL/MOL
REMARK 924 INTRA-LIGAND FREE ENERGY PREDICTED BY IDOCK:   34.37 KCAL/MOL
REMARK 927      BINDING AFFINITY PREDICTED BY RF-SCORE:    0.00 PKD
ROOT
HETATM    1 FE   UNL     1     -12.489  12.618  68.203  1.00  0.00    -0.321 Fe 
HETATM    2  C   UNL     2      -9.084  17.701  67.091  1.00  0.00    -0.244 C  
HETATM    3  O   UNL     2      -9.877  18.013  65.891  1.00  0.00    -0.535 OA 
HETATM    4  C   UNL     3     -11.181  15.224  65.903  1.00  0.00    -0.237 C  
HETATM    5  H   UNL     3      -9.915  16.445  65.257  1.00  0.00     0.000 HD 
HETATM    6  H   UNL     2      -9.472  17.473  65.222  1.00  0.00     0.000 HD 
HETATM    7  O   UNL     3     -10.558  15.897  64.823  1.00  0.00    -0.562 OA 
ENDROOT
BRANCH   2   8
HETATM    8  C   UNL     2      -9.343  16.257  67.508  1.00  0.00    -0.217 C  
HETATM    9  H   UNL     2     -12.469  14.071  69.687  1.00  0.00     0.000 HD 
HETATM   10  H   UNL     2     -12.819  15.681  68.432  1.00  0.00     0.000 HD 
HETATM   11  C   UNL     2     -10.774  14.152  68.725  1.00  0.00    -0.256 C  
HETATM   12  O   UNL     2      -7.927  15.117  68.153  1.00  0.00    -0.119 OA 
HETATM   13  O   UNL     2      -8.943  12.345  68.768  1.00  0.00    -0.381 OA 
HETATM   14  O   UNL     2     -12.020  16.149  68.223  1.00  0.00    -0.107 OA 
HETATM   15  C   UNL     2      -8.994  13.608  68.947  1.00  0.00     0.195 C  
HETATM   16  H   UNL     2      -9.447  11.632  69.143  1.00  0.00     0.000 HD 
HETATM   17  O   UNL     2     -11.567  13.794  69.799  1.00  0.00    -0.272 OA 
HETATM   18  C   UNL     2     -10.951  15.317  67.929  1.00  0.00    -0.306 C  
ENDBRANCH   2   8
BRANCH   2  19
HETATM   19  C   UNL     2      -9.740  18.575  68.174  1.00  0.00    -0.339 C  
HETATM   20  H   UNL     2     -11.206  19.884  68.285  1.00  0.00     0.000 HD 
HETATM   21  O   UNL     2     -10.801  19.344  67.616  1.00  0.00    -0.455 OA 
ENDBRANCH   2  19
BRANCH   4  22
HETATM   22  C   UNL     3     -10.070  14.446  67.144  1.00  0.00    -0.253 C  
HETATM   23  H   UNL     3      -5.911  13.957  67.373  1.00  0.00     0.000 HD 
HETATM   24  C   UNL     3      -7.986  12.120  67.076  1.00  0.00    -0.138 C  
HETATM   25  O   UNL     3     -10.806  12.768  66.766  1.00  0.00    -0.257 OA 
HETATM   26  O   UNL     3     -10.072  10.355  66.999  1.00  0.00    -0.197 OA 
HETATM   27  C   UNL     3      -7.957  13.655  67.234  1.00  0.00    -0.114 C  
HETATM   28  O   UNL     3      -7.104  11.241  67.320  1.00  0.00    -0.098 OA 
HETATM   29  O   UNL     3      -6.800  14.290  67.334  1.00  0.00    -0.221 OA 
HETATM   30  C   UNL     3      -9.685  11.500  66.758  1.00  0.00    -0.199 C  
ENDBRANCH   4  22
BRANCH   4  31
HETATM   31  C   UNL     3     -12.223  14.336  65.199  1.00  0.00    -0.421 C  
HETATM   32  O   UNL     3     -13.314  13.968  66.068  1.00  0.00    -0.496 OA 
HETATM   33  H   UNL     3     -13.958  13.420  65.635  1.00  0.00     0.000 HD 
ENDBRANCH   4  31
TORSDOF 4
ENDMDL
MODEL       17
REMARK 921   NORMALIZED FREE ENERGY PREDICTED BY IDOCK:   -5.23 KCAL/MOL
REMARK 922        TOTAL FREE ENERGY PREDICTED BY IDOCK:   27.88 KCAL/MOL
REMARK 923 INTER-LIGAND FREE ENERGY PREDICTED BY IDOCK:   -6.77 KCAL/MOL
REMARK 924 INTRA-LIGAND FREE ENERGY PREDICTED BY IDOCK:   34.65 KCAL/MOL
REMARK 927      BINDING AFFINITY PREDICTED BY RF-SCORE:    0.00 PKD
ROOT
HETATM    1 FE   UNL     1     -12.572  16.421  68.360  1.00  0.00    -0.317 Fe 
HETATM    2  C   UNL     2      -6.575  18.053  68.198  1.00  0.00    -0.199 C  
HETATM    3  O   UNL     2      -6.817  18.966  67.070  1.00  0.00    -0.200 OA 
HETATM    4  C   UNL     3      -9.612  17.775  66.573  1.00  0.00    -0.308 C  
HETATM    5  H   UNL     3      -7.790  17.919  66.164  1.00  0.00     0.000 HD 
HETATM    6  H   UNL     2      -6.783  18.388  66.317  1.00  0.00     0.000 HD 
HETATM    7  O   UNL     3      -8.575  17.999  65.635  1.00  0.00    -0.345 OA 
ENDROOT
BRANCH   2   8
HETATM    8  C   UNL     2      -7.761  17.106  68.348  1.00  0.00    -0.237 C  
HETATM    9  H   UNL     2     -11.793  17.282  70.084  1.00  0.00     0.000 HD 
HETATM   10  H   UNL     2     -10.851  18.866  69.138  1.00  0.00     0.000 HD 
HETATM   11  C   UNL     2     -10.354  16.344  69.160  1.00  0.00    -0.289 C  
HETATM   12  O   UNL     2      -7.524  15.242  68.783  1.00  0.00    -0.119 OA 
HETATM   13  O   UNL     2     -10.167  13.793  68.885  1.00  0.00    -0.356 OA 
HETATM   14  O   UNL     2      -9.923  18.708  69.020  1.00  0.00    -0.385 OA 
HETATM   15  C   UNL     2      -9.404  14.734  69.287  1.00  0.00    -0.045 C  
HETATM   16  H   UNL     2     -11.055  13.553  69.123  1.00  0.00     0.000 HD 
HETATM   17  O   UNL     2     -11.312  16.465  70.148  1.00  0.00    -0.329 OA 
HETATM   18  C   UNL     2      -9.629  17.425  68.586  1.00  0.00    -0.295 C  
ENDBRANCH   2   8
BRANCH   2  19
HETATM   19  C   UNL     2      -6.629  18.990  69.417  1.00  0.00    -0.288 C  
HETATM   20  H   UNL     2      -6.584  20.928  69.755  1.00  0.00     0.000 HD 
HETATM   21  O   UNL     2      -6.551  20.350  69.002  1.00  0.00    -0.280 OA 
ENDBRANCH   2  19
BRANCH   4  22
HETATM   22  C   UNL     3      -9.440  16.302  67.660  1.00  0.00    -0.221 C  
HETATM   23  H   UNL     3      -6.669  13.159  67.826  1.00  0.00     0.000 HD 
HETATM   24  C   UNL     3      -9.381  13.215  67.185  1.00  0.00    -0.235 C  
HETATM   25  O   UNL     3     -11.035  15.600  66.978  1.00  0.00    -0.322 OA 
HETATM   26  O   UNL     3     -12.083  13.303  66.773  1.00  0.00    -0.384 OA 
HETATM   27  C   UNL     3      -8.382  14.308  67.620  1.00  0.00    -0.181 C  
HETATM   28  O   UNL     3      -9.322  11.950  67.272  1.00  0.00    -0.172 OA 
HETATM   29  O   UNL     3      -7.114  13.998  67.842  1.00  0.00    -0.124 OA 
HETATM   30  C   UNL     3     -11.018  13.923  66.747  1.00  0.00    -0.299 C  
ENDBRANCH   4  22
BRANCH   4  31
HETATM   31  C   UNL     3     -10.884  17.904  65.716  1.00  0.00     0.050 C  
HETATM   32  O   UNL     3     -10.923  16.951  64.633  1.00  0.00    -0.894 OA 
HETATM   33  H   UNL     3     -11.708  17.031  64.104  1.00  0.00     0.000 HD 
ENDBRANCH   4  31
TORSDOF 4
ENDMDL
MODEL       18
REMARK 921   NORMALIZED FREE ENERGY PREDICTED BY IDOCK:   -5.15 KCAL/MOL
REMARK 922        TOTAL FREE ENERGY PREDICTED BY IDOCK:   27.98 KCAL/MOL
REMARK 923 INTER-LIGAND FREE ENERGY PREDICTED BY IDOCK:   -6.64 KCAL/MOL
REMARK 924 INTRA-LIGAND FREE ENERGY PREDICTED BY IDOCK:   34.61 KCAL/MOL
REMARK 927      BINDING AFFINITY PREDICTED BY RF-SCORE:    0.00 PKD
ROOT
HETATM    1 FE   UNL     1     -11.523  17.875  66.726  1.00  0.00    -0.111 Fe 
HETATM    2  C   UNL     2      -9.501  12.136  68.006  1.00  0.00    -0.201 C  
HETATM    3  O   UNL     2     -10.492  11.988  69.084  1.00  0.00    -0.406 OA 
HETATM    4  C   UNL     3     -11.133  14.999  69.044  1.00  0.00    -0.262 C  
HETATM    5  H   UNL     3     -10.264  13.513  69.782  1.00  0.00     0.000 HD 
HETATM    6  H   UNL     2     -10.068  12.411  69.822  1.00  0.00     0.000 HD 
HETATM    7  O   UNL     3     -10.821  14.184  70.159  1.00  0.00     0.078 OA 
ENDROOT
BRANCH   2   8
HETATM    8  C   UNL     2      -9.378  13.609  67.628  1.00  0.00    -0.215 C  
HETATM    9  H   UNL     2     -11.625  16.479  65.178  1.00  0.00     0.000 HD 
HETATM   10  H   UNL     2     -12.486  14.966  66.300  1.00  0.00     0.000 HD 
HETATM   11  C   UNL     2     -10.134  16.002  66.341  1.00  0.00    -0.300 C  
HETATM   12  O   UNL     2      -7.672  14.414  67.223  1.00  0.00    -0.192 OA 
HETATM   13  O   UNL     2      -7.962  17.354  66.617  1.00  0.00    -0.218 OA 
HETATM   14  O   UNL     2     -11.844  14.327  66.586  1.00  0.00    -0.390 OA 
HETATM   15  C   UNL     2      -8.265  16.138  66.374  1.00  0.00    -0.301 C  
HETATM   16  H   UNL     2      -8.242  18.168  66.215  1.00  0.00     0.000 HD 
HETATM   17  O   UNL     2     -10.677  16.548  65.194  1.00  0.00    -0.606 OA 
HETATM   18  C   UNL     2     -10.668  14.893  67.052  1.00  0.00    -0.307 C  
ENDBRANCH   2   8
BRANCH   2  19
HETATM   19  C   UNL     2     -10.187  11.452  66.811  1.00  0.00    -0.223 C  
HETATM   20  H   UNL     2     -11.971  10.739  66.381  1.00  0.00     0.000 HD 
HETATM   21  O   UNL     2     -11.547  11.162  67.119  1.00  0.00    -0.495 OA 
ENDBRANCH   2  19
BRANCH   4  22
HETATM   22  C   UNL     3      -9.726  15.529  67.986  1.00  0.00    -0.207 C  
HETATM   23  H   UNL     3      -5.572  15.042  68.272  1.00  0.00     0.000 HD 
HETATM   24  C   UNL     3      -7.193  17.303  68.424  1.00  0.00    -0.220 C  
HETATM   25  O   UNL     3     -10.102  17.322  68.367  1.00  0.00    -0.292 OA 
HETATM   26  O   UNL     3      -8.814  19.504  68.354  1.00  0.00    -0.336 OA 
HETATM   27  C   UNL     3      -7.495  15.808  68.186  1.00  0.00    -0.124 C  
HETATM   28  O   UNL     3      -6.110  17.959  68.334  1.00  0.00    -0.173 OA 
HETATM   29  O   UNL     3      -6.510  14.924  68.188  1.00  0.00    -0.108 OA 
HETATM   30  C   UNL     3      -8.732  18.294  68.575  1.00  0.00    -0.308 C  
ENDBRANCH   4  22
BRANCH   4  31
HETATM   31  C   UNL     3     -12.036  16.086  69.656  1.00  0.00    -0.180 C  
HETATM   32  O   UNL     3     -11.443  16.712  70.813  1.00  0.00    -0.540 OA 
HETATM   33  H   UNL     3     -12.000  17.383  71.190  1.00  0.00     0.000 HD 
ENDBRANCH   4  31
TORSDOF 4
ENDMDL
MODEL       19
REMARK 921   NORMALIZED FREE ENERGY PREDICTED BY IDOCK:   -5.12 KCAL/MOL
REMARK 922        TOTAL FREE ENERGY PREDICTED BY IDOCK:   28.01 KCAL/MOL
REMARK 923 INTER-LIGAND FREE ENERGY PREDICTED BY IDOCK:   -6.81 KCAL/MOL
REMARK 924 INTRA-LIGAND FREE ENERGY PREDICTED BY IDOCK:   34.82 KCAL/MOL
REMARK 927      BINDING AFFINITY PREDICTED BY RF-SCORE:    0.00 PKD
ROOT
HETATM    1 FE   UNL     1     -12.635  11.754  65.679  1.00  0.00    -0.260 Fe 
HETATM    2  C   UNL     2      -9.525  16.262  68.622  1.00  0.00    -0.228 C  
HETATM    3  O   UNL     2      -9.901  17.243  67.592  1.00  0.00    -0.266 OA 
HETATM    4  C   UNL     3     -10.878  15.026  65.693  1.00  0.00    -0.349 C  
HETATM    5  H   UNL     3      -9.586  16.261  66.250  1.00  0.00     0.000 HD 
HETATM    6  H   UNL     2      -9.250  17.099  66.915  1.00  0.00     0.000 HD 
HETATM    7  O   UNL     3      -9.997  16.097  65.410  1.00  0.00    -0.482 OA 
ENDROOT
BRANCH   2   8
HETATM    8  C   UNL     2      -9.777  14.853  68.097  1.00  0.00    -0.214 C  
HETATM    9  H   UNL     2     -13.230  12.171  67.665  1.00  0.00     0.000 HD 
HETATM   10  H   UNL     2     -13.304  14.228  67.433  1.00  0.00     0.000 HD 
HETATM   11  C   UNL     2     -11.332  12.580  67.481  1.00  0.00    -0.312 C  
HETATM   12  O   UNL     2      -8.544  13.408  68.432  1.00  0.00    -0.171 OA 
HETATM   13  O   UNL     2      -9.459  10.854  67.116  1.00  0.00    -0.159 OA 
HETATM   14  O   UNL     2     -12.523  14.651  67.768  1.00  0.00    -0.032 OA 
HETATM   15  C   UNL     2      -9.673  11.825  67.916  1.00  0.00    -0.185 C  
HETATM   16  H   UNL     2      -9.992  10.106  66.872  1.00  0.00     0.000 HD 
HETATM   17  O   UNL     2     -12.389  11.788  67.886  1.00  0.00    -0.399 OA 
HETATM   18  C   UNL     2     -11.349  14.001  67.424  1.00  0.00    -0.329 C  
ENDBRANCH   2   8
BRANCH   2  19
HETATM   19  C   UNL     2     -10.578  16.495  69.720  1.00  0.00    -0.265 C  
HETATM   20  H   UNL     2     -11.258  15.538  71.299  1.00  0.00     0.000 HD 
HETATM   21  O   UNL     2     -10.608  15.394  70.621  1.00  0.00    -0.290 OA 
ENDBRANCH   2  19
BRANCH   4  22
HETATM   22  C   UNL     3     -10.176  13.597  66.612  1.00  0.00    -0.276 C  
HETATM   23  H   UNL     3      -6.292  12.593  67.832  1.00  0.00     0.000 HD 
HETATM   24  C   UNL     3      -8.022  11.425  65.985  1.00  0.00     0.095 C  
HETATM   25  O   UNL     3     -10.628  12.455  65.201  1.00  0.00    -0.276 OA 
HETATM   26  O   UNL     3      -9.838  10.205  64.345  1.00  0.00    -0.322 OA 
HETATM   27  C   UNL     3      -8.156  12.640  66.926  1.00  0.00    -0.008 C  
HETATM   28  O   UNL     3      -7.205  10.453  65.990  1.00  0.00    -0.121 OA 
HETATM   29  O   UNL     3      -7.142  12.995  67.700  1.00  0.00    -0.127 OA 
HETATM   30  C   UNL     3      -9.477  11.256  64.877  1.00  0.00    -0.196 C  
ENDBRANCH   4  22
BRANCH   4  31
HETATM   31  C   UNL     3     -11.545  14.760  64.331  1.00  0.00    -0.295 C  
HETATM   32  O   UNL     3     -11.987  15.972  63.684  1.00  0.00    -1.344 OA 
HETATM   33  H   UNL     3     -12.398  15.808  62.844  1.00  0.00     0.000 HD 
ENDBRANCH   4  31
TORSDOF 4
ENDMDL
MODEL       20
REMARK 921   NORMALIZED FREE ENERGY PREDICTED BY IDOCK:   -5.06 KCAL/MOL
REMARK 922        TOTAL FREE ENERGY PREDICTED BY IDOCK:   28.09 KCAL/MOL
REMARK 923 INTER-LIGAND FREE ENERGY PREDICTED BY IDOCK:   -6.31 KCAL/MOL
REMARK 924 INTRA-LIGAND FREE ENERGY PREDICTED BY IDOCK:   34.39 KCAL/MOL
REMARK 927      BINDING AFFINITY PREDICTED BY RF-SCORE:    0.00 PKD
ROOT
HETATM    1 FE   UNL     1     -12.404  12.755  68.471  1.00  0.00    -0.287 Fe 
HETATM    2  C   UNL     2      -6.802  11.350  66.166  1.00  0.00     0.147 C  
HETATM    3  O   UNL     2      -6.178  12.452  66.914  1.00  0.00    -0.423 OA 
HETATM    4  C   UNL     3      -8.919  13.684  67.584  1.00  0.00    -0.202 C  
HETATM    5  H   UNL     3      -7.348  13.625  66.566  1.00  0.00     0.000 HD 
HETATM    6  H   UNL     2      -6.331  13.204  66.353  1.00  0.00     0.000 HD 
HETATM    7  O   UNL     3      -7.779  14.325  67.041  1.00  0.00    -0.090 OA 
ENDROOT
BRANCH   2   8
HETATM    8  C   UNL     2      -8.315  11.547  66.139  1.00  0.00    -0.018 C  
HETATM    9  H   UNL     2     -11.677  10.868  68.883  1.00  0.00     0.000 HD 
HETATM   10  H   UNL     2      -9.785  11.470  69.471  1.00  0.00     0.000 HD 
HETATM   11  C   UNL     2     -10.937  11.446  67.174  1.00  0.00    -0.285 C  
HETATM   12  O   UNL     2      -9.362  11.158  64.567  1.00  0.00    -0.212 OA 
HETATM   13  O   UNL     2     -12.278  11.789  65.004  1.00  0.00    -0.226 OA 
HETATM   14  O   UNL     2      -9.146  11.360  68.778  1.00  0.00    -0.167 OA 
HETATM   15  C   UNL     2     -11.217  11.164  65.342  1.00  0.00     0.091 C  
HETATM   16  H   UNL     2     -13.154  11.792  65.371  1.00  0.00     0.000 HD 
HETATM   17  O   UNL     2     -11.820  10.724  67.954  1.00  0.00    -0.553 OA 
HETATM   18  C   UNL     2      -9.600  11.768  67.534  1.00  0.00    -0.177 C  
ENDBRANCH   2   8
BRANCH   2  19
HETATM   19  C   UNL     2      -6.554  10.133  67.074  1.00  0.00    -0.074 C  
HETATM   20  H   UNL     2      -5.505   9.723  68.689  1.00  0.00     0.000 HD 
HETATM   21  O   UNL     2      -5.658  10.475  68.128  1.00  0.00    -0.037 OA 
ENDBRANCH   2  19
BRANCH   4  22
HETATM   22  C   UNL     3      -9.926  12.669  66.429  1.00  0.00    -0.262 C  
HETATM   23  H   UNL     3      -9.779  12.031  62.287  1.00  0.00     0.000 HD 
HETATM   24  C   UNL     3     -11.668  13.283  63.910  1.00  0.00    -0.431 C  
HETATM   25  O   UNL     3     -11.420  13.741  66.772  1.00  0.00    -0.321 OA 
HETATM   26  O   UNL     3     -13.579  14.309  65.574  1.00  0.00    -0.497 OA 
HETATM   27  C   UNL     3     -10.333  12.568  64.210  1.00  0.00    -0.370 C  
HETATM   28  O   UNL     3     -12.416  13.254  62.885  1.00  0.00    -0.493 OA 
HETATM   29  O   UNL     3      -9.608  12.073  63.220  1.00  0.00    -0.327 OA 
HETATM   30  C   UNL     3     -12.384  14.052  65.416  1.00  0.00    -0.478 C  
ENDBRANCH   4  22
BRANCH   4  31
HETATM   31  C   UNL     3      -9.617  14.820  68.355  1.00  0.00    -0.213 C  
HETATM   32  O   UNL     3     -10.476  14.331  69.405  1.00  0.00    -0.404 OA 
HETATM   33  H   UNL     3     -10.907  15.031  69.880  1.00  0.00     0.000 HD 
ENDBRANCH   4  31
TORSDOF 4
ENDMDL
MODEL       21
REMARK 921   NORMALIZED FREE ENERGY PREDICTED BY IDOCK:   -5.05 KCAL/MOL
REMARK 922        TOTAL FREE ENERGY PREDICTED BY IDOCK:   28.10 KCAL/MOL
REMARK 923 INTER-LIGAND FREE ENERGY PREDICTED BY IDOCK:   -6.29 KCAL/MOL
REMARK 924 INTRA-LIGAND FREE ENERGY PREDICTED BY IDOCK:   34.39 KCAL/MOL
REMARK 927      BINDING AFFINITY PREDICTED BY RF-SCORE:    0.00 PKD
ROOT
HETATM    1 FE   UNL     1      -9.596  18.149  69.298  1.00  0.00    -0.281 Fe 
HETATM    2  C   UNL     2      -7.093  12.781  67.406  1.00  0.00    -0.132 C  
HETATM    3  O   UNL     2      -5.741  13.360  67.436  1.00  0.00    -0.344 OA 
HETATM    4  C   UNL     3      -6.858  16.216  67.697  1.00  0.00    -0.152 C  
HETATM    5  H   UNL     3      -6.127  14.824  66.680  1.00  0.00     0.000 HD 
HETATM    6  H   UNL     2      -5.679  13.800  66.596  1.00  0.00     0.000 HD 
HETATM    7  O   UNL     3      -5.884  15.736  66.789  1.00  0.00    -0.163 OA 
ENDROOT
BRANCH   2   8
HETATM    8  C   UNL     2      -8.126  13.903  67.448  1.00  0.00    -0.190 C  
HETATM    9  H   UNL     2      -9.906  16.496  70.514  1.00  0.00     0.000 HD 
HETATM   10  H   UNL     2      -7.939  15.848  70.522  1.00  0.00     0.000 HD 
HETATM   11  C   UNL     2      -9.724  15.878  68.673  1.00  0.00    -0.207 C  
HETATM   12  O   UNL     2      -9.740  13.837  66.393  1.00  0.00    -0.282 OA 
HETATM   13  O   UNL     2     -11.402  16.324  66.774  1.00  0.00     0.114 OA 
HETATM   14  O   UNL     2      -7.797  15.137  69.908  1.00  0.00    -0.144 OA 
HETATM   15  C   UNL     2     -10.812  15.302  67.260  1.00  0.00    -0.318 C  
HETATM   16  H   UNL     2     -11.909  17.016  67.183  1.00  0.00     0.000 HD 
HETATM   17  O   UNL     2     -10.458  16.204  69.797  1.00  0.00    -0.282 OA 
HETATM   18  C   UNL     2      -8.412  15.332  68.682  1.00  0.00    -0.168 C  
ENDBRANCH   2   8
BRANCH   2  19
HETATM   19  C   UNL     2      -7.193  12.068  68.765  1.00  0.00    -0.108 C  
HETATM   20  H   UNL     2      -8.476  10.901  69.696  1.00  0.00     0.000 HD 
HETATM   21  O   UNL     2      -8.414  11.342  68.857  1.00  0.00    -0.139 OA 
ENDBRANCH   2  19
BRANCH   4  22
HETATM   22  C   UNL     3      -8.613  15.822  67.315  1.00  0.00    -0.209 C  
HETATM   23  H   UNL     3     -10.494  13.930  64.080  1.00  0.00     0.000 HD 
HETATM   24  C   UNL     3     -10.577  16.559  65.001  1.00  0.00    -0.144 C  
HETATM   25  O   UNL     3      -9.007  17.647  67.196  1.00  0.00    -0.236 OA 
HETATM   26  O   UNL     3     -10.781  19.066  66.074  1.00  0.00    -0.437 OA 
HETATM   27  C   UNL     3      -9.852  15.293  65.503  1.00  0.00    -0.326 C  
HETATM   28  O   UNL     3     -11.556  16.698  64.204  1.00  0.00    -1.102 OA 
HETATM   29  O   UNL     3      -9.973  14.152  64.842  1.00  0.00    -0.322 OA 
HETATM   30  C   UNL     3     -10.095  18.048  65.963  1.00  0.00    -0.266 C  
ENDBRANCH   4  22
BRANCH   4  31
HETATM   31  C   UNL     3      -6.464  17.694  67.873  1.00  0.00    -0.179 C  
HETATM   32  O   UNL     3      -7.034  18.282  69.062  1.00  0.00    -0.269 OA 
HETATM   33  H   UNL     3      -6.791  19.194  69.170  1.00  0.00     0.000 HD 
ENDBRANCH   4  31
TORSDOF 4
ENDMDL
MODEL       22
REMARK 921   NORMALIZED FREE ENERGY PREDICTED BY IDOCK:   -5.04 KCAL/MOL
REMARK 922        TOTAL FREE ENERGY PREDICTED BY IDOCK:   28.11 KCAL/MOL
REMARK 923 INTER-LIGAND FREE ENERGY PREDICTED BY IDOCK:   -6.68 KCAL/MOL
REMARK 924 INTRA-LIGAND FREE ENERGY PREDICTED BY IDOCK:   34.79 KCAL/MOL
REMARK 927      BINDING AFFINITY PREDICTED BY RF-SCORE:    0.00 PKD
ROOT
HETATM    1 FE   UNL     1     -13.150  14.454  68.362  1.00  0.00    -0.547 Fe 
HETATM    2  C   UNL     2      -8.720  10.545  66.424  1.00  0.00    -0.145 C  
HETATM    3  O   UNL     2      -9.169   9.510  67.369  1.00  0.00    -0.133 OA 
HETATM    4  C   UNL     3     -10.930  11.523  68.893  1.00  0.00    -0.229 C  
HETATM    5  H   UNL     3      -9.356  10.526  68.711  1.00  0.00     0.000 HD 
HETATM    6  H   UNL     2      -8.736   9.759  68.178  1.00  0.00     0.000 HD 
HETATM    7  O   UNL     3      -9.981  10.615  69.420  1.00  0.00    -0.216 OA 
ENDROOT
BRANCH   2   8
HETATM    8  C   UNL     2      -9.320  11.890  66.821  1.00  0.00    -0.204 C  
HETATM    9  H   UNL     2     -13.175  13.939  66.334  1.00  0.00     0.000 HD 
HETATM   10  H   UNL     2     -12.957  11.899  66.623  1.00  0.00     0.000 HD 
HETATM   11  C   UNL     2     -11.333  13.861  66.969  1.00  0.00    -0.326 C  
HETATM   12  O   UNL     2      -8.301  13.525  66.724  1.00  0.00    -0.061 OA 
HETATM   13  O   UNL     2      -9.913  15.883  67.690  1.00  0.00    -0.232 OA 
HETATM   14  O   UNL     2     -12.060  11.616  66.496  1.00  0.00    -0.405 OA 
HETATM   15  C   UNL     2      -9.768  14.890  66.901  1.00  0.00    -0.240 C  
HETATM   16  H   UNL     2     -10.606  16.527  67.774  1.00  0.00     0.000 HD 
HETATM   17  O   UNL     2     -12.381  14.461  66.299  1.00  0.00    -0.409 OA 
HETATM   18  C   UNL     2     -11.125  12.458  67.077  1.00  0.00    -0.278 C  
ENDBRANCH   2   8
BRANCH   2  19
HETATM   19  C   UNL     2      -9.420  10.142  65.115  1.00  0.00    -0.260 C  
HETATM   20  H   UNL     2      -9.977  11.020  63.443  1.00  0.00     0.000 HD 
HETATM   21  O   UNL     2      -9.544  11.268  64.252  1.00  0.00    -0.234 OA 
ENDBRANCH   2  19
BRANCH   4  22
HETATM   22  C   UNL     3     -10.269  13.054  68.118  1.00  0.00    -0.239 C  
HETATM   23  H   UNL     3      -6.426  14.710  67.847  1.00  0.00     0.000 HD 
HETATM   24  C   UNL     3      -8.729  15.560  69.167  1.00  0.00    -0.247 C  
HETATM   25  O   UNL     3     -11.239  14.099  69.329  1.00  0.00    -0.255 OA 
HETATM   26  O   UNL     3     -11.071  16.448  70.263  1.00  0.00    -0.359 OA 
HETATM   27  C   UNL     3      -8.422  14.342  68.270  1.00  0.00    -0.165 C  
HETATM   28  O   UNL     3      -8.109  16.657  69.323  1.00  0.00    -0.193 OA 
HETATM   29  O   UNL     3      -7.203  14.167  67.783  1.00  0.00    -0.141 OA 
HETATM   30  C   UNL     3     -10.420  15.475  69.878  1.00  0.00    -0.313 C  
ENDBRANCH   4  22
BRANCH   4  31
HETATM   31  C   UNL     3     -11.943  11.668  70.043  1.00  0.00    -0.351 C  
HETATM   32  O   UNL     3     -12.853  10.550  70.125  1.00  0.00    -0.499 OA 
HETATM   33  H   UNL     3     -13.478  10.639  70.834  1.00  0.00     0.000 HD 
ENDBRANCH   4  31
TORSDOF 4
ENDMDL
MODEL       23
REMARK 921   NORMALIZED FREE ENERGY PREDICTED BY IDOCK:   -4.99 KCAL/MOL
REMARK 922        TOTAL FREE ENERGY PREDICTED BY IDOCK:   28.17 KCAL/MOL
REMARK 923 INTER-LIGAND FREE ENERGY PREDICTED BY IDOCK:   -6.21 KCAL/MOL
REMARK 924 INTRA-LIGAND FREE ENERGY PREDICTED BY IDOCK:   34.39 KCAL/MOL
REMARK 927      BINDING AFFINITY PREDICTED BY RF-SCORE:    0.00 PKD
ROOT
HETATM    1 FE   UNL     1     -10.495   9.233  65.111  1.00  0.00    -0.382 Fe 
HETATM    2  C   UNL     2     -10.675  14.833  67.807  1.00  0.00    -0.268 C  
HETATM    3  O   UNL     2     -11.109  15.463  66.551  1.00  0.00    -0.308 OA 
HETATM    4  C   UNL     3     -10.416  12.941  64.927  1.00  0.00    -0.331 C  
HETATM    5  H   UNL     3     -10.015  14.667  65.533  1.00  0.00     0.000 HD 
HETATM    6  H   UNL     2     -10.291  15.601  66.088  1.00  0.00     0.000 HD 
HETATM    7  O   UNL     3     -10.043  14.282  64.666  1.00  0.00    -0.318 OA 
ENDROOT
BRANCH   2   8
HETATM    8  C   UNL     2     -10.124  13.441  67.513  1.00  0.00    -0.227 C  
HETATM    9  H   UNL     2     -11.778   9.461  66.664  1.00  0.00     0.000 HD 
HETATM   10  H   UNL     2     -12.623  11.244  66.031  1.00  0.00     0.000 HD 
HETATM   11  C   UNL     2     -10.283  10.684  66.938  1.00  0.00    -0.223 C  
HETATM   12  O   UNL     2      -8.590  12.737  68.447  1.00  0.00    -0.177 OA 
HETATM   13  O   UNL     2      -7.858   9.990  67.443  1.00  0.00    -0.099 OA 
HETATM   14  O   UNL     2     -12.251  11.992  66.481  1.00  0.00    -0.548 OA 
HETATM   15  C   UNL     2      -8.711  10.792  67.952  1.00  0.00    -0.129 C  
HETATM   16  H   UNL     2      -7.915   9.071  67.210  1.00  0.00     0.000 HD 
HETATM   17  O   UNL     2     -10.981   9.516  67.178  1.00  0.00    -0.168 OA 
HETATM   18  C   UNL     2     -10.872  11.935  66.607  1.00  0.00    -0.276 C  
ENDBRANCH   2   8
BRANCH   2  19
HETATM   19  C   UNL     2     -12.000  14.609  68.556  1.00  0.00    -0.263 C  
HETATM   20  H   UNL     2     -12.586  13.783  70.244  1.00  0.00     0.000 HD 
HETATM   21  O   UNL     2     -11.768  13.921  69.781  1.00  0.00    -0.281 OA 
ENDBRANCH   2  19
BRANCH   4  22
HETATM   22  C   UNL     3      -9.477  12.062  66.241  1.00  0.00    -0.237 C  
HETATM   23  H   UNL     3      -6.130  13.079  68.552  1.00  0.00     0.000 HD 
HETATM   24  C   UNL     3      -6.511  11.145  66.582  1.00  0.00    -0.134 C  
HETATM   25  O   UNL     3      -8.924  10.777  64.999  1.00  0.00    -0.195 OA 
HETATM   26  O   UNL     3      -7.007   9.133  64.798  1.00  0.00    -0.083 OA 
HETATM   27  C   UNL     3      -7.447  12.194  67.219  1.00  0.00    -0.152 C  
HETATM   28  O   UNL     3      -5.396  10.678  66.971  1.00  0.00    -0.040 OA 
HETATM   29  O   UNL     3      -6.984  13.024  68.141  1.00  0.00    -0.082 OA 
HETATM   30  C   UNL     3      -7.327  10.254  65.199  1.00  0.00    -0.127 C  
ENDBRANCH   4  22
BRANCH   4  31
HETATM   31  C   UNL     3     -10.461  12.317  63.521  1.00  0.00    -0.424 C  
HETATM   32  O   UNL     3     -11.413  11.237  63.423  1.00  0.00    -0.741 OA 
HETATM   33  H   UNL     3     -11.441  10.852  62.556  1.00  0.00     0.000 HD 
ENDBRANCH   4  31
TORSDOF 4
ENDMDL
MODEL       24
REMARK 921   NORMALIZED FREE ENERGY PREDICTED BY IDOCK:   -4.99 KCAL/MOL
REMARK 922        TOTAL FREE ENERGY PREDICTED BY IDOCK:   28.18 KCAL/MOL
REMARK 923 INTER-LIGAND FREE ENERGY PREDICTED BY IDOCK:   -6.16 KCAL/MOL
REMARK 924 INTRA-LIGAND FREE ENERGY PREDICTED BY IDOCK:   34.34 KCAL/MOL
REMARK 927      BINDING AFFINITY PREDICTED BY RF-SCORE:    0.00 PKD
ROOT
HETATM    1 FE   UNL     1      -8.121  11.257  67.157  1.00  0.00    -0.115 Fe 
HETATM    2  C   UNL     2     -12.082  15.709  68.932  1.00  0.00    -0.161 C  
HETATM    3  O   UNL     2     -12.529  14.904  70.079  1.00  0.00    -0.437 OA 
HETATM    4  C   UNL     3     -11.163  12.378  68.969  1.00  0.00    -0.266 C  
HETATM    5  H   UNL     3     -12.683  13.435  69.251  1.00  0.00     0.000 HD 
HETATM    6  H   UNL     2     -13.186  14.333  69.696  1.00  0.00     0.000 HD 
HETATM    7  O   UNL     3     -12.493  12.523  69.434  1.00  0.00     0.011 OA 
ENDROOT
BRANCH   2   8
HETATM    8  C   UNL     2     -11.333  14.817  67.947  1.00  0.00    -0.331 C  
HETATM    9  H   UNL     2      -7.312  13.077  67.629  1.00  0.00     0.000 HD 
HETATM   10  H   UNL     2      -8.339  13.343  69.408  1.00  0.00     0.000 HD 
HETATM   11  C   UNL     2      -9.120  13.374  66.959  1.00  0.00    -0.243 C  
HETATM   12  O   UNL     2     -11.525  15.026  66.039  1.00  0.00    -0.321 OA 
HETATM   13  O   UNL     2      -9.902  12.975  64.540  1.00  0.00    -0.589 OA 
HETATM   14  O   UNL     2      -9.089  13.917  69.303  1.00  0.00     0.258 OA 
HETATM   15  C   UNL     2      -9.972  13.929  65.385  1.00  0.00    -0.247 C  
HETATM   16  H   UNL     2      -9.168  12.457  64.231  1.00  0.00     0.000 HD 
HETATM   17  O   UNL     2      -7.744  13.359  66.830  1.00  0.00     0.053 OA 
HETATM   18  C   UNL     2      -9.827  13.663  68.158  1.00  0.00    -0.236 C  
ENDBRANCH   2   8
BRANCH   2  19
HETATM   19  C   UNL     2     -11.020  16.632  69.553  1.00  0.00    -0.228 C  
HETATM   20  H   UNL     2      -9.471  17.678  68.934  1.00  0.00     0.000 HD 
HETATM   21  O   UNL     2     -10.127  17.107  68.551  1.00  0.00    -0.288 OA 
ENDBRANCH   2  19
BRANCH   4  22
HETATM   22  C   UNL     3     -10.801  13.024  67.286  1.00  0.00    -0.270 C  
HETATM   23  H   UNL     3     -13.187  14.706  64.276  1.00  0.00     0.000 HD 
HETATM   24  C   UNL     3     -11.768  12.311  64.403  1.00  0.00    -0.365 C  
HETATM   25  O   UNL     3     -10.322  11.306  66.719  1.00  0.00    -0.221 OA 
HETATM   26  O   UNL     3     -10.190  10.080  64.506  1.00  0.00    -0.161 OA 
HETATM   27  C   UNL     3     -11.937  13.484  65.390  1.00  0.00    -0.379 C  
HETATM   28  O   UNL     3     -11.991  12.232  63.155  1.00  0.00    -0.406 OA 
HETATM   29  O   UNL     3     -12.709  14.512  65.074  1.00  0.00    -0.525 OA 
HETATM   30  C   UNL     3     -10.818  10.926  65.146  1.00  0.00    -0.063 C  
ENDBRANCH   4  22
BRANCH   4  31
HETATM   31  C   UNL     3     -10.855  10.899  69.264  1.00  0.00    -0.241 C  
HETATM   32  O   UNL     3      -9.447  10.656  69.469  1.00  0.00    -0.395 OA 
HETATM   33  H   UNL     3      -9.257   9.744  69.651  1.00  0.00     0.000 HD 
ENDBRANCH   4  31
TORSDOF 4
ENDMDL
MODEL       25
REMARK 921   NORMALIZED FREE ENERGY PREDICTED BY IDOCK:   -4.98 KCAL/MOL
REMARK 922        TOTAL FREE ENERGY PREDICTED BY IDOCK:   28.19 KCAL/MOL
REMARK 923 INTER-LIGAND FREE ENERGY PREDICTED BY IDOCK:   -6.30 KCAL/MOL
REMARK 924 INTRA-LIGAND FREE ENERGY PREDICTED BY IDOCK:   34.49 KCAL/MOL
REMARK 927      BINDING AFFINITY PREDICTED BY RF-SCORE:    0.00 PKD
ROOT
HETATM    1 FE   UNL     1      -9.502  10.916  65.821  1.00  0.00    -0.171 Fe 
HETATM    2  C   UNL     2     -10.337  16.259  68.888  1.00  0.00    -0.263 C  
HETATM    3  O   UNL     2      -8.885  16.471  68.988  1.00  0.00    -0.257 OA 
HETATM    4  C   UNL     3      -8.301  13.576  68.117  1.00  0.00    -0.167 C  
HETATM    5  H   UNL     3      -8.478  14.891  69.439  1.00  0.00     0.000 HD 
HETATM    6  H   UNL     2      -8.646  15.954  69.749  1.00  0.00     0.000 HD 
HETATM    7  O   UNL     3      -7.783  14.277  69.233  1.00  0.00    -0.072 OA 
ENDROOT
BRANCH   2   8
HETATM    8  C   UNL     2     -10.614  14.807  68.510  1.00  0.00    -0.248 C  
HETATM    9  H   UNL     2     -10.520  12.384  64.847  1.00  0.00     0.000 HD 
HETATM   10  H   UNL     2      -9.199  13.922  65.272  1.00  0.00     0.000 HD 
HETATM   11  C   UNL     2     -10.829  12.605  66.760  1.00  0.00    -0.250 C  
HETATM   12  O   UNL     2     -12.091  13.825  69.267  1.00  0.00    -0.334 OA 
HETATM   13  O   UNL     2     -12.153  10.984  68.257  1.00  0.00    -0.737 OA 
HETATM   14  O   UNL     2      -9.500  14.459  65.995  1.00  0.00    -0.282 OA 
HETATM   15  C   UNL     2     -12.159  12.240  68.030  1.00  0.00     0.003 C  
HETATM   16  H   UNL     2     -12.185  10.236  67.672  1.00  0.00     0.000 HD 
HETATM   17  O   UNL     2     -11.194  12.199  65.491  1.00  0.00    -0.313 OA 
HETATM   18  C   UNL     2     -10.008  13.727  67.056  1.00  0.00    -0.251 C  
ENDBRANCH   2   8
BRANCH   2  19
HETATM   19  C   UNL     2     -10.723  17.095  67.656  1.00  0.00    -0.302 C  
HETATM   20  H   UNL     2      -9.903  18.496  66.543  1.00  0.00     0.000 HD 
HETATM   21  O   UNL     2      -9.664  17.979  67.304  1.00  0.00    -0.283 OA 
ENDBRANCH   2  19
BRANCH   4  22
HETATM   22  C   UNL     3     -10.016  12.931  68.268  1.00  0.00    -0.234 C  
HETATM   23  H   UNL     3     -12.854  13.008  71.354  1.00  0.00     0.000 HD 
HETATM   24  C   UNL     3     -11.444  10.912  70.177  1.00  0.00    -0.319 C  
HETATM   25  O   UNL     3      -9.377  11.176  68.146  1.00  0.00    -0.163 OA 
HETATM   26  O   UNL     3     -10.191   8.881  68.843  1.00  0.00    -0.196 OA 
HETATM   27  C   UNL     3     -11.476  12.433  69.917  1.00  0.00    -0.097 C  
HETATM   28  O   UNL     3     -12.252  10.156  70.799  1.00  0.00    -0.298 OA 
HETATM   29  O   UNL     3     -12.240  13.218  70.661  1.00  0.00    -0.360 OA 
HETATM   30  C   UNL     3     -10.169  10.073  69.156  1.00  0.00    -0.210 C  
ENDBRANCH   4  22
BRANCH   4  31
HETATM   31  C   UNL     3      -7.174  12.581  67.783  1.00  0.00    -0.125 C  
HETATM   32  O   UNL     3      -7.289  12.041  66.450  1.00  0.00    -0.367 OA 
HETATM   33  H   UNL     3      -6.594  11.427  66.244  1.00  0.00     0.000 HD 
ENDBRANCH   4  31
TORSDOF 4
ENDMDL
MODEL       26
REMARK 921   NORMALIZED FREE ENERGY PREDICTED BY IDOCK:   -4.97 KCAL/MOL
REMARK 922        TOTAL FREE ENERGY PREDICTED BY IDOCK:   28.19 KCAL/MOL
REMARK 923 INTER-LIGAND FREE ENERGY PREDICTED BY IDOCK:   -6.84 KCAL/MOL
REMARK 924 INTRA-LIGAND FREE ENERGY PREDICTED BY IDOCK:   35.03 KCAL/MOL
REMARK 927      BINDING AFFINITY PREDICTED BY RF-SCORE:    0.00 PKD
ROOT
HETATM    1 FE   UNL     1     -13.022  14.114  68.185  1.00  0.00    -0.535 Fe 
HETATM    2  C   UNL     2      -7.837  17.321  66.965  1.00  0.00    -0.214 C  
HETATM    3  O   UNL     2      -8.415  17.853  65.721  1.00  0.00    -0.513 OA 
HETATM    4  C   UNL     3     -10.734  15.829  65.815  1.00  0.00    -0.327 C  
HETATM    5  H   UNL     3      -9.073  16.396  65.162  1.00  0.00     0.000 HD 
HETATM    6  H   UNL     2      -8.251  17.156  65.096  1.00  0.00     0.000 HD 
HETATM    7  O   UNL     3      -9.875  16.128  64.730  1.00  0.00    -0.002 OA 
ENDROOT
BRANCH   2   8
HETATM    8  C   UNL     2      -8.664  16.132  67.442  1.00  0.00    -0.194 C  
HETATM    9  H   UNL     2     -12.435  15.523  69.611  1.00  0.00     0.000 HD 
HETATM   10  H   UNL     2     -12.087  17.063  68.269  1.00  0.00     0.000 HD 
HETATM   11  C   UNL     2     -10.840  14.858  68.707  1.00  0.00    -0.252 C  
HETATM   12  O   UNL     2      -7.840  14.556  68.189  1.00  0.00    -0.118 OA 
HETATM   13  O   UNL     2      -9.899  12.471  68.900  1.00  0.00    -0.419 OA 
HETATM   14  O   UNL     2     -11.164  17.155  68.066  1.00  0.00    -0.224 OA 
HETATM   15  C   UNL     2      -9.436  13.655  69.016  1.00  0.00     0.260 C  
HETATM   16  H   UNL     2     -10.653  12.046  69.291  1.00  0.00     0.000 HD 
HETATM   17  O   UNL     2     -11.723  14.913  69.768  1.00  0.00    -0.270 OA 
HETATM   18  C   UNL     2     -10.520  15.947  67.850  1.00  0.00    -0.288 C  
ENDBRANCH   2   8
BRANCH   2  19
HETATM   19  C   UNL     2      -8.102  18.449  67.977  1.00  0.00    -0.274 C  
HETATM   20  H   UNL     2      -9.106  20.142  68.027  1.00  0.00     0.000 HD 
HETATM   21  O   UNL     2      -8.942  19.445  67.402  1.00  0.00    -0.290 OA 
ENDBRANCH   2  19
BRANCH   4  22
HETATM   22  C   UNL     3     -10.053  14.747  67.137  1.00  0.00    -0.240 C  
HETATM   23  H   UNL     3      -6.555  12.458  67.458  1.00  0.00     0.000 HD 
HETATM   24  C   UNL     3      -9.243  11.736  67.311  1.00  0.00    -0.173 C  
HETATM   25  O   UNL     3     -11.477  13.556  66.909  1.00  0.00    -0.316 OA 
HETATM   26  O   UNL     3     -11.902  11.102  67.376  1.00  0.00    -0.570 OA 
HETATM   27  C   UNL     3      -8.521  13.100  67.325  1.00  0.00    -0.198 C  
HETATM   28  O   UNL     3      -8.843  10.579  67.647  1.00  0.00    -0.130 OA 
HETATM   29  O   UNL     3      -7.199  13.151  67.379  1.00  0.00    -0.155 OA 
HETATM   30  C   UNL     3     -11.049  11.923  67.033  1.00  0.00    -0.302 C  
ENDBRANCH   4  22
BRANCH   4  31
HETATM   31  C   UNL     3     -12.034  15.394  65.115  1.00  0.00     0.146 C  
HETATM   32  O   UNL     3     -12.156  15.939  63.784  1.00  0.00    -1.239 OA 
HETATM   33  H   UNL     3     -12.958  15.671  63.352  1.00  0.00     0.000 HD 
ENDBRANCH   4  31
TORSDOF 4
ENDMDL
MODEL       27
REMARK 921   NORMALIZED FREE ENERGY PREDICTED BY IDOCK:   -4.96 KCAL/MOL
REMARK 922        TOTAL FREE ENERGY PREDICTED BY IDOCK:   28.21 KCAL/MOL
REMARK 923 INTER-LIGAND FREE ENERGY PREDICTED BY IDOCK:   -6.14 KCAL/MOL
REMARK 924 INTRA-LIGAND FREE ENERGY PREDICTED BY IDOCK:   34.35 KCAL/MOL
REMARK 927      BINDING AFFINITY PREDICTED BY RF-SCORE:    0.00 PKD
ROOT
HETATM    1 FE   UNL     1      -9.173  10.890  69.847  1.00  0.00    -0.347 Fe 
HETATM    2  C   UNL     2      -9.855   4.751  69.138  1.00  0.00    -0.184 C  
HETATM    3  O   UNL     2      -9.975   4.896  67.679  1.00  0.00    -0.164 OA 
HETATM    4  C   UNL     3     -10.342   7.944  67.911  1.00  0.00    -0.221 C  
HETATM    5  H   UNL     3     -11.033   6.217  67.691  1.00  0.00     0.000 HD 
HETATM    6  H   UNL     2     -10.892   5.113  67.561  1.00  0.00     0.000 HD 
HETATM    7  O   UNL     3     -11.134   7.018  67.190  1.00  0.00    -0.350 OA 
ENDROOT
BRANCH   2   8
HETATM    8  C   UNL     2     -10.049   6.110  69.801  1.00  0.00    -0.229 C  
HETATM    9  H   UNL     2      -7.611   9.692  70.526  1.00  0.00     0.000 HD 
HETATM   10  H   UNL     2      -7.484   8.508  68.831  1.00  0.00     0.000 HD 
HETATM   11  C   UNL     2      -9.272   8.680  70.670  1.00  0.00    -0.174 C  
HETATM   12  O   UNL     2     -11.042   6.307  71.443  1.00  0.00    -0.263 OA 
HETATM   13  O   UNL     2     -11.201   9.196  72.292  1.00  0.00    -0.249 OA 
HETATM   14  O   UNL     2      -7.927   7.676  68.945  1.00  0.00    -0.120 OA 
HETATM   15  C   UNL     2     -10.508   8.169  71.983  1.00  0.00    -0.263 C  
HETATM   16  H   UNL     2     -10.949  10.076  72.547  1.00  0.00     0.000 HD 
HETATM   17  O   UNL     2      -8.238   9.434  71.191  1.00  0.00    -0.314 OA 
HETATM   18  C   UNL     2      -9.158   7.784  69.571  1.00  0.00    -0.146 C  
ENDBRANCH   2   8
BRANCH   2  19
HETATM   19  C   UNL     2      -8.369   4.400  69.328  1.00  0.00    -0.074 C  
HETATM   20  H   UNL     2      -7.117   4.172  70.829  1.00  0.00     0.000 HD 
HETATM   21  O   UNL     2      -8.035   4.388  70.712  1.00  0.00    -0.062 OA 
ENDBRANCH   2  19
BRANCH   4  22
HETATM   22  C   UNL     3     -10.601   8.016  69.730  1.00  0.00    -0.238 C  
HETATM   23  H   UNL     3     -13.333   6.168  72.319  1.00  0.00     0.000 HD 
HETATM   24  C   UNL     3     -12.980   8.832  71.581  1.00  0.00    -0.349 C  
HETATM   25  O   UNL     3     -11.090   9.816  69.600  1.00  0.00    -0.237 OA 
HETATM   26  O   UNL     3     -12.451  11.447  70.982  1.00  0.00    -0.386 OA 
HETATM   27  C   UNL     3     -12.238   7.532  71.207  1.00  0.00    -0.329 C  
HETATM   28  O   UNL     3     -13.769   9.095  72.540  1.00  0.00    -0.474 OA 
HETATM   29  O   UNL     3     -12.644   6.372  71.698  1.00  0.00    -0.247 OA 
HETATM   30  C   UNL     3     -12.359  10.271  70.623  1.00  0.00    -0.325 C  
ENDBRANCH   4  22
BRANCH   4  31
HETATM   31  C   UNL     3     -10.507   9.242  67.099  1.00  0.00    -0.249 C  
HETATM   32  O   UNL     3      -9.465  10.203  67.372  1.00  0.00    -0.150 OA 
HETATM   33  H   UNL     3      -9.566  11.003  66.872  1.00  0.00     0.000 HD 
ENDBRANCH   4  31
TORSDOF 4
ENDMDL
MODEL       28
REMARK 921   NORMALIZED FREE ENERGY PREDICTED BY IDOCK:   -4.93 KCAL/MOL
REMARK 922        TOTAL FREE ENERGY PREDICTED BY IDOCK:   28.24 KCAL/MOL
REMARK 923 INTER-LIGAND FREE ENERGY PREDICTED BY IDOCK:   -6.17 KCAL/MOL
REMARK 924 INTRA-LIGAND FREE ENERGY PREDICTED BY IDOCK:   34.41 KCAL/MOL
REMARK 927      BINDING AFFINITY PREDICTED BY RF-SCORE:    0.00 PKD
ROOT
HETATM    1 FE   UNL     1      -9.407  15.645  70.619  1.00  0.00    -0.133 Fe 
HETATM    2  C   UNL     2      -9.850  12.159  65.489  1.00  0.00    -0.221 C  
HETATM    3  O   UNL     2      -8.501  11.611  65.701  1.00  0.00    -0.383 OA 
HETATM    4  C   UNL     3      -7.860  13.742  67.829  1.00  0.00    -0.172 C  
HETATM    5  H   UNL     3      -7.743  13.076  66.083  1.00  0.00     0.000 HD 
HETATM    6  H   UNL     2      -7.939  12.277  65.322  1.00  0.00     0.000 HD 
HETATM    7  O   UNL     3      -7.086  13.365  66.705  1.00  0.00     0.316 OA 
ENDROOT
BRANCH   2   8
HETATM    8  C   UNL     2     -10.035  13.402  66.354  1.00  0.00    -0.293 C  
HETATM    9  H   UNL     2     -10.968  14.261  70.559  1.00  0.00     0.000 HD 
HETATM   10  H   UNL     2      -9.822  12.661  69.914  1.00  0.00     0.000 HD 
HETATM   11  C   UNL     2     -10.568  14.819  68.734  1.00  0.00    -0.251 C  
HETATM   12  O   UNL     2     -10.963  14.962  65.703  1.00  0.00    -0.320 OA 
HETATM   13  O   UNL     2     -10.986  17.165  67.762  1.00  0.00    -0.315 OA 
HETATM   14  O   UNL     2      -9.905  12.519  68.979  1.00  0.00     0.066 OA 
HETATM   15  C   UNL     2     -11.258  15.965  67.421  1.00  0.00    -0.134 C  
HETATM   16  H   UNL     2     -11.126  17.639  68.574  1.00  0.00     0.000 HD 
HETATM   17  O   UNL     2     -11.318  14.843  69.894  1.00  0.00    -0.254 OA 
HETATM   18  C   UNL     2      -9.867  13.687  68.234  1.00  0.00    -0.232 C  
ENDBRANCH   2   8
BRANCH   2  19
HETATM   19  C   UNL     2     -10.759  11.081  66.104  1.00  0.00    -0.194 C  
HETATM   20  H   UNL     2     -12.573  10.979  66.862  1.00  0.00     0.000 HD 
HETATM   21  O   UNL     2     -12.011  11.645  66.482  1.00  0.00    -0.474 OA 
ENDBRANCH   2  19
BRANCH   4  22
HETATM   22  C   UNL     3      -9.302  14.837  67.512  1.00  0.00    -0.194 C  
HETATM   23  H   UNL     3     -10.829  16.648  64.052  1.00  0.00     0.000 HD 
HETATM   24  C   UNL     3      -9.663  17.714  66.348  1.00  0.00    -0.294 C  
HETATM   25  O   UNL     3      -8.518  16.186  68.544  1.00  0.00    -0.179 OA 
HETATM   26  O   UNL     3      -8.707  18.707  68.709  1.00  0.00    -0.323 OA 
HETATM   27  C   UNL     3      -9.993  16.271  65.910  1.00  0.00    -0.339 C  
HETATM   28  O   UNL     3     -10.084  18.831  65.918  1.00  0.00    -0.512 OA 
HETATM   29  O   UNL     3     -10.539  16.045  64.726  1.00  0.00    -0.600 OA 
HETATM   30  C   UNL     3      -8.737  17.750  67.934  1.00  0.00    -0.251 C  
ENDBRANCH   4  22
BRANCH   4  31
HETATM   31  C   UNL     3      -6.796  14.211  68.838  1.00  0.00    -0.106 C  
HETATM   32  O   UNL     3      -7.275  14.191  70.199  1.00  0.00    -0.374 OA 
HETATM   33  H   UNL     3      -6.618  14.481  70.821  1.00  0.00     0.000 HD 
ENDBRANCH   4  31
TORSDOF 4
ENDMDL
MODEL       29
REMARK 921   NORMALIZED FREE ENERGY PREDICTED BY IDOCK:   -4.93 KCAL/MOL
REMARK 922        TOTAL FREE ENERGY PREDICTED BY IDOCK:   28.25 KCAL/MOL
REMARK 923 INTER-LIGAND FREE ENERGY PREDICTED BY IDOCK:   -6.19 KCAL/MOL
REMARK 924 INTRA-LIGAND FREE ENERGY PREDICTED BY IDOCK:   34.44 KCAL/MOL
REMARK 927      BINDING AFFINITY PREDICTED BY RF-SCORE:    0.00 PKD
ROOT
HETATM    1 FE   UNL     1     -12.533  11.047  67.215  1.00  0.00     0.064 Fe 
HETATM    2  C   UNL     2      -8.960  16.125  66.882  1.00  0.00    -0.223 C  
HETATM    3  O   UNL     2      -9.554  16.502  65.590  1.00  0.00    -0.511 OA 
HETATM    4  C   UNL     3     -10.864  13.735  65.269  1.00  0.00    -0.324 C  
HETATM    5  H   UNL     3      -9.504  14.964  64.885  1.00  0.00     0.000 HD 
HETATM    6  H   UNL     2      -9.054  15.987  64.968  1.00  0.00     0.000 HD 
HETATM    7  O   UNL     3     -10.076  14.445  64.332  1.00  0.00    -0.117 OA 
ENDROOT
BRANCH   2   8
HETATM    8  C   UNL     2      -9.291  14.668  67.187  1.00  0.00    -0.231 C  
HETATM    9  H   UNL     2     -12.745  12.427  68.719  1.00  0.00     0.000 HD 
HETATM   10  H   UNL     2     -12.875  14.094  67.496  1.00  0.00     0.000 HD 
HETATM   11  C   UNL     2     -10.914  12.530  68.057  1.00  0.00    -0.232 C  
HETATM   12  O   UNL     2      -8.007  13.484  68.006  1.00  0.00    -0.126 OA 
HETATM   13  O   UNL     2      -9.124  10.701  68.322  1.00  0.00    -0.142 OA 
HETATM   14  O   UNL     2     -12.050  14.561  67.443  1.00  0.00    -0.380 OA 
HETATM   15  C   UNL     2      -9.198  11.956  68.545  1.00  0.00    -0.134 C  
HETATM   16  H   UNL     2      -9.686   9.979  68.577  1.00  0.00     0.000 HD 
HETATM   17  O   UNL     2     -11.876  12.136  68.967  1.00  0.00    -0.303 OA 
HETATM   18  C   UNL     2     -10.951  13.729  67.294  1.00  0.00    -0.292 C  
ENDBRANCH   2   8
BRANCH   2  19
HETATM   19  C   UNL     2      -9.770  16.959  67.890  1.00  0.00    -0.254 C  
HETATM   20  H   UNL     2      -9.440  18.455  69.125  1.00  0.00     0.000 HD 
HETATM   21  O   UNL     2      -8.939  17.940  68.503  1.00  0.00    -0.286 OA 
ENDBRANCH   2  19
BRANCH   4  22
HETATM   22  C   UNL     3      -9.965  12.886  66.631  1.00  0.00    -0.251 C  
HETATM   23  H   UNL     3      -5.897  12.336  67.485  1.00  0.00     0.000 HD 
HETATM   24  C   UNL     3      -7.908  10.540  66.779  1.00  0.00    -0.121 C  
HETATM   25  O   UNL     3     -10.640  11.236  66.062  1.00  0.00    -0.258 OA 
HETATM   26  O   UNL     3      -9.964   8.806  66.290  1.00  0.00    -0.283 OA 
HETATM   27  C   UNL     3      -7.897  12.066  67.013  1.00  0.00    -0.138 C  
HETATM   28  O   UNL     3      -7.079   9.640  67.116  1.00  0.00    -0.084 OA 
HETATM   29  O   UNL     3      -6.767  12.681  67.324  1.00  0.00    -0.155 OA 
HETATM   30  C   UNL     3      -9.539   9.956  66.169  1.00  0.00    -0.218 C  
ENDBRANCH   4  22
BRANCH   4  31
HETATM   31  C   UNL     3     -11.790  12.894  64.372  1.00  0.00    -0.383 C  
HETATM   32  O   UNL     3     -13.052  12.593  65.005  1.00  0.00    -0.808 OA 
HETATM   33  H   UNL     3     -13.624  12.075  64.452  1.00  0.00     0.000 HD 
ENDBRANCH   4  31
TORSDOF 4
ENDMDL
MODEL       30
REMARK 921   NORMALIZED FREE ENERGY PREDICTED BY IDOCK:   -4.88 KCAL/MOL
REMARK 922        TOTAL FREE ENERGY PREDICTED BY IDOCK:   28.30 KCAL/MOL
REMARK 923 INTER-LIGAND FREE ENERGY PREDICTED BY IDOCK:   -6.35 KCAL/MOL
REMARK 924 INTRA-LIGAND FREE ENERGY PREDICTED BY IDOCK:   34.65 KCAL/MOL
REMARK 927      BINDING AFFINITY PREDICTED BY RF-SCORE:    0.00 PKD
ROOT
HETATM    1 FE   UNL     1      -8.500  10.869  70.241  1.00  0.00    -0.353 Fe 
HETATM    2  C   UNL     2     -10.668  13.786  65.196  1.00  0.00    -0.358 C  
HETATM    3  O   UNL     2     -11.916  14.138  65.892  1.00  0.00    -0.376 OA 
HETATM    4  C   UNL     3     -11.304  12.185  68.191  1.00  0.00    -0.293 C  
HETATM    5  H   UNL     3     -12.188  12.625  66.601  1.00  0.00     0.000 HD 
HETATM    6  H   UNL     2     -12.444  13.355  65.789  1.00  0.00     0.000 HD 
HETATM    7  O   UNL     3     -12.498  12.308  67.441  1.00  0.00    -0.134 OA 
ENDROOT
BRANCH   2   8
HETATM    8  C   UNL     2      -9.944  12.691  65.974  1.00  0.00    -0.267 C  
HETATM    9  H   UNL     2      -7.359  12.463  69.518  1.00  0.00     0.000 HD 
HETATM   10  H   UNL     2      -8.939  13.784  69.300  1.00  0.00     0.000 HD 
HETATM   11  C   UNL     2      -8.303  11.649  68.018  1.00  0.00    -0.148 C  
HETATM   12  O   UNL     2      -9.056  11.230  65.082  1.00  0.00    -0.189 OA 
HETATM   13  O   UNL     2      -7.853   9.302  67.064  1.00  0.00    -0.098 OA 
HETATM   14  O   UNL     2      -9.241  13.832  68.401  1.00  0.00    -0.198 OA 
HETATM   15  C   UNL     2      -7.957  10.483  66.592  1.00  0.00    -0.125 C  
HETATM   16  H   UNL     2      -7.334   8.949  67.777  1.00  0.00     0.000 HD 
HETATM   17  O   UNL     2      -7.182  11.872  68.795  1.00  0.00    -0.104 OA 
HETATM   18  C   UNL     2      -9.337  12.596  67.782  1.00  0.00    -0.198 C  
ENDBRANCH   2   8
BRANCH   2  19
HETATM   19  C   UNL     2      -9.812  15.054  65.362  1.00  0.00    -0.277 C  
HETATM   20  H   UNL     2      -9.985  16.976  64.978  1.00  0.00     0.000 HD 
HETATM   21  O   UNL     2     -10.514  16.193  64.876  1.00  0.00    -0.605 OA 
ENDBRANCH   2  19
BRANCH   4  22
HETATM   22  C   UNL     3      -9.909  11.298  67.387  1.00  0.00    -0.201 C  
HETATM   23  H   UNL     3      -9.537   9.202  63.774  1.00  0.00     0.000 HD 
HETATM   24  C   UNL     3      -9.429   8.363  66.430  1.00  0.00    -0.227 C  
HETATM   25  O   UNL     3      -9.904  10.033  68.765  1.00  0.00    -0.156 OA 
HETATM   26  O   UNL     3      -9.125   7.639  69.049  1.00  0.00    -0.144 OA 
HETATM   27  C   UNL     3      -9.622   9.746  65.772  1.00  0.00    -0.254 C  
HETATM   28  O   UNL     3      -8.985   7.271  65.959  1.00  0.00    -0.165 OA 
HETATM   29  O   UNL     3      -9.658   9.854  64.453  1.00  0.00    -0.294 OA 
HETATM   30  C   UNL     3      -9.615   8.445  68.255  1.00  0.00    -0.144 C  
ENDBRANCH   4  22
BRANCH   4  31
HETATM   31  C   UNL     3     -11.805  11.671  69.553  1.00  0.00    -0.348 C  
HETATM   32  O   UNL     3     -12.731  10.572  69.425  1.00  0.00    -0.692 OA 
HETATM   33  H   UNL     3     -13.041  10.255  70.265  1.00  0.00     0.000 HD 
ENDBRANCH   4  31
TORSDOF 4
ENDMDL
MODEL       31
REMARK 921   NORMALIZED FREE ENERGY PREDICTED BY IDOCK:   -4.79 KCAL/MOL
REMARK 922        TOTAL FREE ENERGY PREDICTED BY IDOCK:   28.42 KCAL/MOL
REMARK 923 INTER-LIGAND FREE ENERGY PREDICTED BY IDOCK:   -6.00 KCAL/MOL
REMARK 924 INTRA-LIGAND FREE ENERGY PREDICTED BY IDOCK:   34.42 KCAL/MOL
REMARK 927      BINDING AFFINITY PREDICTED BY RF-SCORE:    0.00 PKD
ROOT
HETATM    1 FE   UNL     1     -10.092  14.400  68.844  1.00  0.00    -0.192 Fe 
HETATM    2  C   UNL     2      -9.834  10.362  64.123  1.00  0.00    -0.313 C  
HETATM    3  O   UNL     2     -10.844  11.122  63.370  1.00  0.00    -0.642 OA 
HETATM    4  C   UNL     3     -11.587  12.787  65.850  1.00  0.00    -0.382 C  
HETATM    5  H   UNL     3     -11.910  11.379  64.659  1.00  0.00     0.000 HD 
HETATM    6  H   UNL     2     -11.663  10.802  63.730  1.00  0.00     0.000 HD 
HETATM    7  O   UNL     3     -12.451  12.096  64.968  1.00  0.00    -0.490 OA 
ENDROOT
BRANCH   2   8
HETATM    8  C   UNL     2      -9.848  10.806  65.582  1.00  0.00    -0.299 C  
HETATM    9  H   UNL     2      -8.329  14.213  67.902  1.00  0.00     0.000 HD 
HETATM   10  H   UNL     2      -9.054  14.340  65.966  1.00  0.00     0.000 HD 
HETATM   11  C   UNL     2      -9.263  12.507  67.755  1.00  0.00    -0.198 C  
HETATM   12  O   UNL     2      -9.595   9.553  67.027  1.00  0.00    -0.151 OA 
HETATM   13  O   UNL     2      -9.788  10.917  69.709  1.00  0.00    -0.414 OA 
HETATM   14  O   UNL     2      -9.136  13.485  65.560  1.00  0.00     0.409 OA 
HETATM   15  C   UNL     2      -9.250  10.813  68.557  1.00  0.00    -0.174 C  
HETATM   16  H   UNL     2      -9.625  11.512  70.432  1.00  0.00     0.000 HD 
HETATM   17  O   UNL     2      -8.322  13.354  68.309  1.00  0.00    -0.154 OA 
HETATM   18  C   UNL     2      -9.682  12.525  66.397  1.00  0.00    -0.249 C  
ENDBRANCH   2   8
BRANCH   2  19
HETATM   19  C   UNL     2      -8.508  10.879  63.539  1.00  0.00     0.060 C  
HETATM   20  H   UNL     2      -7.925  11.927  61.978  1.00  0.00     0.000 HD 
HETATM   21  O   UNL     2      -8.744  11.607  62.339  1.00  0.00    -0.258 OA 
ENDBRANCH   2  19
BRANCH   4  22
HETATM   22  C   UNL     3     -10.692  11.773  67.096  1.00  0.00    -0.283 C  
HETATM   23  H   UNL     3     -10.804   7.705  68.108  1.00  0.00     0.000 HD 
HETATM   24  C   UNL     3     -11.556   9.992  69.512  1.00  0.00    -0.059 C  
HETATM   25  O   UNL     3     -11.531  12.712  68.479  1.00  0.00    -0.263 OA 
HETATM   26  O   UNL     3     -12.077  12.280  70.915  1.00  0.00    -0.296 OA 
HETATM   27  C   UNL     3     -10.939   9.773  68.115  1.00  0.00    -0.175 C  
HETATM   28  O   UNL     3     -11.631   9.223  70.519  1.00  0.00    -0.267 OA 
HETATM   29  O   UNL     3     -10.701   8.546  67.679  1.00  0.00    -0.219 OA 
HETATM   30  C   UNL     3     -11.974  11.757  69.804  1.00  0.00    -0.322 C  
ENDBRANCH   4  22
BRANCH   4  31
HETATM   31  C   UNL     3     -12.464  13.949  66.351  1.00  0.00    -0.370 C  
HETATM   32  O   UNL     3     -11.689  15.025  66.919  1.00  0.00    -0.300 OA 
HETATM   33  H   UNL     3     -12.230  15.741  67.228  1.00  0.00     0.000 HD 
ENDBRANCH   4  31
TORSDOF 4
ENDMDL
MODEL       32
REMARK 921   NORMALIZED FREE ENERGY PREDICTED BY IDOCK:   -4.78 KCAL/MOL
REMARK 922        TOTAL FREE ENERGY PREDICTED BY IDOCK:   28.43 KCAL/MOL
REMARK 923 INTER-LIGAND FREE ENERGY PREDICTED BY IDOCK:   -5.89 KCAL/MOL
REMARK 924 INTRA-LIGAND FREE ENERGY PREDICTED BY IDOCK:   34.32 KCAL/MOL
REMARK 927      BINDING AFFINITY PREDICTED BY RF-SCORE:    0.00 PKD
ROOT
HETATM    1 FE   UNL     1      -8.166  11.928  69.790  1.00  0.00    -0.332 Fe 
HETATM    2  C   UNL     2     -10.723  10.764  64.243  1.00  0.00    -0.025 C  
HETATM    3  O   UNL     2     -11.661  11.887  64.400  1.00  0.00    -0.329 OA 
HETATM    4  C   UNL     3     -10.993  12.160  67.393  1.00  0.00    -0.260 C  
HETATM    5  H   UNL     3     -12.099  11.566  66.003  1.00  0.00     0.000 HD 
HETATM    6  H   UNL     2     -12.363  11.507  64.916  1.00  0.00     0.000 HD 
HETATM    7  O   UNL     3     -12.269  12.080  66.783  1.00  0.00    -0.545 OA 
ENDROOT
BRANCH   2   8
HETATM    8  C   UNL     2     -10.108  10.424  65.597  1.00  0.00    -0.337 C  
HETATM    9  H   UNL     2      -6.934  12.045  68.164  1.00  0.00     0.000 HD 
HETATM   10  H   UNL     2      -8.194  13.193  66.987  1.00  0.00     0.000 HD 
HETATM   11  C   UNL     2      -8.335  10.748  67.767  1.00  0.00    -0.113 C  
HETATM   12  O   UNL     2      -9.777   8.601  66.132  1.00  0.00    -0.253 OA 
HETATM   13  O   UNL     2      -8.628   8.465  68.917  1.00  0.00    -0.132 OA 
HETATM   14  O   UNL     2      -8.664  12.667  66.353  1.00  0.00    -0.076 OA 
HETATM   15  C   UNL     2      -8.569   8.890  67.715  1.00  0.00    -0.125 C  
HETATM   16  H   UNL     2      -8.058   8.602  69.664  1.00  0.00     0.000 HD 
HETATM   17  O   UNL     2      -7.052  11.103  68.138  1.00  0.00    -0.067 OA 
HETATM   18  C   UNL     2      -9.162  11.483  66.873  1.00  0.00    -0.176 C  
ENDBRANCH   2   8
BRANCH   2  19
HETATM   19  C   UNL     2      -9.587  11.379  63.408  1.00  0.00    -0.329 C  
HETATM   20  H   UNL     2      -7.730  10.928  62.938  1.00  0.00     0.000 HD 
HETATM   21  O   UNL     2      -8.432  10.548  63.453  1.00  0.00    -0.169 OA 
ENDBRANCH   2  19
BRANCH   4  22
HETATM   22  C   UNL     3     -10.063  10.584  67.574  1.00  0.00    -0.225 C  
HETATM   23  H   UNL     3     -11.021   6.576  66.801  1.00  0.00     0.000 HD 
HETATM   24  C   UNL     3     -10.510   7.940  69.177  1.00  0.00    -0.209 C  
HETATM   25  O   UNL     3     -10.040  10.800  69.433  1.00  0.00    -0.212 OA 
HETATM   26  O   UNL     3      -9.795   9.284  71.448  1.00  0.00    -0.295 OA 
HETATM   27  C   UNL     3     -10.521   8.376  67.696  1.00  0.00    -0.239 C  
HETATM   28  O   UNL     3     -10.451   6.787  69.705  1.00  0.00    -0.193 OA 
HETATM   29  O   UNL     3     -10.829   7.504  66.750  1.00  0.00    -0.292 OA 
HETATM   30  C   UNL     3     -10.251   9.366  70.306  1.00  0.00    -0.247 C  
ENDBRANCH   4  22
BRANCH   4  31
HETATM   31  C   UNL     3     -11.268  12.994  68.657  1.00  0.00    -0.277 C  
HETATM   32  O   UNL     3     -10.091  13.675  69.139  1.00  0.00    -0.428 OA 
HETATM   33  H   UNL     3     -10.260  14.190  69.919  1.00  0.00     0.000 HD 
ENDBRANCH   4  31
TORSDOF 4
ENDMDL
MODEL       33
REMARK 921   NORMALIZED FREE ENERGY PREDICTED BY IDOCK:   -4.72 KCAL/MOL
REMARK 922        TOTAL FREE ENERGY PREDICTED BY IDOCK:   28.50 KCAL/MOL
REMARK 923 INTER-LIGAND FREE ENERGY PREDICTED BY IDOCK:   -6.39 KCAL/MOL
REMARK 924 INTRA-LIGAND FREE ENERGY PREDICTED BY IDOCK:   34.88 KCAL/MOL
REMARK 927      BINDING AFFINITY PREDICTED BY RF-SCORE:    0.00 PKD
ROOT
HETATM    1 FE   UNL     1      -6.769  10.625  65.107  1.00  0.00    -0.111 Fe 
HETATM    2  C   UNL     2     -11.286   9.748  69.288  1.00  0.00    -0.088 C  
HETATM    3  O   UNL     2     -11.195   8.288  69.133  1.00  0.00    -0.423 OA 
HETATM    4  C   UNL     3      -9.475   8.562  66.595  1.00  0.00    -0.207 C  
HETATM    5  H   UNL     3     -11.119   8.266  67.442  1.00  0.00     0.000 HD 
HETATM    6  H   UNL     2     -11.734   8.121  68.368  1.00  0.00     0.000 HD 
HETATM    7  O   UNL     3     -10.638   7.777  66.785  1.00  0.00    -0.331 OA 
ENDROOT
BRANCH   2   8
HETATM    8  C   UNL     2     -10.574  10.427  68.123  1.00  0.00    -0.246 C  
HETATM    9  H   UNL     2      -6.427  11.371  67.023  1.00  0.00     0.000 HD 
HETATM   10  H   UNL     2      -7.013   9.662  68.035  1.00  0.00     0.000 HD 
HETATM   11  C   UNL     2      -8.348  11.395  66.685  1.00  0.00    -0.172 C  
HETATM   12  O   UNL     2     -11.285  12.011  67.283  1.00  0.00    -0.272 OA 
HETATM   13  O   UNL     2      -9.548  12.911  64.987  1.00  0.00    -0.490 OA 
HETATM   14  O   UNL     2      -7.901   9.732  68.366  1.00  0.00    -0.081 OA 
HETATM   15  C   UNL     2      -9.688  12.621  66.223  1.00  0.00    -0.259 C  
HETATM   16  H   UNL     2      -8.794  13.199  64.487  1.00  0.00     0.000 HD 
HETATM   17  O   UNL     2      -7.106  11.993  66.788  1.00  0.00    -0.084 OA 
HETATM   18  C   UNL     2      -8.789  10.286  67.458  1.00  0.00    -0.128 C  
ENDBRANCH   2   8
BRANCH   2  19
HETATM   19  C   UNL     2     -10.414  10.017  70.527  1.00  0.00    -0.198 C  
HETATM   20  H   UNL     2     -10.384   9.477  72.420  1.00  0.00     0.000 HD 
HETATM   21  O   UNL     2     -10.922   9.310  71.654  1.00  0.00    -0.355 OA 
ENDBRANCH   2  19
BRANCH   4  22
HETATM   22  C   UNL     3      -9.727  10.364  66.329  1.00  0.00    -0.256 C  
HETATM   23  H   UNL     3     -13.145  12.760  65.930  1.00  0.00     0.000 HD 
HETATM   24  C   UNL     3     -11.125  12.087  64.131  1.00  0.00    -0.368 C  
HETATM   25  O   UNL     3      -8.939  10.236  64.637  1.00  0.00    -0.178 OA 
HETATM   26  O   UNL     3      -9.010  11.563  62.481  1.00  0.00    -0.328 OA 
HETATM   27  C   UNL     3     -11.372  11.735  65.613  1.00  0.00    -0.233 C  
HETATM   28  O   UNL     3     -11.614  13.003  63.400  1.00  0.00    -0.474 OA 
HETATM   29  O   UNL     3     -12.454  12.183  66.231  1.00  0.00    -0.321 OA 
HETATM   30  C   UNL     3      -9.674  11.191  63.449  1.00  0.00    -0.352 C  
ENDBRANCH   4  22
BRANCH   4  31
HETATM   31  C   UNL     3      -8.696   7.770  65.529  1.00  0.00    -0.072 C  
HETATM   32  O   UNL     3      -9.091   6.384  65.469  1.00  0.00    -0.362 OA 
HETATM   33  H   UNL     3      -8.611   5.895  64.812  1.00  0.00     0.000 HD 
ENDBRANCH   4  31
TORSDOF 4
ENDMDL
MODEL       34
REMARK 921   NORMALIZED FREE ENERGY PREDICTED BY IDOCK:   -4.71 KCAL/MOL
REMARK 922        TOTAL FREE ENERGY PREDICTED BY IDOCK:   28.52 KCAL/MOL
REMARK 923 INTER-LIGAND FREE ENERGY PREDICTED BY IDOCK:   -5.96 KCAL/MOL
REMARK 924 INTRA-LIGAND FREE ENERGY PREDICTED BY IDOCK:   34.48 KCAL/MOL
REMARK 927      BINDING AFFINITY PREDICTED BY RF-SCORE:    0.00 PKD
ROOT
HETATM    1 FE   UNL     1     -11.186  11.623  69.797  1.00  0.00    -0.215 Fe 
HETATM    2  C   UNL     2      -8.856  11.185  64.049  1.00  0.00     0.109 C  
HETATM    3  O   UNL     2      -7.591  10.641  64.565  1.00  0.00    -0.345 OA 
HETATM    4  C   UNL     3      -8.312  11.426  67.453  1.00  0.00    -0.144 C  
HETATM    5  H   UNL     3      -7.404  11.733  65.844  1.00  0.00     0.000 HD 
HETATM    6  H   UNL     2      -7.107  11.422  64.809  1.00  0.00     0.000 HD 
HETATM    7  O   UNL     3      -7.113  11.688  66.747  1.00  0.00    -0.137 OA 
ENDROOT
BRANCH   2   8
HETATM    8  C   UNL     2      -9.641  11.818  65.194  1.00  0.00    -0.173 C  
HETATM    9  H   UNL     2     -12.122  10.408  68.533  1.00  0.00     0.000 HD 
HETATM   10  H   UNL     2     -10.448   9.421  67.816  1.00  0.00     0.000 HD 
HETATM   11  C   UNL     2     -11.295  11.825  67.480  1.00  0.00    -0.310 C  
HETATM   12  O   UNL     2     -10.673  13.429  64.949  1.00  0.00    -0.327 OA 
HETATM   13  O   UNL     2     -11.964  14.309  67.528  1.00  0.00    -0.411 OA 
HETATM   14  O   UNL     2     -10.172   9.758  66.972  1.00  0.00    -0.203 OA 
HETATM   15  C   UNL     2     -11.780  13.422  66.628  1.00  0.00    -0.385 C  
HETATM   16  H   UNL     2     -12.487  14.306  68.321  1.00  0.00     0.000 HD 
HETATM   17  O   UNL     2     -12.368  11.218  68.102  1.00  0.00    -0.500 OA 
HETATM   18  C   UNL     2     -10.195  11.141  66.891  1.00  0.00    -0.222 C  
ENDBRANCH   2   8
BRANCH   2  19
HETATM   19  C   UNL     2      -9.639   9.921  63.653  1.00  0.00     0.036 C  
HETATM   20  H   UNL     2      -9.675   8.655  62.146  1.00  0.00     0.000 HD 
HETATM   21  O   UNL     2      -9.192   9.435  62.391  1.00  0.00    -0.258 OA 
ENDBRANCH   2  19
BRANCH   4  22
HETATM   22  C   UNL     3      -9.756  12.494  67.056  1.00  0.00    -0.213 C  
HETATM   23  H   UNL     3     -10.287  15.778  64.504  1.00  0.00     0.000 HD 
HETATM   24  C   UNL     3     -10.356  15.551  67.281  1.00  0.00    -0.267 C  
HETATM   25  O   UNL     3      -9.768  13.146  68.810  1.00  0.00    -0.103 OA 
HETATM   26  O   UNL     3     -10.619  15.223  69.983  1.00  0.00    -0.277 OA 
HETATM   27  C   UNL     3     -10.134  14.526  66.149  1.00  0.00    -0.305 C  
HETATM   28  O   UNL     3     -10.848  16.721  67.261  1.00  0.00    -0.258 OA 
HETATM   29  O   UNL     3     -10.128  14.923  64.886  1.00  0.00    -0.339 OA 
HETATM   30  C   UNL     3     -10.123  14.795  68.939  1.00  0.00    -0.237 C  
ENDBRANCH   4  22
BRANCH   4  31
HETATM   31  C   UNL     3      -7.841  11.352  68.916  1.00  0.00    -0.096 C  
HETATM   32  O   UNL     3      -8.756  10.619  69.758  1.00  0.00    -0.382 OA 
HETATM   33  H   UNL     3      -8.465  10.573  70.661  1.00  0.00     0.000 HD 
ENDBRANCH   4  31
TORSDOF 4
ENDMDL
MODEL       35
REMARK 921   NORMALIZED FREE ENERGY PREDICTED BY IDOCK:   -4.69 KCAL/MOL
REMARK 922        TOTAL FREE ENERGY PREDICTED BY IDOCK:   28.54 KCAL/MOL
REMARK 923 INTER-LIGAND FREE ENERGY PREDICTED BY IDOCK:   -5.84 KCAL/MOL
REMARK 924 INTRA-LIGAND FREE ENERGY PREDICTED BY IDOCK:   34.38 KCAL/MOL
REMARK 927      BINDING AFFINITY PREDICTED BY RF-SCORE:    0.00 PKD
ROOT
HETATM    1 FE   UNL     1     -11.563  16.365  65.874  1.00  0.00    -0.083 Fe 
HETATM    2  C   UNL     2      -6.515  14.275  68.841  1.00  0.00    -0.092 C  
HETATM    3  O   UNL     2      -7.337  13.744  69.940  1.00  0.00    -0.260 OA 
HETATM    4  C   UNL     3      -9.815  15.291  68.969  1.00  0.00    -0.230 C  
HETATM    5  H   UNL     3      -8.345  15.093  70.112  1.00  0.00     0.000 HD 
HETATM    6  H   UNL     2      -7.470  14.506  70.493  1.00  0.00     0.000 HD 
HETATM    7  O   UNL     3      -9.269  15.242  70.275  1.00  0.00     0.166 OA 
ENDROOT
BRANCH   2   8
HETATM    8  C   UNL     2      -7.344  15.251  68.013  1.00  0.00    -0.133 C  
HETATM    9  H   UNL     2     -10.441  14.981  64.909  1.00  0.00     0.000 HD 
HETATM   10  H   UNL     2     -10.250  13.663  66.495  1.00  0.00     0.000 HD 
HETATM   11  C   UNL     2      -9.259  15.998  66.081  1.00  0.00    -0.352 C  
HETATM   12  O   UNL     2      -6.583  16.866  67.283  1.00  0.00    -0.141 OA 
HETATM   13  O   UNL     2      -8.651  18.483  65.799  1.00  0.00    -0.442 OA 
HETATM   14  O   UNL     2      -9.413  13.753  66.933  1.00  0.00    -0.244 OA 
HETATM   15  C   UNL     2      -8.011  17.391  65.968  1.00  0.00    -0.165 C  
HETATM   16  H   UNL     2      -9.325  18.730  65.177  1.00  0.00     0.000 HD 
HETATM   17  O   UNL     2      -9.808  15.688  64.851  1.00  0.00    -0.265 OA 
HETATM   18  C   UNL     2      -9.029  15.070  67.132  1.00  0.00    -0.217 C  
ENDBRANCH   2   8
BRANCH   2  19
HETATM   19  C   UNL     2      -6.300  13.042  67.946  1.00  0.00    -0.134 C  
HETATM   20  H   UNL     2      -6.860  11.155  67.923  1.00  0.00     0.000 HD 
HETATM   21  O   UNL     2      -6.993  11.917  68.476  1.00  0.00    -0.072 OA 
ENDBRANCH   2  19
BRANCH   4  22
HETATM   22  C   UNL     3      -8.960  16.374  67.755  1.00  0.00    -0.198 C  
HETATM   23  H   UNL     3      -5.761  19.068  68.059  1.00  0.00     0.000 HD 
HETATM   24  C   UNL     3      -8.468  19.450  67.517  1.00  0.00    -0.292 C  
HETATM   25  O   UNL     3     -10.519  17.386  67.544  1.00  0.00    -0.343 OA 
HETATM   26  O   UNL     3     -11.087  19.736  66.784  1.00  0.00    -0.354 OA 
HETATM   27  C   UNL     3      -7.618  18.190  67.787  1.00  0.00    -0.222 C  
HETATM   28  O   UNL     3      -8.130  20.628  67.185  1.00  0.00    -0.324 OA 
HETATM   29  O   UNL     3      -6.325  18.305  68.045  1.00  0.00    -0.181 OA 
HETATM   30  C   UNL     3     -10.256  19.051  67.384  1.00  0.00    -0.394 C  
ENDBRANCH   4  22
BRANCH   4  31
HETATM   31  C   UNL     3     -11.313  15.532  69.233  1.00  0.00    -0.325 C  
HETATM   32  O   UNL     3     -12.150  15.033  68.169  1.00  0.00    -0.541 OA 
HETATM   33  H   UNL     3     -13.074  15.181  68.332  1.00  0.00     0.000 HD 
ENDBRANCH   4  31
TORSDOF 4
ENDMDL
MODEL       36
REMARK 921   NORMALIZED FREE ENERGY PREDICTED BY IDOCK:   -4.68 KCAL/MOL
REMARK 922        TOTAL FREE ENERGY PREDICTED BY IDOCK:   28.56 KCAL/MOL
REMARK 923 INTER-LIGAND FREE ENERGY PREDICTED BY IDOCK:   -5.78 KCAL/MOL
REMARK 924 INTRA-LIGAND FREE ENERGY PREDICTED BY IDOCK:   34.34 KCAL/MOL
REMARK 927      BINDING AFFINITY PREDICTED BY RF-SCORE:    0.00 PKD
ROOT
HETATM    1 FE   UNL     1      -7.275  11.883  65.638  1.00  0.00    -0.345 Fe 
HETATM    2  C   UNL     2     -10.214   8.237  69.729  1.00  0.00    -0.204 C  
HETATM    3  O   UNL     2     -10.116   7.082  68.824  1.00  0.00    -0.160 OA 
HETATM    4  C   UNL     3      -9.290   8.874  66.461  1.00  0.00    -0.195 C  
HETATM    5  H   UNL     3     -10.572   7.890  67.408  1.00  0.00     0.000 HD 
HETATM    6  H   UNL     2     -10.859   7.201  68.244  1.00  0.00     0.000 HD 
HETATM    7  O   UNL     3     -10.301   7.883  66.498  1.00  0.00    -0.247 OA 
ENDROOT
BRANCH   2   8
HETATM    8  C   UNL     2      -9.932   9.518  68.950  1.00  0.00    -0.187 C  
HETATM    9  H   UNL     2      -6.383  11.657  67.492  1.00  0.00     0.000 HD 
HETATM   10  H   UNL     2      -6.557   9.595  67.581  1.00  0.00     0.000 HD 
HETATM   11  C   UNL     2      -8.311  11.469  67.714  1.00  0.00    -0.136 C  
HETATM   12  O   UNL     2     -10.929  11.139  69.264  1.00  0.00    -0.224 OA 
HETATM   13  O   UNL     2     -10.041  13.351  67.417  1.00  0.00    -0.232 OA 
HETATM   14  O   UNL     2      -7.296   9.324  68.112  1.00  0.00    -0.078 OA 
HETATM   15  C   UNL     2      -9.772  12.480  68.311  1.00  0.00    -0.220 C  
HETATM   16  H   UNL     2      -9.495  13.984  66.967  1.00  0.00     0.000 HD 
HETATM   17  O   UNL     2      -7.123  12.170  67.795  1.00  0.00    -0.090 OA 
HETATM   18  C   UNL     2      -8.445  10.063  67.882  1.00  0.00    -0.118 C  
ENDBRANCH   2   8
BRANCH   2  19
HETATM   19  C   UNL     2      -9.010   8.043  70.667  1.00  0.00    -0.148 C  
HETATM   20  H   UNL     2      -7.967   9.137  71.927  1.00  0.00     0.000 HD 
HETATM   21  O   UNL     2      -8.710   9.257  71.348  1.00  0.00    -0.317 OA 
ENDBRANCH   2  19
BRANCH   4  22
HETATM   22  C   UNL     3      -9.688  10.492  67.238  1.00  0.00    -0.197 C  
HETATM   23  H   UNL     3     -13.143  12.044  69.037  1.00  0.00     0.000 HD 
HETATM   24  C   UNL     3     -11.797  12.731  66.695  1.00  0.00    -0.393 C  
HETATM   25  O   UNL     3      -9.492  11.345  65.585  1.00  0.00    -0.222 OA 
HETATM   26  O   UNL     3     -10.318  13.494  64.526  1.00  0.00    -0.423 OA 
HETATM   27  C   UNL     3     -11.530  11.675  67.788  1.00  0.00    -0.302 C  
HETATM   28  O   UNL     3     -12.534  13.765  66.698  1.00  0.00    -0.386 OA 
HETATM   29  O   UNL     3     -12.368  11.547  68.805  1.00  0.00    -0.425 OA 
HETATM   30  C   UNL     3     -10.613  12.581  65.299  1.00  0.00    -0.290 C  
ENDBRANCH   4  22
BRANCH   4  31
HETATM   31  C   UNL     3      -8.852   8.862  64.985  1.00  0.00    -0.140 C  
HETATM   32  O   UNL     3      -7.518   9.379  64.798  1.00  0.00    -0.101 OA 
HETATM   33  H   UNL     3      -7.248   9.372  63.887  1.00  0.00     0.000 HD 
ENDBRANCH   4  31
TORSDOF 4
ENDMDL
MODEL       37
REMARK 921   NORMALIZED FREE ENERGY PREDICTED BY IDOCK:   -4.67 KCAL/MOL
REMARK 922        TOTAL FREE ENERGY PREDICTED BY IDOCK:   28.57 KCAL/MOL
REMARK 923 INTER-LIGAND FREE ENERGY PREDICTED BY IDOCK:   -6.43 KCAL/MOL
REMARK 924 INTRA-LIGAND FREE ENERGY PREDICTED BY IDOCK:   35.00 KCAL/MOL
REMARK 927      BINDING AFFINITY PREDICTED BY RF-SCORE:    0.00 PKD
ROOT
HETATM    1 FE   UNL     1      -8.556  16.828  66.501  1.00  0.00    -0.164 Fe 
HETATM    2  C   UNL     2     -11.646  11.432  66.491  1.00  0.00     0.124 C  
HETATM    3  O   UNL     2     -12.464  11.861  65.346  1.00  0.00    -0.285 OA 
HETATM    4  C   UNL     3     -11.535  14.781  65.647  1.00  0.00    -0.327 C  
HETATM    5  H   UNL     3     -12.798  13.423  65.907  1.00  0.00     0.000 HD 
HETATM    6  H   UNL     2     -13.153  12.370  65.756  1.00  0.00     0.000 HD 
HETATM    7  O   UNL     3     -12.858  14.290  65.524  1.00  0.00    -0.539 OA 
ENDROOT
BRANCH   2   8
HETATM    8  C   UNL     2     -10.957  12.646  67.106  1.00  0.00    -0.296 C  
HETATM    9  H   UNL     2      -7.556  15.240  66.104  1.00  0.00     0.000 HD 
HETATM   10  H   UNL     2      -8.843  14.402  64.715  1.00  0.00     0.000 HD 
HETATM   11  C   UNL     2      -9.032  14.703  67.260  1.00  0.00    -0.205 C  
HETATM   12  O   UNL     2     -10.665  12.793  69.007  1.00  0.00    -0.197 OA 
HETATM   13  O   UNL     2      -9.341  15.408  69.716  1.00  0.00    -0.370 OA 
HETATM   14  O   UNL     2      -9.376  13.714  65.094  1.00  0.00     0.301 OA 
HETATM   15  C   UNL     2      -9.345  14.309  69.066  1.00  0.00     0.030 C  
HETATM   16  H   UNL     2      -8.717  16.124  69.743  1.00  0.00     0.000 HD 
HETATM   17  O   UNL     2      -7.714  15.041  67.020  1.00  0.00    -0.198 OA 
HETATM   18  C   UNL     2      -9.885  14.030  66.343  1.00  0.00    -0.296 C  
ENDBRANCH   2   8
BRANCH   2  19
HETATM   19  C   UNL     2     -10.530  10.607  65.827  1.00  0.00    -0.164 C  
HETATM   20  H   UNL     2      -9.914  10.213  63.999  1.00  0.00     0.000 HD 
HETATM   21  O   UNL     2     -10.604  10.722  64.409  1.00  0.00    -0.347 OA 
ENDBRANCH   2  19
BRANCH   4  22
HETATM   22  C   UNL     3     -10.739  14.609  67.296  1.00  0.00    -0.290 C  
HETATM   23  H   UNL     3     -12.117  13.296  71.031  1.00  0.00     0.000 HD 
HETATM   24  C   UNL     3     -11.280  15.798  70.133  1.00  0.00    -0.349 C  
HETATM   25  O   UNL     3     -10.534  16.466  67.401  1.00  0.00    -0.301 OA 
HETATM   26  O   UNL     3     -10.251  18.173  69.252  1.00  0.00    -0.286 OA 
HETATM   27  C   UNL     3     -11.380  14.417  69.452  1.00  0.00    -0.281 C  
HETATM   28  O   UNL     3     -11.279  16.123  71.360  1.00  0.00    -0.295 OA 
HETATM   29  O   UNL     3     -11.848  13.377  70.125  1.00  0.00    -0.311 OA 
HETATM   30  C   UNL     3     -10.796  17.111  68.943  1.00  0.00    -0.172 C  
ENDBRANCH   4  22
BRANCH   4  31
HETATM   31  C   UNL     3     -11.632  16.187  65.027  1.00  0.00     0.162 C  
HETATM   32  O   UNL     3     -11.936  16.151  63.617  1.00  0.00    -1.375 OA 
HETATM   33  H   UNL     3     -11.995  17.018  63.234  1.00  0.00     0.000 HD 
ENDBRANCH   4  31
TORSDOF 4
ENDMDL
MODEL       38
REMARK 921   NORMALIZED FREE ENERGY PREDICTED BY IDOCK:   -4.65 KCAL/MOL
REMARK 922        TOTAL FREE ENERGY PREDICTED BY IDOCK:   28.59 KCAL/MOL
REMARK 923 INTER-LIGAND FREE ENERGY PREDICTED BY IDOCK:   -6.28 KCAL/MOL
REMARK 924 INTRA-LIGAND FREE ENERGY PREDICTED BY IDOCK:   34.87 KCAL/MOL
REMARK 927      BINDING AFFINITY PREDICTED BY RF-SCORE:    0.00 PKD
ROOT
HETATM    1 FE   UNL     1     -10.745   3.924  71.370  1.00  0.00    -0.115 Fe 
HETATM    2  C   UNL     2     -11.544  10.080  71.017  1.00  0.00    -0.393 C  
HETATM    3  O   UNL     2     -11.908   9.987  69.595  1.00  0.00    -0.452 OA 
HETATM    4  C   UNL     3     -10.904   7.082  69.422  1.00  0.00    -0.227 C  
HETATM    5  H   UNL     3     -10.677   8.919  69.137  1.00  0.00     0.000 HD 
HETATM    6  H   UNL     2     -11.063   9.971  69.160  1.00  0.00     0.000 HD 
HETATM    7  O   UNL     3     -10.602   8.166  68.563  1.00  0.00    -0.186 OA 
ENDROOT
BRANCH   2   8
HETATM    8  C   UNL     2     -10.876   8.781  71.456  1.00  0.00    -0.374 C  
HETATM    9  H   UNL     2     -12.177   4.754  72.633  1.00  0.00     0.000 HD 
HETATM   10  H   UNL     2     -13.105   5.913  71.188  1.00  0.00     0.000 HD 
HETATM   11  C   UNL     2     -10.797   6.091  72.304  1.00  0.00    -0.245 C  
HETATM   12  O   UNL     2      -9.360   8.771  72.649  1.00  0.00    -0.300 OA 
HETATM   13  O   UNL     2      -8.366   5.967  73.139  1.00  0.00    -0.117 OA 
HETATM   14  O   UNL     2     -12.819   6.817  71.221  1.00  0.00    -0.326 OA 
HETATM   15  C   UNL     2      -9.307   6.829  73.169  1.00  0.00    -0.133 C  
HETATM   16  H   UNL     2      -8.341   5.049  73.385  1.00  0.00     0.000 HD 
HETATM   17  O   UNL     2     -11.422   5.128  73.072  1.00  0.00    -0.316 OA 
HETATM   18  C   UNL     2     -11.451   6.961  71.389  1.00  0.00    -0.282 C  
ENDBRANCH   2   8
BRANCH   2  19
HETATM   19  C   UNL     2     -12.912  10.106  71.721  1.00  0.00    -0.462 C  
HETATM   20  H   UNL     2     -14.123  11.460  72.479  1.00  0.00     0.000 HD 
HETATM   21  O   UNL     2     -13.278  11.444  72.044  1.00  0.00    -0.503 OA 
ENDBRANCH   2  19
BRANCH   4  22
HETATM   22  C   UNL     3     -10.027   7.036  71.037  1.00  0.00    -0.196 C  
HETATM   23  H   UNL     3      -6.974   9.369  72.717  1.00  0.00     0.000 HD 
HETATM   24  C   UNL     3      -7.046   6.702  71.911  1.00  0.00    -0.080 C  
HETATM   25  O   UNL     3      -9.279   5.379  70.596  1.00  0.00    -0.142 OA 
HETATM   26  O   UNL     3      -7.243   4.045  71.299  1.00  0.00    -0.035 OA 
HETATM   27  C   UNL     3      -8.104   7.826  71.920  1.00  0.00    -0.104 C  
HETATM   28  O   UNL     3      -5.941   6.594  72.526  1.00  0.00    -0.041 OA 
HETATM   29  O   UNL     3      -7.783   9.037  72.346  1.00  0.00    -0.346 OA 
HETATM   30  C   UNL     3      -7.674   5.181  71.094  1.00  0.00    -0.096 C  
ENDBRANCH   4  22
BRANCH   4  31
HETATM   31  C   UNL     3     -10.782   5.862  68.491  1.00  0.00    -0.255 C  
HETATM   32  O   UNL     3     -11.345   6.102  67.185  1.00  0.00    -0.555 OA 
HETATM   33  H   UNL     3     -11.270   5.350  66.610  1.00  0.00     0.000 HD 
ENDBRANCH   4  31
TORSDOF 4
ENDMDL
MODEL       39
REMARK 921   NORMALIZED FREE ENERGY PREDICTED BY IDOCK:   -4.63 KCAL/MOL
REMARK 922        TOTAL FREE ENERGY PREDICTED BY IDOCK:   28.61 KCAL/MOL
REMARK 923 INTER-LIGAND FREE ENERGY PREDICTED BY IDOCK:   -6.03 KCAL/MOL
REMARK 924 INTRA-LIGAND FREE ENERGY PREDICTED BY IDOCK:   34.64 KCAL/MOL
REMARK 927      BINDING AFFINITY PREDICTED BY RF-SCORE:    0.00 PKD
ROOT
HETATM    1 FE   UNL     1      -7.658   8.441  67.365  1.00  0.00    -0.082 Fe 
HETATM    2  C   UNL     2     -11.442   7.783  72.254  1.00  0.00    -0.332 C  
HETATM    3  O   UNL     2     -11.788   6.412  71.848  1.00  0.00    -0.315 OA 
HETATM    4  C   UNL     3     -10.528   6.810  69.068  1.00  0.00    -0.206 C  
HETATM    5  H   UNL     3     -12.016   6.737  70.202  1.00  0.00     0.000 HD 
HETATM    6  H   UNL     2     -12.476   6.548  71.207  1.00  0.00     0.000 HD 
HETATM    7  O   UNL     3     -11.811   6.302  69.384  1.00  0.00    -0.174 OA 
ENDROOT
BRANCH   2   8
HETATM    8  C   UNL     2     -10.784   8.508  71.085  1.00  0.00    -0.290 C  
HETATM    9  H   UNL     2      -6.798   8.645  69.243  1.00  0.00     0.000 HD 
HETATM   10  H   UNL     2      -7.653   6.949  70.069  1.00  0.00     0.000 HD 
HETATM   11  C   UNL     2      -8.664   9.202  69.358  1.00  0.00    -0.140 C  
HETATM   12  O   UNL     2     -11.159  10.360  70.698  1.00  0.00    -0.313 OA 
HETATM   13  O   UNL     2      -9.670  11.294  68.247  1.00  0.00    -0.183 OA 
HETATM   14  O   UNL     2      -8.413   7.156  70.599  1.00  0.00    -0.134 OA 
HETATM   15  C   UNL     2      -9.667  10.784  69.418  1.00  0.00    -0.061 C  
HETATM   16  H   UNL     2      -8.965  11.494  67.643  1.00  0.00     0.000 HD 
HETATM   17  O   UNL     2      -7.307   9.448  69.273  1.00  0.00    -0.067 OA 
HETATM   18  C   UNL     2      -9.255   8.091  70.019  1.00  0.00    -0.156 C  
ENDBRANCH   2   8
BRANCH   2  19
HETATM   19  C   UNL     2     -10.329   7.564  73.293  1.00  0.00    -0.357 C  
HETATM   20  H   UNL     2      -9.766   6.143  74.533  1.00  0.00     0.000 HD 
HETATM   21  O   UNL     2     -10.454   6.278  73.892  1.00  0.00    -0.274 OA 
ENDBRANCH   2  19
BRANCH   4  22
HETATM   22  C   UNL     3     -10.314   8.634  69.161  1.00  0.00    -0.227 C  
HETATM   23  H   UNL     3     -12.956  11.804  69.903  1.00  0.00     0.000 HD 
HETATM   24  C   UNL     3     -11.525  11.071  67.627  1.00  0.00    -0.224 C  
HETATM   25  O   UNL     3      -9.881   8.687  67.342  1.00  0.00    -0.167 OA 
HETATM   26  O   UNL     3      -9.937  10.423  65.498  1.00  0.00    -0.249 OA 
HETATM   27  C   UNL     3     -11.611  10.478  69.050  1.00  0.00    -0.207 C  
HETATM   28  O   UNL     3     -11.855  12.211  67.179  1.00  0.00    -0.543 OA 
HETATM   29  O   UNL     3     -12.411  11.028  69.950  1.00  0.00    -0.322 OA 
HETATM   30  C   UNL     3     -10.509  10.022  66.512  1.00  0.00    -0.153 C  
ENDBRANCH   4  22
BRANCH   4  31
HETATM   31  C   UNL     3     -10.196   6.104  67.740  1.00  0.00    -0.172 C  
HETATM   32  O   UNL     3     -11.235   6.266  66.751  1.00  0.00    -0.683 OA 
HETATM   33  H   UNL     3     -11.030   5.831  65.932  1.00  0.00     0.000 HD 
ENDBRANCH   4  31
TORSDOF 4
ENDMDL
MODEL       40
REMARK 921   NORMALIZED FREE ENERGY PREDICTED BY IDOCK:   -4.62 KCAL/MOL
REMARK 922        TOTAL FREE ENERGY PREDICTED BY IDOCK:   28.63 KCAL/MOL
REMARK 923 INTER-LIGAND FREE ENERGY PREDICTED BY IDOCK:   -5.88 KCAL/MOL
REMARK 924 INTRA-LIGAND FREE ENERGY PREDICTED BY IDOCK:   34.52 KCAL/MOL
REMARK 927      BINDING AFFINITY PREDICTED BY RF-SCORE:    0.00 PKD
ROOT
HETATM    1 FE   UNL     1      -7.671   7.477  70.699  1.00  0.00    -0.075 Fe 
HETATM    2  C   UNL     2     -13.266  10.184  70.867  1.00  0.00    -0.289 C  
HETATM    3  O   UNL     2     -13.901   8.928  71.297  1.00  0.00    -0.544 OA 
HETATM    4  C   UNL     3     -11.380   7.300  70.609  1.00  0.00    -0.284 C  
HETATM    5  H   UNL     3     -13.103   7.911  70.204  1.00  0.00     0.000 HD 
HETATM    6  H   UNL     2     -14.037   8.467  70.477  1.00  0.00     0.000 HD 
HETATM    7  O   UNL     3     -12.720   7.042  70.232  1.00  0.00     0.063 OA 
ENDROOT
BRANCH   2   8
HETATM    8  C   UNL     2     -11.874   9.887  70.319  1.00  0.00    -0.255 C  
HETATM    9  H   UNL     2      -7.910   8.983  71.983  1.00  0.00     0.000 HD 
HETATM   10  H   UNL     2      -9.702   8.351  72.808  1.00  0.00     0.000 HD 
HETATM   11  C   UNL     2      -9.122   9.289  70.486  1.00  0.00    -0.259 C  
HETATM   12  O   UNL     2     -11.154  10.840  68.804  1.00  0.00    -0.221 OA 
HETATM   13  O   UNL     2      -8.409   9.827  68.072  1.00  0.00    -0.110 OA 
HETATM   14  O   UNL     2     -10.445   8.812  72.438  1.00  0.00    -0.305 OA 
HETATM   15  C   UNL     2      -9.213  10.328  68.929  1.00  0.00    -0.175 C  
HETATM   16  H   UNL     2      -7.493   9.585  68.131  1.00  0.00     0.000 HD 
HETATM   17  O   UNL     2      -7.956   9.510  71.194  1.00  0.00    -0.315 OA 
HETATM   18  C   UNL     2     -10.379   8.959  71.062  1.00  0.00    -0.253 C  
ENDBRANCH   2   8
BRANCH   2  19
HETATM   19  C   UNL     2     -13.045  10.930  72.194  1.00  0.00    -0.220 C  
HETATM   20  H   UNL     2     -13.197  12.777  72.857  1.00  0.00     0.000 HD 
HETATM   21  O   UNL     2     -13.334  12.316  72.038  1.00  0.00    -0.506 OA 
ENDBRANCH   2  19
BRANCH   4  22
HETATM   22  C   UNL     3     -10.495   8.613  69.675  1.00  0.00    -0.220 C  
HETATM   23  H   UNL     3     -11.577  11.080  66.461  1.00  0.00     0.000 HD 
HETATM   24  C   UNL     3      -9.704   9.028  66.682  1.00  0.00    -0.230 C  
HETATM   25  O   UNL     3      -9.285   7.346  69.019  1.00  0.00    -0.147 OA 
HETATM   26  O   UNL     3      -7.742   7.154  67.019  1.00  0.00    -0.103 OA 
HETATM   27  C   UNL     3     -10.683   9.668  67.688  1.00  0.00    -0.262 C  
HETATM   28  O   UNL     3      -9.275   9.439  65.560  1.00  0.00    -0.200 OA 
HETATM   29  O   UNL     3     -11.498  10.636  67.297  1.00  0.00    -0.412 OA 
HETATM   30  C   UNL     3      -8.830   7.584  67.406  1.00  0.00    -0.127 C  
ENDBRANCH   4  22
BRANCH   4  31
HETATM   31  C   UNL     3     -10.758   5.892  70.654  1.00  0.00    -0.285 C  
HETATM   32  O   UNL     3      -9.638   5.809  71.560  1.00  0.00    -0.152 OA 
HETATM   33  H   UNL     3      -9.255   4.940  71.587  1.00  0.00     0.000 HD 
ENDBRANCH   4  31
TORSDOF 4
ENDMDL
MODEL       41
REMARK 921   NORMALIZED FREE ENERGY PREDICTED BY IDOCK:   -4.59 KCAL/MOL
REMARK 922        TOTAL FREE ENERGY PREDICTED BY IDOCK:   28.67 KCAL/MOL
REMARK 923 INTER-LIGAND FREE ENERGY PREDICTED BY IDOCK:   -5.71 KCAL/MOL
REMARK 924 INTRA-LIGAND FREE ENERGY PREDICTED BY IDOCK:   34.38 KCAL/MOL
REMARK 927      BINDING AFFINITY PREDICTED BY RF-SCORE:    0.00 PKD
ROOT
HETATM    1 FE   UNL     1      -7.233   8.393  68.286  1.00  0.00    -0.069 Fe 
HETATM    2  C   UNL     2     -10.353  12.960  65.445  1.00  0.00    -0.296 C  
HETATM    3  O   UNL     2      -9.234  13.895  65.640  1.00  0.00    -0.468 OA 
HETATM    4  C   UNL     3      -7.862  11.995  67.637  1.00  0.00    -0.149 C  
HETATM    5  H   UNL     3      -8.913  13.498  67.254  1.00  0.00     0.000 HD 
HETATM    6  H   UNL     2      -9.373  14.213  66.524  1.00  0.00     0.000 HD 
HETATM    7  O   UNL     3      -8.137  13.376  67.788  1.00  0.00    -0.144 OA 
ENDROOT
BRANCH   2   8
HETATM    8  C   UNL     2     -10.169  11.751  66.356  1.00  0.00    -0.248 C  
HETATM    9  H   UNL     2      -7.779   8.066  66.335  1.00  0.00     0.000 HD 
HETATM   10  H   UNL     2      -7.131   9.890  65.597  1.00  0.00     0.000 HD 
HETATM   11  C   UNL     2      -9.091   9.264  67.138  1.00  0.00    -0.130 C  
HETATM   12  O   UNL     2     -11.660  10.923  67.258  1.00  0.00    -0.475 OA 
HETATM   13  O   UNL     2     -10.756   8.629  68.995  1.00  0.00    -0.348 OA 
HETATM   14  O   UNL     2      -7.847  10.505  65.495  1.00  0.00    -0.155 OA 
HETATM   15  C   UNL     2     -10.823   9.192  67.851  1.00  0.00    -0.083 C  
HETATM   16  H   UNL     2     -10.361   7.811  69.274  1.00  0.00     0.000 HD 
HETATM   17  O   UNL     2      -8.657   8.029  66.696  1.00  0.00    -0.126 OA 
HETATM   18  C   UNL     2      -8.730  10.513  66.563  1.00  0.00    -0.139 C  
ENDBRANCH   2   8
BRANCH   2  19
HETATM   19  C   UNL     2     -10.127  12.445  64.014  1.00  0.00    -0.315 C  
HETATM   20  H   UNL     2     -10.919  11.095  62.820  1.00  0.00     0.000 HD 
HETATM   21  O   UNL     2     -11.058  11.413  63.704  1.00  0.00    -0.399 OA 
ENDBRANCH   2  19
BRANCH   4  22
HETATM   22  C   UNL     3      -9.273  10.840  67.875  1.00  0.00    -0.151 C  
HETATM   23  H   UNL     3     -13.242  11.367  69.120  1.00  0.00     0.000 HD 
HETATM   24  C   UNL     3     -11.084  10.051  70.294  1.00  0.00    -0.318 C  
HETATM   25  O   UNL     3      -8.360   9.997  69.273  1.00  0.00    -0.128 OA 
HETATM   26  O   UNL     3      -8.991   8.602  71.291  1.00  0.00    -0.171 OA 
HETATM   27  C   UNL     3     -11.250  10.816  68.964  1.00  0.00    -0.262 C  
HETATM   28  O   UNL     3     -11.946   9.564  71.088  1.00  0.00    -0.304 OA 
HETATM   29  O   UNL     3     -12.410  11.377  68.662  1.00  0.00    -0.491 OA 
HETATM   30  C   UNL     3      -9.342   9.540  70.574  1.00  0.00    -0.237 C  
ENDBRANCH   4  22
BRANCH   4  31
HETATM   31  C   UNL     3      -6.605  11.799  68.504  1.00  0.00    -0.059 C  
HETATM   32  O   UNL     3      -5.763  10.729  68.025  1.00  0.00    -0.043 OA 
HETATM   33  H   UNL     3      -4.987  10.608  68.559  1.00  0.00     0.000 HD 
ENDBRANCH   4  31
TORSDOF 4
ENDMDL
MODEL       42
REMARK 921   NORMALIZED FREE ENERGY PREDICTED BY IDOCK:   -4.58 KCAL/MOL
REMARK 922        TOTAL FREE ENERGY PREDICTED BY IDOCK:   28.67 KCAL/MOL
REMARK 923 INTER-LIGAND FREE ENERGY PREDICTED BY IDOCK:   -5.67 KCAL/MOL
REMARK 924 INTRA-LIGAND FREE ENERGY PREDICTED BY IDOCK:   34.34 KCAL/MOL
REMARK 927      BINDING AFFINITY PREDICTED BY RF-SCORE:    0.00 PKD
ROOT
HETATM    1 FE   UNL     1     -10.427  13.676  69.081  1.00  0.00    -0.212 Fe 
HETATM    2  C   UNL     2      -7.588   8.756  66.551  1.00  0.00    -0.095 C  
HETATM    3  O   UNL     2      -6.264   9.331  66.833  1.00  0.00    -0.063 OA 
HETATM    4  C   UNL     3      -7.482  12.085  67.473  1.00  0.00    -0.140 C  
HETATM    5  H   UNL     3      -6.607  10.904  66.312  1.00  0.00     0.000 HD 
HETATM    6  H   UNL     2      -6.125   9.916  66.097  1.00  0.00     0.000 HD 
HETATM    7  O   UNL     3      -6.403  11.784  66.607  1.00  0.00    -0.120 OA 
ENDROOT
BRANCH   2   8
HETATM    8  C   UNL     2      -8.651   9.844  66.678  1.00  0.00    -0.130 C  
HETATM    9  H   UNL     2     -10.772  11.876  69.944  1.00  0.00     0.000 HD 
HETATM   10  H   UNL     2      -8.797  11.257  70.032  1.00  0.00     0.000 HD 
HETATM   11  C   UNL     2     -10.407  11.572  68.053  1.00  0.00    -0.190 C  
HETATM   12  O   UNL     2     -10.159   9.934  65.480  1.00  0.00    -0.303 OA 
HETATM   13  O   UNL     2     -11.916  12.305  66.102  1.00  0.00    -0.579 OA 
HETATM   14  O   UNL     2      -8.581  10.660  69.327  1.00  0.00    -0.151 OA 
HETATM   15  C   UNL     2     -11.345  11.223  66.468  1.00  0.00    -0.047 C  
HETATM   16  H   UNL     2     -12.476  12.914  66.569  1.00  0.00     0.000 HD 
HETATM   17  O   UNL     2     -11.248  11.699  69.141  1.00  0.00    -0.230 OA 
HETATM   18  C   UNL     2      -9.086  11.046  68.096  1.00  0.00    -0.155 C  
ENDBRANCH   2   8
BRANCH   2  19
HETATM   19  C   UNL     2      -7.813   7.809  67.743  1.00  0.00    -0.123 C  
HETATM   20  H   UNL     2      -9.341   6.959  68.647  1.00  0.00     0.000 HD 
HETATM   21  O   UNL     2      -9.202   7.544  67.911  1.00  0.00    -0.136 OA 
ENDBRANCH   2  19
BRANCH   4  22
HETATM   22  C   UNL     3      -9.174  11.752  66.835  1.00  0.00    -0.189 C  
HETATM   23  H   UNL     3     -10.639  10.378  63.155  1.00  0.00     0.000 HD 
HETATM   24  C   UNL     3     -10.876  12.834  64.451  1.00  0.00    -0.368 C  
HETATM   25  O   UNL     3      -9.587  13.572  66.953  1.00  0.00    -0.241 OA 
HETATM   26  O   UNL     3     -11.249  15.145  65.864  1.00  0.00    -0.338 OA 
HETATM   27  C   UNL     3     -10.188  11.507  64.834  1.00  0.00    -0.275 C  
HETATM   28  O   UNL     3     -11.761  13.092  63.578  1.00  0.00    -0.473 OA 
HETATM   29  O   UNL     3     -10.212  10.481  63.997  1.00  0.00    -0.319 OA 
HETATM   30  C   UNL     3     -10.536  14.157  65.679  1.00  0.00    -0.321 C  
ENDBRANCH   4  22
BRANCH   4  31
HETATM   31  C   UNL     3      -7.150  13.510  67.951  1.00  0.00    -0.140 C  
HETATM   32  O   UNL     3      -7.777  13.833  69.210  1.00  0.00    -0.332 OA 
HETATM   33  H   UNL     3      -7.573  14.712  69.505  1.00  0.00     0.000 HD 
ENDBRANCH   4  31
TORSDOF 4
ENDMDL
MODEL       43
REMARK 921   NORMALIZED FREE ENERGY PREDICTED BY IDOCK:   -4.49 KCAL/MOL
REMARK 922        TOTAL FREE ENERGY PREDICTED BY IDOCK:   28.79 KCAL/MOL
REMARK 923 INTER-LIGAND FREE ENERGY PREDICTED BY IDOCK:   -5.55 KCAL/MOL
REMARK 924 INTRA-LIGAND FREE ENERGY PREDICTED BY IDOCK:   34.35 KCAL/MOL
REMARK 927      BINDING AFFINITY PREDICTED BY RF-SCORE:    0.00 PKD
ROOT
HETATM    1 FE   UNL     1      -8.703   9.166  66.538  1.00  0.00    -0.112 Fe 
HETATM    2  C   UNL     2      -9.283   5.729  71.687  1.00  0.00    -0.146 C  
HETATM    3  O   UNL     2      -9.916   4.638  70.930  1.00  0.00    -0.195 OA 
HETATM    4  C   UNL     3     -10.329   6.444  68.472  1.00  0.00    -0.197 C  
HETATM    5  H   UNL     3     -10.966   5.602  70.019  1.00  0.00     0.000 HD 
HETATM    6  H   UNL     2     -10.826   4.908  70.887  1.00  0.00     0.000 HD 
HETATM    7  O   UNL     3     -11.277   5.617  69.121  1.00  0.00    -0.174 OA 
ENDROOT
BRANCH   2   8
HETATM    8  C   UNL     2      -9.300   7.004  70.849  1.00  0.00    -0.157 C  
HETATM    9  H   UNL     2      -6.977   8.665  67.511  1.00  0.00     0.000 HD 
HETATM   10  H   UNL     2      -7.411   6.654  67.754  1.00  0.00     0.000 HD 
HETATM   11  C   UNL     2      -8.408   8.763  68.832  1.00  0.00    -0.127 C  
HETATM   12  O   UNL     2      -9.633   8.733  71.636  1.00  0.00    -0.245 OA 
HETATM   13  O   UNL     2      -9.637  10.908  69.548  1.00  0.00    -0.424 OA 
HETATM   14  O   UNL     2      -7.732   6.463  68.627  1.00  0.00    -0.098 OA 
HETATM   15  C   UNL     2      -9.047   9.943  70.141  1.00  0.00    -0.124 C  
HETATM   16  H   UNL     2      -9.360  11.480  68.841  1.00  0.00     0.000 HD 
HETATM   17  O   UNL     2      -7.301   9.263  68.174  1.00  0.00    -0.078 OA 
HETATM   18  C   UNL     2      -8.653   7.387  69.093  1.00  0.00    -0.136 C  
ENDBRANCH   2   8
BRANCH   2  19
HETATM   19  C   UNL     2      -7.810   5.292  71.757  1.00  0.00    -0.111 C  
HETATM   20  H   UNL     2      -6.106   6.044  72.394  1.00  0.00     0.000 HD 
HETATM   21  O   UNL     2      -7.016   6.314  72.350  1.00  0.00    -0.075 OA 
ENDBRANCH   2  19
BRANCH   4  22
HETATM   22  C   UNL     3      -9.935   8.046  69.284  1.00  0.00    -0.191 C  
HETATM   23  H   UNL     3     -11.463  10.010  72.659  1.00  0.00     0.000 HD 
HETATM   24  C   UNL     3     -11.557  10.633  69.945  1.00  0.00    -0.316 C  
HETATM   25  O   UNL     3     -10.549   8.972  67.779  1.00  0.00    -0.246 OA 
HETATM   26  O   UNL     3     -11.433  11.296  67.295  1.00  0.00    -0.464 OA 
HETATM   27  C   UNL     3     -10.916   9.472  70.734  1.00  0.00    -0.321 C  
HETATM   28  O   UNL     3     -11.973  11.770  70.326  1.00  0.00    -0.340 OA 
HETATM   29  O   UNL     3     -11.051   9.410  72.050  1.00  0.00    -0.265 OA 
HETATM   30  C   UNL     3     -11.402  10.391  68.130  1.00  0.00    -0.213 C  
ENDBRANCH   4  22
BRANCH   4  31
HETATM   31  C   UNL     3     -10.833   6.469  67.018  1.00  0.00    -0.395 C  
HETATM   32  O   UNL     3      -9.804   6.849  66.080  1.00  0.00    -0.407 OA 
HETATM   33  H   UNL     3     -10.115   6.865  65.183  1.00  0.00     0.000 HD 
ENDBRANCH   4  31
TORSDOF 4
ENDMDL
MODEL       44
REMARK 921   NORMALIZED FREE ENERGY PREDICTED BY IDOCK:   -4.48 KCAL/MOL
REMARK 922        TOTAL FREE ENERGY PREDICTED BY IDOCK:   28.80 KCAL/MOL
REMARK 923 INTER-LIGAND FREE ENERGY PREDICTED BY IDOCK:   -5.68 KCAL/MOL
REMARK 924 INTRA-LIGAND FREE ENERGY PREDICTED BY IDOCK:   34.48 KCAL/MOL
REMARK 927      BINDING AFFINITY PREDICTED BY RF-SCORE:    0.00 PKD
ROOT
HETATM    1 FE   UNL     1     -12.981   7.241  70.108  1.00  0.00    -0.553 Fe 
HETATM    2  C   UNL     2      -7.346   9.776  69.410  1.00  0.00    -0.087 C  
HETATM    3  O   UNL     2      -7.092   8.969  68.207  1.00  0.00    -0.075 OA 
HETATM    4  C   UNL     3      -9.509   7.153  68.792  1.00  0.00    -0.141 C  
HETATM    5  H   UNL     3      -7.669   7.500  68.820  1.00  0.00     0.000 HD 
HETATM    6  H   UNL     2      -6.787   8.143  68.565  1.00  0.00     0.000 HD 
HETATM    7  O   UNL     3      -8.180   6.772  68.487  1.00  0.00    -0.118 OA 
ENDROOT
BRANCH   2   8
HETATM    8  C   UNL     2      -8.530   9.191  70.174  1.00  0.00    -0.186 C  
HETATM    9  H   UNL     2     -12.910   9.341  69.885  1.00  0.00     0.000 HD 
HETATM   10  H   UNL     2     -11.626   9.337  68.260  1.00  0.00     0.000 HD 
HETATM   11  C   UNL     2     -11.259   8.747  70.735  1.00  0.00    -0.266 C  
HETATM   12  O   UNL     2      -8.540   9.076  72.099  1.00  0.00    -0.364 OA 
HETATM   13  O   UNL     2     -11.065   7.774  73.109  1.00  0.00    -0.431 OA 
HETATM   14  O   UNL     2     -10.729   9.514  68.516  1.00  0.00    -0.218 OA 
HETATM   15  C   UNL     2     -10.485   8.694  72.441  1.00  0.00    -0.237 C  
HETATM   16  H   UNL     2     -11.984   7.594  73.271  1.00  0.00     0.000 HD 
HETATM   17  O   UNL     2     -12.518   9.314  70.750  1.00  0.00    -0.191 OA 
HETATM   18  C   UNL     2     -10.334   8.836  69.658  1.00  0.00    -0.213 C  
ENDBRANCH   2   8
BRANCH   2  19
HETATM   19  C   UNL     2      -7.841  11.112  68.830  1.00  0.00    -0.142 C  
HETATM   20  H   UNL     2      -8.338  11.828  67.065  1.00  0.00     0.000 HD 
HETATM   21  O   UNL     2      -8.033  11.002  67.423  1.00  0.00    -0.114 OA 
ENDBRANCH   2  19
BRANCH   4  22
HETATM   22  C   UNL     3      -9.832   7.730  70.507  1.00  0.00    -0.182 C  
HETATM   23  H   UNL     3      -7.487   7.875  73.980  1.00  0.00     0.000 HD 
HETATM   24  C   UNL     3      -9.754   6.391  73.328  1.00  0.00    -0.163 C  
HETATM   25  O   UNL     3     -11.087   6.363  70.742  1.00  0.00    -0.269 OA 
HETATM   26  O   UNL     3     -12.096   5.124  72.708  1.00  0.00    -0.132 OA 
HETATM   27  C   UNL     3      -8.937   7.453  72.561  1.00  0.00    -0.132 C  
HETATM   28  O   UNL     3      -9.795   6.104  74.564  1.00  0.00    -0.240 OA 
HETATM   29  O   UNL     3      -7.863   7.992  73.116  1.00  0.00    -0.133 OA 
HETATM   30  C   UNL     3     -11.070   5.655  72.279  1.00  0.00    -0.261 C  
ENDBRANCH   4  22
BRANCH   4  31
HETATM   31  C   UNL     3     -10.337   5.973  68.252  1.00  0.00    -0.207 C  
HETATM   32  O   UNL     3     -11.650   6.374  67.806  1.00  0.00    -0.622 OA 
HETATM   33  H   UNL     3     -12.161   5.646  67.473  1.00  0.00     0.000 HD 
ENDBRANCH   4  31
TORSDOF 4
ENDMDL
MODEL       45
REMARK 921   NORMALIZED FREE ENERGY PREDICTED BY IDOCK:   -4.43 KCAL/MOL
REMARK 922        TOTAL FREE ENERGY PREDICTED BY IDOCK:   28.87 KCAL/MOL
REMARK 923 INTER-LIGAND FREE ENERGY PREDICTED BY IDOCK:   -5.48 KCAL/MOL
REMARK 924 INTRA-LIGAND FREE ENERGY PREDICTED BY IDOCK:   34.34 KCAL/MOL
REMARK 927      BINDING AFFINITY PREDICTED BY RF-SCORE:    0.00 PKD
ROOT
HETATM    1 FE   UNL     1     -12.565   6.814  70.763  1.00  0.00    -0.331 Fe 
HETATM    2  C   UNL     2      -6.423   7.736  70.469  1.00  0.00    -0.038 C  
HETATM    3  O   UNL     2      -6.281   7.495  71.913  1.00  0.00    -0.039 OA 
HETATM    4  C   UNL     3      -9.323   7.692  72.348  1.00  0.00    -0.160 C  
HETATM    5  H   UNL     3      -7.603   8.430  72.408  1.00  0.00     0.000 HD 
HETATM    6  H   UNL     2      -6.491   8.341  72.292  1.00  0.00     0.000 HD 
HETATM    7  O   UNL     3      -8.291   8.354  73.058  1.00  0.00    -0.287 OA 
ENDROOT
BRANCH   2   8
HETATM    8  C   UNL     2      -7.891   7.987  70.138  1.00  0.00    -0.099 C  
HETATM    9  H   UNL     2     -11.499   5.550  69.560  1.00  0.00     0.000 HD 
HETATM   10  H   UNL     2     -10.000   5.124  70.924  1.00  0.00     0.000 HD 
HETATM   11  C   UNL     2     -10.566   7.262  69.615  1.00  0.00    -0.235 C  
HETATM   12  O   UNL     2      -8.427   9.307  68.838  1.00  0.00    -0.124 OA 
HETATM   13  O   UNL     2     -11.430   9.468  68.610  1.00  0.00    -0.452 OA 
HETATM   14  O   UNL     2      -9.216   5.633  70.760  1.00  0.00    -0.148 OA 
HETATM   15  C   UNL     2     -10.349   8.790  68.552  1.00  0.00    -0.199 C  
HETATM   16  H   UNL     2     -12.338   9.223  68.475  1.00  0.00     0.000 HD 
HETATM   17  O   UNL     2     -11.390   6.325  69.021  1.00  0.00    -0.390 OA 
HETATM   18  C   UNL     2      -9.469   6.963  70.468  1.00  0.00    -0.169 C  
ENDBRANCH   2   8
BRANCH   2  19
HETATM   19  C   UNL     2      -6.083   6.367  69.856  1.00  0.00    -0.030 C  
HETATM   20  H   UNL     2      -6.350   5.444  68.139  1.00  0.00     0.000 HD 
HETATM   21  O   UNL     2      -6.560   6.290  68.517  1.00  0.00    -0.053 OA 
ENDBRANCH   2  19
BRANCH   4  22
HETATM   22  C   UNL     3      -9.756   8.371  70.695  1.00  0.00    -0.203 C  
HETATM   23  H   UNL     3      -8.467  11.726  68.537  1.00  0.00     0.000 HD 
HETATM   24  C   UNL     3     -10.929  11.078  69.669  1.00  0.00    -0.225 C  
HETATM   25  O   UNL     3     -11.496   8.726  71.286  1.00  0.00    -0.261 OA 
HETATM   26  O   UNL     3     -13.371  10.293  70.617  1.00  0.00    -0.311 OA 
HETATM   27  C   UNL     3      -9.579  10.334  69.594  1.00  0.00    -0.162 C  
HETATM   28  O   UNL     3     -11.379  12.058  68.999  1.00  0.00    -0.236 OA 
HETATM   29  O   UNL     3      -8.541  10.901  69.000  1.00  0.00    -0.156 OA 
HETATM   30  C   UNL     3     -12.147  10.177  70.708  1.00  0.00    -0.343 C  
ENDBRANCH   4  22
BRANCH   4  31
HETATM   31  C   UNL     3     -10.439   7.568  73.401  1.00  0.00    -0.348 C  
HETATM   32  O   UNL     3     -11.445   6.601  73.031  1.00  0.00    -0.477 OA 
HETATM   33  H   UNL     3     -12.133   6.524  73.681  1.00  0.00     0.000 HD 
ENDBRANCH   4  31
TORSDOF 4
ENDMDL
MODEL       46
REMARK 921   NORMALIZED FREE ENERGY PREDICTED BY IDOCK:   -4.42 KCAL/MOL
REMARK 922        TOTAL FREE ENERGY PREDICTED BY IDOCK:   28.88 KCAL/MOL
REMARK 923 INTER-LIGAND FREE ENERGY PREDICTED BY IDOCK:   -5.57 KCAL/MOL
REMARK 924 INTRA-LIGAND FREE ENERGY PREDICTED BY IDOCK:   34.44 KCAL/MOL
REMARK 927      BINDING AFFINITY PREDICTED BY RF-SCORE:    0.00 PKD
ROOT
HETATM    1 FE   UNL     1      -9.725  10.877  70.263  1.00  0.00    -0.395 Fe 
HETATM    2  C   UNL     2      -7.359  10.226  64.550  1.00  0.00    -0.076 C  
HETATM    3  O   UNL     2      -6.048  10.721  64.998  1.00  0.00    -0.336 OA 
HETATM    4  C   UNL     3      -7.225  11.737  67.655  1.00  0.00    -0.111 C  
HETATM    5  H   UNL     3      -6.622  12.029  65.906  1.00  0.00     0.000 HD 
HETATM    6  H   UNL     2      -6.152  11.665  64.956  1.00  0.00     0.000 HD 
HETATM    7  O   UNL     3      -6.404  12.435  66.736  1.00  0.00    -0.139 OA 
ENDROOT
BRANCH   2   8
HETATM    8  C   UNL     2      -8.416  10.574  65.593  1.00  0.00    -0.179 C  
HETATM    9  H   UNL     2      -9.761   8.954  69.448  1.00  0.00     0.000 HD 
HETATM   10  H   UNL     2      -7.796   8.953  68.796  1.00  0.00     0.000 HD 
HETATM   11  C   UNL     2      -9.867  10.245  67.990  1.00  0.00    -0.150 C  
HETATM   12  O   UNL     2     -10.180  11.170  65.090  1.00  0.00    -0.259 OA 
HETATM   13  O   UNL     2     -11.858  11.803  67.514  1.00  0.00    -0.577 OA 
HETATM   14  O   UNL     2      -7.729   9.147  67.868  1.00  0.00    -0.092 OA 
HETATM   15  C   UNL     2     -11.152  10.980  66.841  1.00  0.00    -0.213 C  
HETATM   16  H   UNL     2     -12.317  11.714  68.341  1.00  0.00     0.000 HD 
HETATM   17  O   UNL     2     -10.413   9.327  68.866  1.00  0.00    -0.210 OA 
HETATM   18  C   UNL     2      -8.550  10.185  67.458  1.00  0.00    -0.118 C  
ENDBRANCH   2   8
BRANCH   2  19
HETATM   19  C   UNL     2      -7.191   8.698  64.618  1.00  0.00    -0.089 C  
HETATM   20  H   UNL     2      -5.723   7.414  64.887  1.00  0.00     0.000 HD 
HETATM   21  O   UNL     2      -5.827   8.358  64.846  1.00  0.00    -0.047 OA 
ENDBRANCH   2  19
BRANCH   4  22
HETATM   22  C   UNL     3      -9.001  11.564  67.210  1.00  0.00    -0.162 C  
HETATM   23  H   UNL     3     -11.311  12.962  64.002  1.00  0.00     0.000 HD 
HETATM   24  C   UNL     3     -11.350  13.565  66.723  1.00  0.00    -0.328 C  
HETATM   25  O   UNL     3      -9.486  12.560  68.718  1.00  0.00    -0.056 OA 
HETATM   26  O   UNL     3     -11.478  13.956  69.426  1.00  0.00    -0.256 OA 
HETATM   27  C   UNL     3     -10.499  12.597  65.874  1.00  0.00    -0.274 C  
HETATM   28  O   UNL     3     -12.452  14.144  66.473  1.00  0.00    -0.447 OA 
HETATM   29  O   UNL     3     -10.681  12.528  64.564  1.00  0.00    -0.294 OA 
HETATM   30  C   UNL     3     -10.778  13.624  68.468  1.00  0.00    -0.255 C  
ENDBRANCH   4  22
BRANCH   4  31
HETATM   31  C   UNL     3      -6.871  12.395  69.001  1.00  0.00    -0.093 C  
HETATM   32  O   UNL     3      -7.118  11.525  70.125  1.00  0.00    -0.409 OA 
HETATM   33  H   UNL     3      -6.899  11.931  70.956  1.00  0.00     0.000 HD 
ENDBRANCH   4  31
TORSDOF 4
ENDMDL
MODEL       47
REMARK 921   NORMALIZED FREE ENERGY PREDICTED BY IDOCK:   -4.37 KCAL/MOL
REMARK 922        TOTAL FREE ENERGY PREDICTED BY IDOCK:   28.94 KCAL/MOL
REMARK 923 INTER-LIGAND FREE ENERGY PREDICTED BY IDOCK:   -5.46 KCAL/MOL
REMARK 924 INTRA-LIGAND FREE ENERGY PREDICTED BY IDOCK:   34.40 KCAL/MOL
REMARK 927      BINDING AFFINITY PREDICTED BY RF-SCORE:    0.00 PKD
ROOT
HETATM    1 FE   UNL     1      -8.914  10.467  67.159  1.00  0.00    -0.131 Fe 
HETATM    2  C   UNL     2     -11.479   7.452  71.954  1.00  0.00    -0.266 C  
HETATM    3  O   UNL     2     -10.520   8.055  72.893  1.00  0.00    -0.329 OA 
HETATM    4  C   UNL     3      -8.738   9.054  70.590  1.00  0.00    -0.213 C  
HETATM    5  H   UNL     3      -9.135   7.826  71.947  1.00  0.00     0.000 HD 
HETATM    6  H   UNL     2      -9.761   7.490  72.814  1.00  0.00     0.000 HD 
HETATM    7  O   UNL     3      -8.355   8.328  71.743  1.00  0.00    -0.122 OA 
ENDROOT
BRANCH   2   8
HETATM    8  C   UNL     2     -10.973   7.632  70.526  1.00  0.00    -0.259 C  
HETATM    9  H   UNL     2     -10.891  10.857  67.546  1.00  0.00     0.000 HD 
HETATM   10  H   UNL     2     -10.683  11.139  69.587  1.00  0.00     0.000 HD 
HETATM   11  C   UNL     2     -10.509   9.034  68.123  1.00  0.00    -0.207 C  
HETATM   12  O   UNL     2     -11.165   6.246  69.199  1.00  0.00    -0.376 OA 
HETATM   13  O   UNL     2      -9.935   7.064  66.570  1.00  0.00    -0.347 OA 
HETATM   14  O   UNL     2     -10.936  10.368  70.080  1.00  0.00    -0.276 OA 
HETATM   15  C   UNL     2     -10.760   7.277  67.520  1.00  0.00    -0.256 C  
HETATM   16  H   UNL     2      -9.744   7.551  65.777  1.00  0.00     0.000 HD 
HETATM   17  O   UNL     2     -11.018   9.967  67.240  1.00  0.00    -0.251 OA 
HETATM   18  C   UNL     2     -10.465   9.183  69.536  1.00  0.00    -0.219 C  
ENDBRANCH   2   8
BRANCH   2  19
HETATM   19  C   UNL     2     -12.709   8.367  72.082  1.00  0.00    -0.356 C  
HETATM   20  H   UNL     2     -14.605   8.324  71.555  1.00  0.00     0.000 HD 
HETATM   21  O   UNL     2     -13.845   7.759  71.476  1.00  0.00    -0.371 OA 
ENDBRANCH   2  19
BRANCH   4  22
HETATM   22  C   UNL     3      -9.538   8.099  69.237  1.00  0.00    -0.164 C  
HETATM   23  H   UNL     3     -10.312   4.017  68.671  1.00  0.00     0.000 HD 
HETATM   24  C   UNL     3      -8.625   5.792  67.340  1.00  0.00    -0.105 C  
HETATM   25  O   UNL     3      -8.151   8.567  68.073  1.00  0.00    -0.113 OA 
HETATM   26  O   UNL     3      -7.153   7.624  65.943  1.00  0.00    -0.062 OA 
HETATM   27  C   UNL     3      -9.609   5.961  68.516  1.00  0.00    -0.123 C  
HETATM   28  O   UNL     3      -8.517   4.874  66.469  1.00  0.00    -0.111 OA 
HETATM   29  O   UNL     3     -10.281   4.916  68.975  1.00  0.00    -0.179 OA 
HETATM   30  C   UNL     3      -7.673   7.330  67.021  1.00  0.00    -0.111 C  
ENDBRANCH   4  22
BRANCH   4  31
HETATM   31  C   UNL     3      -7.473   9.867  70.259  1.00  0.00    -0.162 C  
HETATM   32  O   UNL     3      -7.769  11.093  69.557  1.00  0.00    -0.357 OA 
HETATM   33  H   UNL     3      -6.988  11.594  69.353  1.00  0.00     0.000 HD 
ENDBRANCH   4  31
TORSDOF 4
ENDMDL
MODEL       48
REMARK 921   NORMALIZED FREE ENERGY PREDICTED BY IDOCK:   -4.34 KCAL/MOL
REMARK 922        TOTAL FREE ENERGY PREDICTED BY IDOCK:   28.97 KCAL/MOL
REMARK 923 INTER-LIGAND FREE ENERGY PREDICTED BY IDOCK:   -5.79 KCAL/MOL
REMARK 924 INTRA-LIGAND FREE ENERGY PREDICTED BY IDOCK:   34.76 KCAL/MOL
REMARK 927      BINDING AFFINITY PREDICTED BY RF-SCORE:    0.00 PKD
ROOT
HETATM    1 FE   UNL     1      -8.172  14.541  65.835  1.00  0.00    -0.351 Fe 
HETATM    2  C   UNL     2      -9.572   8.639  67.201  1.00  0.00    -0.173 C  
HETATM    3  O   UNL     2      -9.899   8.353  65.795  1.00  0.00    -0.455 OA 
HETATM    4  C   UNL     3      -9.916  11.348  65.085  1.00  0.00    -0.264 C  
HETATM    5  H   UNL     3     -10.804   9.754  65.507  1.00  0.00     0.000 HD 
HETATM    6  H   UNL     2     -10.797   8.654  65.721  1.00  0.00     0.000 HD 
HETATM    7  O   UNL     3     -10.899  10.373  64.792  1.00  0.00     0.075 OA 
ENDROOT
BRANCH   2   8
HETATM    8  C   UNL     2      -9.523  10.148  67.414  1.00  0.00    -0.175 C  
HETATM    9  H   UNL     2      -6.667  13.396  66.647  1.00  0.00     0.000 HD 
HETATM   10  H   UNL     2      -6.933  11.751  65.417  1.00  0.00     0.000 HD 
HETATM   11  C   UNL     2      -8.372  12.722  67.313  1.00  0.00    -0.187 C  
HETATM   12  O   UNL     2     -10.212  10.970  69.018  1.00  0.00    -0.210 OA 
HETATM   13  O   UNL     2      -9.952  13.972  68.913  1.00  0.00    -0.350 OA 
HETATM   14  O   UNL     2      -7.429  11.064  65.845  1.00  0.00    -0.095 OA 
HETATM   15  C   UNL     2      -9.420  12.812  68.864  1.00  0.00     0.268 C  
HETATM   16  H   UNL     2      -9.578  14.842  68.840  1.00  0.00     0.000 HD 
HETATM   17  O   UNL     2      -7.199  13.443  67.433  1.00  0.00    -0.163 OA 
HETATM   18  C   UNL     2      -8.526  11.530  66.553  1.00  0.00    -0.160 C  
ENDBRANCH   2   8
BRANCH   2  19
HETATM   19  C   UNL     2      -8.117   8.151  67.322  1.00  0.00    -0.121 C  
HETATM   20  H   UNL     2      -6.607   8.398  68.559  1.00  0.00     0.000 HD 
HETATM   21  O   UNL     2      -7.505   8.699  68.485  1.00  0.00    -0.090 OA 
ENDBRANCH   2  19
BRANCH   4  22
HETATM   22  C   UNL     3      -9.884  12.002  66.803  1.00  0.00    -0.218 C  
HETATM   23  H   UNL     3     -12.367  11.446  70.136  1.00  0.00     0.000 HD 
HETATM   24  C   UNL     3     -11.852  13.681  68.553  1.00  0.00    -0.371 C  
HETATM   25  O   UNL     3     -10.195  13.732  66.163  1.00  0.00    -0.286 OA 
HETATM   26  O   UNL     3     -11.147  15.885  67.097  1.00  0.00    -0.270 OA 
HETATM   27  C   UNL     3     -11.318  12.233  68.532  1.00  0.00    -0.286 C  
HETATM   28  O   UNL     3     -12.453  14.334  69.462  1.00  0.00    -0.292 OA 
HETATM   29  O   UNL     3     -11.764  11.348  69.409  1.00  0.00    -0.277 OA 
HETATM   30  C   UNL     3     -11.237  14.656  67.124  1.00  0.00    -0.344 C  
ENDBRANCH   4  22
BRANCH   4  31
HETATM   31  C   UNL     3     -10.072  12.351  63.927  1.00  0.00    -0.322 C  
HETATM   32  O   UNL     3     -11.225  12.074  63.105  1.00  0.00    -0.671 OA 
HETATM   33  H   UNL     3     -11.321  12.693  62.391  1.00  0.00     0.000 HD 
ENDBRANCH   4  31
TORSDOF 4
ENDMDL
MODEL       49
REMARK 921   NORMALIZED FREE ENERGY PREDICTED BY IDOCK:   -4.34 KCAL/MOL
REMARK 922        TOTAL FREE ENERGY PREDICTED BY IDOCK:   28.97 KCAL/MOL
REMARK 923 INTER-LIGAND FREE ENERGY PREDICTED BY IDOCK:   -5.37 KCAL/MOL
REMARK 924 INTRA-LIGAND FREE ENERGY PREDICTED BY IDOCK:   34.35 KCAL/MOL
REMARK 927      BINDING AFFINITY PREDICTED BY RF-SCORE:    0.00 PKD
ROOT
HETATM    1 FE   UNL     1     -11.483   7.648  69.194  1.00  0.00    -0.394 Fe 
HETATM    2  C   UNL     2      -6.454  10.863  67.452  1.00  0.00    -0.065 C  
HETATM    3  O   UNL     2      -5.693  10.369  68.610  1.00  0.00    -0.041 OA 
HETATM    4  C   UNL     3      -8.245   9.297  69.959  1.00  0.00    -0.154 C  
HETATM    5  H   UNL     3      -6.908  10.595  69.766  1.00  0.00     0.000 HD 
HETATM    6  H   UNL     2      -5.955  10.961  69.305  1.00  0.00     0.000 HD 
HETATM    7  O   UNL     3      -7.235  10.117  70.519  1.00  0.00    -0.284 OA 
ENDROOT
BRANCH   2   8
HETATM    8  C   UNL     2      -7.941  10.609  67.677  1.00  0.00    -0.106 C  
HETATM    9  H   UNL     2     -10.689   7.199  67.344  1.00  0.00     0.000 HD 
HETATM   10  H   UNL     2      -8.718   7.062  67.963  1.00  0.00     0.000 HD 
HETATM   11  C   UNL     2     -10.305   9.070  67.734  1.00  0.00    -0.246 C  
HETATM   12  O   UNL     2      -9.281  11.895  67.154  1.00  0.00    -0.174 OA 
HETATM   13  O   UNL     2     -12.051  10.954  67.886  1.00  0.00    -0.736 OA 
HETATM   14  O   UNL     2      -8.229   7.854  67.771  1.00  0.00    -0.125 OA 
HETATM   15  C   UNL     2     -10.945  10.771  67.275  1.00  0.00    -0.297 C  
HETATM   16  H   UNL     2     -12.837  10.424  67.943  1.00  0.00     0.000 HD 
HETATM   17  O   UNL     2     -11.014   8.061  67.111  1.00  0.00    -0.191 OA 
HETATM   18  C   UNL     2      -8.923   9.017  68.063  1.00  0.00    -0.132 C  
ENDBRANCH   2   8
BRANCH   2  19
HETATM   19  C   UNL     2      -6.030   9.904  66.327  1.00  0.00    -0.064 C  
HETATM   20  H   UNL     2      -6.691   9.378  64.549  1.00  0.00     0.000 HD 
HETATM   21  O   UNL     2      -6.952   9.970  65.244  1.00  0.00    -0.119 OA 
ENDBRANCH   2  19
BRANCH   4  22
HETATM   22  C   UNL     3      -9.462  10.121  68.855  1.00  0.00    -0.183 C  
HETATM   23  H   UNL     3     -10.043  14.104  67.681  1.00  0.00     0.000 HD 
HETATM   24  C   UNL     3     -11.591  12.376  69.225  1.00  0.00    -0.319 C  
HETATM   25  O   UNL     3     -10.845   9.683  70.036  1.00  0.00    -0.232 OA 
HETATM   26  O   UNL     3     -13.160  10.573  70.552  1.00  0.00    -0.322 OA 
HETATM   27  C   UNL     3     -10.245  12.207  68.489  1.00  0.00    -0.207 C  
HETATM   28  O   UNL     3     -12.504  13.250  69.102  1.00  0.00    -0.073 OA 
HETATM   29  O   UNL     3      -9.713  13.227  67.835  1.00  0.00    -0.210 OA 
HETATM   30  C   UNL     3     -12.018  10.890  70.217  1.00  0.00    -0.361 C  
ENDBRANCH   4  22
BRANCH   4  31
HETATM   31  C   UNL     3      -8.774   8.522  71.179  1.00  0.00    -0.174 C  
HETATM   32  O   UNL     3      -9.451   7.302  70.810  1.00  0.00    -0.164 OA 
HETATM   33  H   UNL     3      -9.778   6.824  71.563  1.00  0.00     0.000 HD 
ENDBRANCH   4  31
TORSDOF 4
ENDMDL
MODEL       50
REMARK 921   NORMALIZED FREE ENERGY PREDICTED BY IDOCK:   -4.33 KCAL/MOL
REMARK 922        TOTAL FREE ENERGY PREDICTED BY IDOCK:   28.99 KCAL/MOL
REMARK 923 INTER-LIGAND FREE ENERGY PREDICTED BY IDOCK:   -5.64 KCAL/MOL
REMARK 924 INTRA-LIGAND FREE ENERGY PREDICTED BY IDOCK:   34.63 KCAL/MOL
REMARK 927      BINDING AFFINITY PREDICTED BY RF-SCORE:    0.00 PKD
ROOT
HETATM    1 FE   UNL     1      -8.844  17.525  68.022  1.00  0.00    -0.216 Fe 
HETATM    2  C   UNL     2     -11.057  11.953  66.375  1.00  0.00    -0.309 C  
HETATM    3  O   UNL     2     -12.219  12.112  67.263  1.00  0.00    -0.496 OA 
HETATM    4  C   UNL     3     -10.936  14.527  68.676  1.00  0.00    -0.251 C  
HETATM    5  H   UNL     3     -11.373  12.708  68.603  1.00  0.00     0.000 HD 
HETATM    6  H   UNL     2     -11.880  11.839  68.108  1.00  0.00     0.000 HD 
HETATM    7  O   UNL     3     -11.518  13.377  69.261  1.00  0.00    -0.267 OA 
ENDROOT
BRANCH   2   8
HETATM    8  C   UNL     2      -9.991  12.978  66.746  1.00  0.00    -0.245 C  
HETATM    9  H   UNL     2      -9.248  17.239  65.979  1.00  0.00     0.000 HD 
HETATM   10  H   UNL     2     -11.125  16.404  66.247  1.00  0.00     0.000 HD 
HETATM   11  C   UNL     2      -8.767  15.520  66.764  1.00  0.00    -0.267 C  
HETATM   12  O   UNL     2      -8.114  12.531  66.765  1.00  0.00    -0.089 OA 
HETATM   13  O   UNL     2      -6.434  14.877  67.639  1.00  0.00    -0.160 OA 
HETATM   14  O   UNL     2     -11.103  15.456  66.189  1.00  0.00    -0.313 OA 
HETATM   15  C   UNL     2      -7.293  14.365  66.846  1.00  0.00     0.628 C  
HETATM   16  H   UNL     2      -6.046  15.744  67.677  1.00  0.00     0.000 HD 
HETATM   17  O   UNL     2      -8.501  16.654  66.020  1.00  0.00    -0.409 OA 
HETATM   18  C   UNL     2     -10.035  14.884  66.862  1.00  0.00    -0.242 C  
ENDBRANCH   2   8
BRANCH   2  19
HETATM   19  C   UNL     2     -11.606  12.394  65.007  1.00  0.00    -0.345 C  
HETATM   20  H   UNL     2     -13.285  13.130  64.291  1.00  0.00     0.000 HD 
HETATM   21  O   UNL     2     -12.946  12.857  65.136  1.00  0.00    -0.758 OA 
ENDBRANCH   2  19
BRANCH   4  22
HETATM   22  C   UNL     3      -9.244  14.338  67.983  1.00  0.00    -0.192 C  
HETATM   23  H   UNL     3      -6.446  11.216  68.042  1.00  0.00     0.000 HD 
HETATM   24  C   UNL     3      -6.425  13.754  69.195  1.00  0.00    -0.109 C  
HETATM   25  O   UNL     3      -8.613  15.671  69.134  1.00  0.00    -0.216 OA 
HETATM   26  O   UNL     3      -6.373  16.325  70.122  1.00  0.00    -0.131 OA 
HETATM   27  C   UNL     3      -7.444  13.014  68.302  1.00  0.00    -0.128 C  
HETATM   28  O   UNL     3      -5.196  13.529  69.419  1.00  0.00    -0.081 OA 
HETATM   29  O   UNL     3      -7.203  11.773  67.908  1.00  0.00    -0.082 OA 
HETATM   30  C   UNL     3      -7.072  15.373  69.770  1.00  0.00    -0.139 C  
ENDBRANCH   4  22
BRANCH   4  31
HETATM   31  C   UNL     3     -11.170  15.611  69.745  1.00  0.00    -0.321 C  
HETATM   32  O   UNL     3     -10.670  15.227  71.043  1.00  0.00    -0.501 OA 
HETATM   33  H   UNL     3     -10.814  15.896  71.702  1.00  0.00     0.000 HD 
ENDBRANCH   4  31
TORSDOF 4
ENDMDL
MODEL       51
REMARK 921   NORMALIZED FREE ENERGY PREDICTED BY IDOCK:   -4.28 KCAL/MOL
REMARK 922        TOTAL FREE ENERGY PREDICTED BY IDOCK:   29.05 KCAL/MOL
REMARK 923 INTER-LIGAND FREE ENERGY PREDICTED BY IDOCK:   -5.37 KCAL/MOL
REMARK 924 INTRA-LIGAND FREE ENERGY PREDICTED BY IDOCK:   34.42 KCAL/MOL
REMARK 927      BINDING AFFINITY PREDICTED BY RF-SCORE:    0.00 PKD
ROOT
HETATM    1 FE   UNL     1      -9.155   5.369  68.322  1.00  0.00    -0.108 Fe 
HETATM    2  C   UNL     2     -11.176  11.135  69.477  1.00  0.00    -0.277 C  
HETATM    3  O   UNL     2      -9.865  11.703  69.128  1.00  0.00    -0.412 OA 
HETATM    4  C   UNL     3      -8.534   8.928  69.185  1.00  0.00    -0.132 C  
HETATM    5  H   UNL     3      -8.923  10.581  69.975  1.00  0.00     0.000 HD 
HETATM    6  H   UNL     2      -9.370  11.607  69.933  1.00  0.00     0.000 HD 
HETATM    7  O   UNL     3      -8.107  10.118  69.823  1.00  0.00    -0.168 OA 
ENDROOT
BRANCH   2   8
HETATM    8  C   UNL     2     -11.035   9.633  69.702  1.00  0.00    -0.253 C  
HETATM    9  H   UNL     2     -10.651   6.046  67.195  1.00  0.00     0.000 HD 
HETATM   10  H   UNL     2      -9.829   7.892  66.739  1.00  0.00     0.000 HD 
HETATM   11  C   UNL     2     -10.773   6.933  68.928  1.00  0.00    -0.222 C  
HETATM   12  O   UNL     2     -12.029   8.714  71.076  1.00  0.00    -0.290 OA 
HETATM   13  O   UNL     2     -11.334   5.781  71.160  1.00  0.00    -0.215 OA 
HETATM   14  O   UNL     2     -10.190   8.585  67.279  1.00  0.00    -0.226 OA 
HETATM   15  C   UNL     2     -11.756   6.801  70.519  1.00  0.00    -0.375 C  
HETATM   16  H   UNL     2     -11.205   4.877  70.897  1.00  0.00     0.000 HD 
HETATM   17  O   UNL     2     -11.149   5.979  68.002  1.00  0.00    -0.304 OA 
HETATM   18  C   UNL     2     -10.310   8.240  68.616  1.00  0.00    -0.200 C  
ENDBRANCH   2   8
BRANCH   2  19
HETATM   19  C   UNL     2     -11.977  11.290  68.173  1.00  0.00    -0.110 C  
HETATM   20  H   UNL     2     -11.714  12.107  66.402  1.00  0.00     0.000 HD 
HETATM   21  O   UNL     2     -11.219  12.011  67.207  1.00  0.00    -0.272 OA 
ENDBRANCH   2  19
BRANCH   4  22
HETATM   22  C   UNL     3      -9.919   8.015  69.976  1.00  0.00    -0.191 C  
HETATM   23  H   UNL     3     -12.096   8.596  73.512  1.00  0.00     0.000 HD 
HETATM   24  C   UNL     3     -10.326   6.592  72.727  1.00  0.00    -0.202 C  
HETATM   25  O   UNL     3      -8.804   6.538  70.248  1.00  0.00    -0.148 OA 
HETATM   26  O   UNL     3      -8.749   4.551  71.820  1.00  0.00    -0.113 OA 
HETATM   27  C   UNL     3     -10.865   7.853  72.020  1.00  0.00    -0.255 C  
HETATM   28  O   UNL     3     -10.750   5.962  73.744  1.00  0.00    -0.264 OA 
HETATM   29  O   UNL     3     -11.699   8.664  72.652  1.00  0.00    -0.325 OA 
HETATM   30  C   UNL     3      -9.041   5.745  71.724  1.00  0.00    -0.142 C  
ENDBRANCH   4  22
BRANCH   4  31
HETATM   31  C   UNL     3      -7.212   8.178  68.939  1.00  0.00    -0.078 C  
HETATM   32  O   UNL     3      -7.303   7.237  67.848  1.00  0.00    -0.091 OA 
HETATM   33  H   UNL     3      -6.488   6.774  67.697  1.00  0.00     0.000 HD 
ENDBRANCH   4  31
TORSDOF 4
ENDMDL
MODEL       52
REMARK 921   NORMALIZED FREE ENERGY PREDICTED BY IDOCK:   -4.27 KCAL/MOL
REMARK 922        TOTAL FREE ENERGY PREDICTED BY IDOCK:   29.06 KCAL/MOL
REMARK 923 INTER-LIGAND FREE ENERGY PREDICTED BY IDOCK:   -5.61 KCAL/MOL
REMARK 924 INTRA-LIGAND FREE ENERGY PREDICTED BY IDOCK:   34.68 KCAL/MOL
REMARK 927      BINDING AFFINITY PREDICTED BY RF-SCORE:    0.00 PKD
ROOT
HETATM    1 FE   UNL     1     -11.746   8.994  67.460  1.00  0.00    -0.479 Fe 
HETATM    2  C   UNL     2     -10.050   6.499  72.897  1.00  0.00    -0.181 C  
HETATM    3  O   UNL     2     -11.267   7.006  73.550  1.00  0.00    -0.537 OA 
HETATM    4  C   UNL     3     -11.899   8.851  71.168  1.00  0.00    -0.298 C  
HETATM    5  H   UNL     3     -11.220   8.564  72.889  1.00  0.00     0.000 HD 
HETATM    6  H   UNL     2     -11.032   7.900  73.772  1.00  0.00     0.000 HD 
HETATM    7  O   UNL     3     -11.854   9.181  72.544  1.00  0.00    -0.163 OA 
ENDROOT
BRANCH   2   8
HETATM    8  C   UNL     2      -9.850   7.220  71.567  1.00  0.00    -0.182 C  
HETATM    9  H   UNL     2     -11.480   6.935  67.498  1.00  0.00     0.000 HD 
HETATM   10  H   UNL     2     -12.570   6.598  69.227  1.00  0.00     0.000 HD 
HETATM   11  C   UNL     2     -10.298   7.732  68.829  1.00  0.00    -0.204 C  
HETATM   12  O   UNL     2      -8.101   7.761  70.959  1.00  0.00    -0.095 OA 
HETATM   13  O   UNL     2      -8.256   9.212  68.320  1.00  0.00    -0.114 OA 
HETATM   14  O   UNL     2     -12.010   6.498  69.987  1.00  0.00    -0.358 OA 
HETATM   15  C   UNL     2      -8.488   8.177  69.030  1.00  0.00    -0.129 C  
HETATM   16  H   UNL     2      -8.439   9.409  67.409  1.00  0.00     0.000 HD 
HETATM   17  O   UNL     2     -10.562   7.161  67.599  1.00  0.00    -0.215 OA 
HETATM   18  C   UNL     2     -10.977   7.421  70.039  1.00  0.00    -0.248 C  
ENDBRANCH   2   8
BRANCH   2  19
HETATM   19  C   UNL     2     -10.430   5.053  72.537  1.00  0.00    -0.215 C  
HETATM   20  H   UNL     2     -11.647   3.664  73.218  1.00  0.00     0.000 HD 
HETATM   21  O   UNL     2     -11.412   4.558  73.441  1.00  0.00    -0.316 OA 
ENDBRANCH   2  19
BRANCH   4  22
HETATM   22  C   UNL     3     -10.285   8.687  70.303  1.00  0.00    -0.213 C  
HETATM   23  H   UNL     3      -6.320   9.425  71.453  1.00  0.00     0.000 HD 
HETATM   24  C   UNL     3      -7.971  10.655  69.575  1.00  0.00    -0.069 C  
HETATM   25  O   UNL     3     -10.776  10.038  69.107  1.00  0.00    -0.201 OA 
HETATM   26  O   UNL     3      -9.566  11.681  67.605  1.00  0.00    -0.175 OA 
HETATM   27  C   UNL     3      -8.177   9.464  70.534  1.00  0.00    -0.189 C  
HETATM   28  O   UNL     3      -6.912  11.225  69.169  1.00  0.00    -0.095 OA 
HETATM   29  O   UNL     3      -7.207   9.099  71.356  1.00  0.00    -0.242 OA 
HETATM   30  C   UNL     3      -9.519  11.090  68.685  1.00  0.00    -0.195 C  
ENDBRANCH   4  22
BRANCH   4  31
HETATM   31  C   UNL     3     -12.927   9.851  70.608  1.00  0.00    -0.120 C  
HETATM   32  O   UNL     3     -12.738  11.187  71.121  1.00  0.00    -0.380 OA 
HETATM   33  H   UNL     3     -13.372  11.804  70.776  1.00  0.00     0.000 HD 
ENDBRANCH   4  31
TORSDOF 4
ENDMDL
MODEL       53
REMARK 921   NORMALIZED FREE ENERGY PREDICTED BY IDOCK:   -4.26 KCAL/MOL
REMARK 922        TOTAL FREE ENERGY PREDICTED BY IDOCK:   29.08 KCAL/MOL
REMARK 923 INTER-LIGAND FREE ENERGY PREDICTED BY IDOCK:   -5.24 KCAL/MOL
REMARK 924 INTRA-LIGAND FREE ENERGY PREDICTED BY IDOCK:   34.32 KCAL/MOL
REMARK 927      BINDING AFFINITY PREDICTED BY RF-SCORE:    0.00 PKD
ROOT
HETATM    1 FE   UNL     1     -11.260  11.470  66.228  1.00  0.00    -0.252 Fe 
HETATM    2  C   UNL     2      -7.982   7.063  69.142  1.00  0.00    -0.119 C  
HETATM    3  O   UNL     2      -8.905   7.083  70.288  1.00  0.00    -0.146 OA 
HETATM    4  C   UNL     3     -10.212   9.697  69.318  1.00  0.00    -0.205 C  
HETATM    5  H   UNL     3      -9.023   8.766  70.426  1.00  0.00     0.000 HD 
HETATM    6  H   UNL     2      -8.582   7.809  70.809  1.00  0.00     0.000 HD 
HETATM    7  O   UNL     3      -9.714   9.392  70.608  1.00  0.00    -0.248 OA 
ENDROOT
BRANCH   2   8
HETATM    8  C   UNL     2      -8.198   8.312  68.294  1.00  0.00    -0.128 C  
HETATM    9  H   UNL     2     -11.064   9.650  65.245  1.00  0.00     0.000 HD 
HETATM   10  H   UNL     2     -11.548   8.462  66.871  1.00  0.00     0.000 HD 
HETATM   11  C   UNL     2      -9.490   9.916  66.366  1.00  0.00    -0.183 C  
HETATM   12  O   UNL     2      -6.723   9.269  67.501  1.00  0.00    -0.067 OA 
HETATM   13  O   UNL     2      -7.674  11.702  65.994  1.00  0.00    -0.367 OA 
HETATM   14  O   UNL     2     -10.776   8.106  67.293  1.00  0.00    -0.298 OA 
HETATM   15  C   UNL     2      -7.699  10.440  66.189  1.00  0.00    -0.129 C  
HETATM   16  H   UNL     2      -8.136  12.254  65.374  1.00  0.00     0.000 HD 
HETATM   17  O   UNL     2     -10.156   9.916  65.155  1.00  0.00    -0.309 OA 
HETATM   18  C   UNL     2      -9.752   9.028  67.444  1.00  0.00    -0.168 C  
ENDBRANCH   2   8
BRANCH   2  19
HETATM   19  C   UNL     2      -8.506   5.888  68.299  1.00  0.00    -0.114 C  
HETATM   20  H   UNL     2      -8.311   5.231  66.454  1.00  0.00     0.000 HD 
HETATM   21  O   UNL     2      -7.987   5.957  66.974  1.00  0.00    -0.101 OA 
ENDBRANCH   2  19
BRANCH   4  22
HETATM   22  C   UNL     3      -8.970  10.122  68.031  1.00  0.00    -0.125 C  
HETATM   23  H   UNL     3      -4.814  10.671  68.117  1.00  0.00     0.000 HD 
HETATM   24  C   UNL     3      -6.914  12.441  67.641  1.00  0.00    -0.132 C  
HETATM   25  O   UNL     3      -9.748  11.810  67.822  1.00  0.00    -0.175 OA 
HETATM   26  O   UNL     3      -9.000  14.078  66.976  1.00  0.00    -0.221 OA 
HETATM   27  C   UNL     3      -6.863  10.928  67.941  1.00  0.00    -0.068 C  
HETATM   28  O   UNL     3      -6.012  13.243  67.248  1.00  0.00    -0.341 OA 
HETATM   29  O   UNL     3      -5.700  10.332  68.155  1.00  0.00    -0.038 OA 
HETATM   30  C   UNL     3      -8.640  13.066  67.580  1.00  0.00    -0.190 C  
ENDBRANCH   4  22
BRANCH   4  31
HETATM   31  C   UNL     3     -11.332  10.711  69.613  1.00  0.00    -0.294 C  
HETATM   32  O   UNL     3     -12.317  10.771  68.560  1.00  0.00    -0.825 OA 
HETATM   33  H   UNL     3     -13.008  11.397  68.742  1.00  0.00     0.000 HD 
ENDBRANCH   4  31
TORSDOF 4
ENDMDL
MODEL       54
REMARK 921   NORMALIZED FREE ENERGY PREDICTED BY IDOCK:   -4.26 KCAL/MOL
REMARK 922        TOTAL FREE ENERGY PREDICTED BY IDOCK:   29.08 KCAL/MOL
REMARK 923 INTER-LIGAND FREE ENERGY PREDICTED BY IDOCK:   -5.52 KCAL/MOL
REMARK 924 INTRA-LIGAND FREE ENERGY PREDICTED BY IDOCK:   34.59 KCAL/MOL
REMARK 927      BINDING AFFINITY PREDICTED BY RF-SCORE:    0.00 PKD
ROOT
HETATM    1 FE   UNL     1      -8.674   9.523  71.576  1.00  0.00    -0.185 Fe 
HETATM    2  C   UNL     2     -10.717  11.036  65.903  1.00  0.00    -0.160 C  
HETATM    3  O   UNL     2     -11.709  11.964  66.468  1.00  0.00    -0.537 OA 
HETATM    4  C   UNL     3     -11.302  10.833  69.302  1.00  0.00    -0.286 C  
HETATM    5  H   UNL     3     -12.265  10.944  67.700  1.00  0.00     0.000 HD 
HETATM    6  H   UNL     2     -12.436  11.391  66.686  1.00  0.00     0.000 HD 
HETATM    7  O   UNL     3     -12.518  11.044  68.609  1.00  0.00    -0.462 OA 
ENDROOT
BRANCH   2   8
HETATM    8  C   UNL     2     -10.202  10.112  67.001  1.00  0.00    -0.290 C  
HETATM    9  H   UNL     2      -7.291  10.358  70.282  1.00  0.00     0.000 HD 
HETATM   10  H   UNL     2      -8.486  11.928  69.652  1.00  0.00     0.000 HD 
HETATM   11  C   UNL     2      -8.618   9.397  69.224  1.00  0.00    -0.143 C  
HETATM   12  O   UNL     2      -9.862   8.241  66.678  1.00  0.00    -0.227 OA 
HETATM   13  O   UNL     2      -8.936   6.844  69.184  1.00  0.00    -0.134 OA 
HETATM   14  O   UNL     2      -8.889  11.752  68.810  1.00  0.00    -0.102 OA 
HETATM   15  C   UNL     2      -8.793   7.768  68.315  1.00  0.00    -0.129 C  
HETATM   16  H   UNL     2      -8.431   6.620  69.958  1.00  0.00     0.000 HD 
HETATM   17  O   UNL     2      -7.380   9.531  69.821  1.00  0.00    -0.071 OA 
HETATM   18  C   UNL     2      -9.392  10.466  68.694  1.00  0.00    -0.167 C  
ENDBRANCH   2   8
BRANCH   2  19
HETATM   19  C   UNL     2      -9.542  11.964  65.549  1.00  0.00    -0.182 C  
HETATM   20  H   UNL     2      -9.135  13.887  65.649  1.00  0.00     0.000 HD 
HETATM   21  O   UNL     2      -9.861  13.314  65.867  1.00  0.00    -0.277 OA 
ENDBRANCH   2  19
BRANCH   4  22
HETATM   22  C   UNL     3     -10.327   9.347  68.828  1.00  0.00    -0.230 C  
HETATM   23  H   UNL     3     -11.062   6.133  66.238  1.00  0.00     0.000 HD 
HETATM   24  C   UNL     3     -10.792   6.264  69.009  1.00  0.00    -0.337 C  
HETATM   25  O   UNL     3     -10.456   8.692  70.576  1.00  0.00    -0.195 OA 
HETATM   26  O   UNL     3     -10.309   6.424  71.695  1.00  0.00    -0.201 OA 
HETATM   27  C   UNL     3     -10.704   7.327  67.894  1.00  0.00    -0.172 C  
HETATM   28  O   UNL     3     -10.728   4.997  68.959  1.00  0.00    -0.026 OA 
HETATM   29  O   UNL     3     -10.903   6.983  66.631  1.00  0.00    -0.244 OA 
HETATM   30  C   UNL     3     -10.678   7.018  70.680  1.00  0.00    -0.231 C  
ENDBRANCH   4  22
BRANCH   4  31
HETATM   31  C   UNL     3     -11.713  10.995  70.777  1.00  0.00    -0.181 C  
HETATM   32  O   UNL     3     -12.865  10.198  71.122  1.00  0.00    -0.346 OA 
HETATM   33  H   UNL     3     -13.119  10.298  72.031  1.00  0.00     0.000 HD 
ENDBRANCH   4  31
TORSDOF 4
ENDMDL
MODEL       55
REMARK 921   NORMALIZED FREE ENERGY PREDICTED BY IDOCK:   -4.23 KCAL/MOL
REMARK 922        TOTAL FREE ENERGY PREDICTED BY IDOCK:   29.11 KCAL/MOL
REMARK 923 INTER-LIGAND FREE ENERGY PREDICTED BY IDOCK:   -5.22 KCAL/MOL
REMARK 924 INTRA-LIGAND FREE ENERGY PREDICTED BY IDOCK:   34.33 KCAL/MOL
REMARK 927      BINDING AFFINITY PREDICTED BY RF-SCORE:    0.00 PKD
ROOT
HETATM    1 FE   UNL     1     -11.428   8.006  73.192  1.00  0.00    -0.328 Fe 
HETATM    2  C   UNL     2      -9.483   5.411  67.887  1.00  0.00    -0.120 C  
HETATM    3  O   UNL     2      -9.770   4.062  68.399  1.00  0.00    -0.143 OA 
HETATM    4  C   UNL     3     -10.104   5.115  71.273  1.00  0.00    -0.210 C  
HETATM    5  H   UNL     3      -9.094   4.278  69.936  1.00  0.00     0.000 HD 
HETATM    6  H   UNL     2      -8.991   3.856  68.903  1.00  0.00     0.000 HD 
HETATM    7  O   UNL     3      -9.317   4.027  70.824  1.00  0.00    -0.119 OA 
ENDROOT
BRANCH   2   8
HETATM    8  C   UNL     2      -9.464   6.401  69.047  1.00  0.00    -0.131 C  
HETATM    9  H   UNL     2     -12.434   8.512  71.499  1.00  0.00     0.000 HD 
HETATM   10  H   UNL     2     -12.669   6.589  70.767  1.00  0.00     0.000 HD 
HETATM   11  C   UNL     2     -10.596   8.091  71.002  1.00  0.00    -0.213 C  
HETATM   12  O   UNL     2      -8.192   7.850  69.124  1.00  0.00    -0.127 OA 
HETATM   13  O   UNL     2      -8.520   9.466  71.649  1.00  0.00    -0.232 OA 
HETATM   14  O   UNL     2     -12.030   6.384  70.094  1.00  0.00    -0.354 OA 
HETATM   15  C   UNL     2      -9.007   8.985  70.571  1.00  0.00    -0.213 C  
HETATM   16  H   UNL     2      -8.905  10.002  72.333  1.00  0.00     0.000 HD 
HETATM   17  O   UNL     2     -11.629   8.966  71.281  1.00  0.00    -0.270 OA 
HETATM   18  C   UNL     2     -10.748   6.812  70.399  1.00  0.00    -0.241 C  
ENDBRANCH   2   8
BRANCH   2  19
HETATM   19  C   UNL     2     -10.744   5.745  67.071  1.00  0.00    -0.289 C  
HETATM   20  H   UNL     2     -11.670   7.362  66.436  1.00  0.00     0.000 HD 
HETATM   21  O   UNL     2     -10.891   7.156  66.940  1.00  0.00    -0.352 OA 
ENDBRANCH   2  19
BRANCH   4  22
HETATM   22  C   UNL     3      -9.424   6.800  70.991  1.00  0.00    -0.165 C  
HETATM   23  H   UNL     3      -5.802   8.212  69.421  1.00  0.00     0.000 HD 
HETATM   24  C   UNL     3      -6.896   8.344  71.981  1.00  0.00    -0.089 C  
HETATM   25  O   UNL     3      -9.386   7.104  72.836  1.00  0.00    -0.140 OA 
HETATM   26  O   UNL     3      -8.113   8.625  74.413  1.00  0.00    -0.333 OA 
HETATM   27  C   UNL     3      -7.407   7.754  70.649  1.00  0.00    -0.065 C  
HETATM   28  O   UNL     3      -5.970   9.179  72.221  1.00  0.00    -0.155 OA 
HETATM   29  O   UNL     3      -6.650   7.810  69.565  1.00  0.00    -0.037 OA 
HETATM   30  C   UNL     3      -8.033   7.968  73.374  1.00  0.00    -0.183 C  
ENDBRANCH   4  22
BRANCH   4  31
HETATM   31  C   UNL     3     -10.466   4.706  72.713  1.00  0.00    -0.201 C  
HETATM   32  O   UNL     3     -11.633   5.395  73.208  1.00  0.00    -0.511 OA 
HETATM   33  H   UNL     3     -11.856   5.144  74.096  1.00  0.00     0.000 HD 
ENDBRANCH   4  31
TORSDOF 4
ENDMDL
MODEL       56
REMARK 921   NORMALIZED FREE ENERGY PREDICTED BY IDOCK:   -4.22 KCAL/MOL
REMARK 922        TOTAL FREE ENERGY PREDICTED BY IDOCK:   29.12 KCAL/MOL
REMARK 923 INTER-LIGAND FREE ENERGY PREDICTED BY IDOCK:   -5.24 KCAL/MOL
REMARK 924 INTRA-LIGAND FREE ENERGY PREDICTED BY IDOCK:   34.36 KCAL/MOL
REMARK 927      BINDING AFFINITY PREDICTED BY RF-SCORE:    0.00 PKD
ROOT
HETATM    1 FE   UNL     1     -12.059   6.895  68.437  1.00  0.00    -0.501 Fe 
HETATM    2  C   UNL     2      -8.677   6.734  73.651  1.00  0.00    -0.134 C  
HETATM    3  O   UNL     2      -9.884   6.870  74.481  1.00  0.00    -0.433 OA 
HETATM    4  C   UNL     3     -11.596   7.649  72.044  1.00  0.00    -0.291 C  
HETATM    5  H   UNL     3     -10.618   8.098  73.576  1.00  0.00     0.000 HD 
HETATM    6  H   UNL     2     -10.033   7.809  74.488  1.00  0.00     0.000 HD 
HETATM    7  O   UNL     3     -11.500   8.307  73.294  1.00  0.00    -0.090 OA 
ENDROOT
BRANCH   2   8
HETATM    8  C   UNL     2      -9.006   7.113  72.211  1.00  0.00    -0.147 C  
HETATM    9  H   UNL     2     -10.998   5.221  68.783  1.00  0.00     0.000 HD 
HETATM   10  H   UNL     2     -11.562   4.962  70.759  1.00  0.00     0.000 HD 
HETATM   11  C   UNL     2     -10.055   6.707  69.623  1.00  0.00    -0.181 C  
HETATM   12  O   UNL     2      -7.758   8.082  71.105  1.00  0.00    -0.079 OA 
HETATM   13  O   UNL     2      -8.915   8.650  68.379  1.00  0.00    -0.141 OA 
HETATM   14  O   UNL     2     -10.897   5.272  71.362  1.00  0.00    -0.189 OA 
HETATM   15  C   UNL     2      -8.583   7.819  69.290  1.00  0.00    -0.138 C  
HETATM   16  H   UNL     2      -9.305   8.525  67.522  1.00  0.00     0.000 HD 
HETATM   17  O   UNL     2     -10.252   5.785  68.613  1.00  0.00    -0.164 OA 
HETATM   18  C   UNL     2     -10.343   6.489  70.999  1.00  0.00    -0.206 C  
ENDBRANCH   2   8
BRANCH   2  19
HETATM   19  C   UNL     2      -8.436   5.215  73.641  1.00  0.00    -0.112 C  
HETATM   20  H   UNL     2      -7.241   3.946  72.727  1.00  0.00     0.000 HD 
HETATM   21  O   UNL     2      -7.390   4.884  72.733  1.00  0.00    -0.084 OA 
ENDBRANCH   2  19
BRANCH   4  22
HETATM   22  C   UNL     3     -10.215   7.918  70.859  1.00  0.00    -0.213 C  
HETATM   23  H   UNL     3      -6.769  10.304  70.956  1.00  0.00     0.000 HD 
HETATM   24  C   UNL     3      -9.055  10.403  69.365  1.00  0.00    -0.152 C  
HETATM   25  O   UNL     3     -11.399   8.703  69.642  1.00  0.00    -0.009 OA 
HETATM   26  O   UNL     3     -11.221  10.320  67.699  1.00  0.00    -0.307 OA 
HETATM   27  C   UNL     3      -8.601   9.453  70.493  1.00  0.00    -0.223 C  
HETATM   28  O   UNL     3      -8.399  11.226  68.655  1.00  0.00    -0.149 OA 
HETATM   29  O   UNL     3      -7.448   9.659  71.110  1.00  0.00    -0.328 OA 
HETATM   30  C   UNL     3     -10.765  10.032  68.807  1.00  0.00    -0.223 C  
ENDBRANCH   4  22
BRANCH   4  31
HETATM   31  C   UNL     3     -13.026   7.988  71.585  1.00  0.00    -0.328 C  
HETATM   32  O   UNL     3     -13.521   7.070  70.588  1.00  0.00    -0.417 OA 
HETATM   33  H   UNL     3     -14.403   7.279  70.305  1.00  0.00     0.000 HD 
ENDBRANCH   4  31
TORSDOF 4
ENDMDL
MODEL       57
REMARK 921   NORMALIZED FREE ENERGY PREDICTED BY IDOCK:   -4.19 KCAL/MOL
REMARK 922        TOTAL FREE ENERGY PREDICTED BY IDOCK:   29.16 KCAL/MOL
REMARK 923 INTER-LIGAND FREE ENERGY PREDICTED BY IDOCK:   -5.27 KCAL/MOL
REMARK 924 INTRA-LIGAND FREE ENERGY PREDICTED BY IDOCK:   34.43 KCAL/MOL
REMARK 927      BINDING AFFINITY PREDICTED BY RF-SCORE:    0.00 PKD
ROOT
HETATM    1 FE   UNL     1     -12.377   7.012  69.819  1.00  0.00    -0.522 Fe 
HETATM    2  C   UNL     2      -7.946  11.113  68.335  1.00  0.00    -0.137 C  
HETATM    3  O   UNL     2      -7.909  10.625  66.947  1.00  0.00    -0.113 OA 
HETATM    4  C   UNL     3      -9.560   8.131  67.673  1.00  0.00    -0.152 C  
HETATM    5  H   UNL     3      -7.927   8.972  67.310  1.00  0.00     0.000 HD 
HETATM    6  H   UNL     2      -7.333   9.871  67.002  1.00  0.00     0.000 HD 
HETATM    7  O   UNL     3      -8.343   8.197  66.952  1.00  0.00    -0.112 OA 
ENDROOT
BRANCH   2   8
HETATM    8  C   UNL     2      -8.672  10.097  69.210  1.00  0.00    -0.186 C  
HETATM    9  H   UNL     2     -12.843   9.015  70.063  1.00  0.00     0.000 HD 
HETATM   10  H   UNL     2     -12.146   9.639  68.215  1.00  0.00     0.000 HD 
HETATM   11  C   UNL     2     -10.922   8.799  70.313  1.00  0.00    -0.235 C  
HETATM   12  O   UNL     2      -8.073   9.683  70.997  1.00  0.00    -0.287 OA 
HETATM   13  O   UNL     2      -9.798   7.563  72.271  1.00  0.00    -0.160 OA 
HETATM   14  O   UNL     2     -11.281  10.025  68.274  1.00  0.00    -0.229 OA 
HETATM   15  C   UNL     2      -9.678   8.705  71.712  1.00  0.00    -0.291 C  
HETATM   16  H   UNL     2     -10.557   7.101  72.608  1.00  0.00     0.000 HD 
HETATM   17  O   UNL     2     -12.213   8.967  70.772  1.00  0.00    -0.215 OA 
HETATM   18  C   UNL     2     -10.413   9.320  69.091  1.00  0.00    -0.217 C  
ENDBRANCH   2   8
BRANCH   2  19
HETATM   19  C   UNL     2      -8.878  12.334  68.247  1.00  0.00    -0.178 C  
HETATM   20  H   UNL     2      -9.240  13.788  66.971  1.00  0.00     0.000 HD 
HETATM   21  O   UNL     2      -8.664  13.034  67.025  1.00  0.00    -0.210 OA 
ENDBRANCH   2  19
BRANCH   4  22
HETATM   22  C   UNL     3      -9.450   8.294  69.501  1.00  0.00    -0.162 C  
HETATM   23  H   UNL     3      -6.230   8.545  72.175  1.00  0.00     0.000 HD 
HETATM   24  C   UNL     3      -8.178   6.589  71.787  1.00  0.00    -0.112 C  
HETATM   25  O   UNL     3     -10.214   6.599  69.709  1.00  0.00    -0.178 OA 
HETATM   26  O   UNL     3     -10.234   4.810  71.502  1.00  0.00    -0.200 OA 
HETATM   27  C   UNL     3      -7.914   7.956  71.121  1.00  0.00    -0.091 C  
HETATM   28  O   UNL     3      -7.758   6.102  72.882  1.00  0.00    -0.103 OA 
HETATM   29  O   UNL     3      -6.876   8.687  71.493  1.00  0.00    -0.072 OA 
HETATM   30  C   UNL     3      -9.548   5.683  70.967  1.00  0.00    -0.169 C  
ENDBRANCH   4  22
BRANCH   4  31
HETATM   31  C   UNL     3     -10.235   6.874  67.093  1.00  0.00    -0.240 C  
HETATM   32  O   UNL     3     -11.655   6.840  67.344  1.00  0.00    -0.704 OA 
HETATM   33  H   UNL     3     -12.071   6.065  66.987  1.00  0.00     0.000 HD 
ENDBRANCH   4  31
TORSDOF 4
ENDMDL
MODEL       58
REMARK 921   NORMALIZED FREE ENERGY PREDICTED BY IDOCK:   -4.12 KCAL/MOL
REMARK 922        TOTAL FREE ENERGY PREDICTED BY IDOCK:   29.24 KCAL/MOL
REMARK 923 INTER-LIGAND FREE ENERGY PREDICTED BY IDOCK:   -5.14 KCAL/MOL
REMARK 924 INTRA-LIGAND FREE ENERGY PREDICTED BY IDOCK:   34.38 KCAL/MOL
REMARK 927      BINDING AFFINITY PREDICTED BY RF-SCORE:    0.00 PKD
ROOT
HETATM    1 FE   UNL     1     -11.554   8.387  67.797  1.00  0.00    -0.471 Fe 
HETATM    2  C   UNL     2      -9.954   5.767  73.203  1.00  0.00    -0.176 C  
HETATM    3  O   UNL     2     -10.570   6.867  73.961  1.00  0.00    -0.458 OA 
HETATM    4  C   UNL     3     -10.818   8.604  71.431  1.00  0.00    -0.269 C  
HETATM    5  H   UNL     3      -9.952   8.133  73.023  1.00  0.00     0.000 HD 
HETATM    6  H   UNL     2      -9.889   7.530  73.965  1.00  0.00     0.000 HD 
HETATM    7  O   UNL     3     -10.277   8.961  72.689  1.00  0.00    -0.085 OA 
ENDROOT
BRANCH   2   8
HETATM    8  C   UNL     2      -9.774   6.189  71.749  1.00  0.00    -0.171 C  
HETATM    9  H   UNL     2     -12.310   6.504  68.176  1.00  0.00     0.000 HD 
HETATM   10  H   UNL     2     -12.949   6.894  70.107  1.00  0.00     0.000 HD 
HETATM   11  C   UNL     2     -10.597   6.670  69.093  1.00  0.00    -0.244 C  
HETATM   12  O   UNL     2      -8.202   5.713  70.739  1.00  0.00    -0.114 OA 
HETATM   13  O   UNL     2      -8.300   6.853  67.949  1.00  0.00    -0.119 OA 
HETATM   14  O   UNL     2     -12.334   6.573  70.756  1.00  0.00    -0.284 OA 
HETATM   15  C   UNL     2      -8.815   6.135  68.871  1.00  0.00    -0.122 C  
HETATM   16  H   UNL     2      -8.589   7.053  67.067  1.00  0.00     0.000 HD 
HETATM   17  O   UNL     2     -11.406   6.233  68.062  1.00  0.00    -0.260 OA 
HETATM   18  C   UNL     2     -11.010   6.836  70.444  1.00  0.00    -0.283 C  
ENDBRANCH   2   8
BRANCH   2  19
HETATM   19  C   UNL     2     -11.056   4.694  73.196  1.00  0.00    -0.289 C  
HETATM   20  H   UNL     2     -11.247   2.820  72.624  1.00  0.00     0.000 HD 
HETATM   21  O   UNL     2     -10.566   3.483  72.629  1.00  0.00    -0.143 OA 
ENDBRANCH   2  19
BRANCH   4  22
HETATM   22  C   UNL     3      -9.756   7.580  70.333  1.00  0.00    -0.179 C  
HETATM   23  H   UNL     3      -5.787   6.255  70.595  1.00  0.00     0.000 HD 
HETATM   24  C   UNL     3      -7.042   8.033  68.855  1.00  0.00    -0.067 C  
HETATM   25  O   UNL     3      -9.811   8.912  69.021  1.00  0.00    -0.171 OA 
HETATM   26  O   UNL     3      -8.372   9.602  67.053  1.00  0.00    -0.116 OA 
HETATM   27  C   UNL     3      -7.555   7.180  70.035  1.00  0.00    -0.091 C  
HETATM   28  O   UNL     3      -5.978   7.952  68.169  1.00  0.00    -0.038 OA 
HETATM   29  O   UNL     3      -6.713   6.423  70.721  1.00  0.00    -0.054 OA 
HETATM   30  C   UNL     3      -8.351   9.141  68.196  1.00  0.00    -0.120 C  
ENDBRANCH   4  22
BRANCH   4  31
HETATM   31  C   UNL     3     -11.346   9.946  70.891  1.00  0.00    -0.370 C  
HETATM   32  O   UNL     3     -12.401   9.777  69.921  1.00  0.00    -0.449 OA 
HETATM   33  H   UNL     3     -12.726  10.605  69.588  1.00  0.00     0.000 HD 
ENDBRANCH   4  31
TORSDOF 4
ENDMDL
MODEL       59
REMARK 921   NORMALIZED FREE ENERGY PREDICTED BY IDOCK:   -4.10 KCAL/MOL
REMARK 922        TOTAL FREE ENERGY PREDICTED BY IDOCK:   29.27 KCAL/MOL
REMARK 923 INTER-LIGAND FREE ENERGY PREDICTED BY IDOCK:   -5.78 KCAL/MOL
REMARK 924 INTRA-LIGAND FREE ENERGY PREDICTED BY IDOCK:   35.05 KCAL/MOL
REMARK 927      BINDING AFFINITY PREDICTED BY RF-SCORE:    0.00 PKD
ROOT
HETATM    1 FE   UNL     1      -9.578  15.995  70.711  1.00  0.00     0.072 Fe 
HETATM    2  C   UNL     2      -7.397  18.975  65.708  1.00  0.00    -0.200 C  
HETATM    3  O   UNL     2      -7.913  20.260  66.204  1.00  0.00    -0.483 OA 
HETATM    4  C   UNL     3      -9.621  18.862  68.350  1.00  0.00    -0.369 C  
HETATM    5  H   UNL     3      -9.435  19.699  66.685  1.00  0.00     0.000 HD 
HETATM    6  H   UNL     2      -8.821  20.247  65.925  1.00  0.00     0.000 HD 
HETATM    7  O   UNL     3     -10.021  19.849  67.417  1.00  0.00    -0.370 OA 
ENDROOT
BRANCH   2   8
HETATM    8  C   UNL     2      -8.053  17.833  66.478  1.00  0.00    -0.305 C  
HETATM    9  H   UNL     2      -7.467  15.835  70.346  1.00  0.00     0.000 HD 
HETATM   10  H   UNL     2      -7.173  17.858  70.013  1.00  0.00     0.000 HD 
HETATM   11  C   UNL     2      -8.392  16.057  68.643  1.00  0.00    -0.203 C  
HETATM   12  O   UNL     2      -8.644  16.222  65.598  1.00  0.00    -0.260 OA 
HETATM   13  O   UNL     2      -9.940  14.319  67.546  1.00  0.00    -0.231 OA 
HETATM   14  O   UNL     2      -7.142  18.065  69.086  1.00  0.00    -0.257 OA 
HETATM   15  C   UNL     2      -8.935  15.016  67.182  1.00  0.00    -0.217 C  
HETATM   16  H   UNL     2     -10.077  13.749  68.294  1.00  0.00     0.000 HD 
HETATM   17  O   UNL     2      -7.742  15.307  69.605  1.00  0.00    -0.219 OA 
HETATM   18  C   UNL     2      -8.115  17.418  68.341  1.00  0.00    -0.264 C  
ENDBRANCH   2   8
BRANCH   2  19
HETATM   19  C   UNL     2      -5.927  18.996  66.159  1.00  0.00    -0.161 C  
HETATM   20  H   UNL     2      -4.245  19.833  65.573  1.00  0.00     0.000 HD 
HETATM   21  O   UNL     2      -5.153  19.821  65.294  1.00  0.00    -0.157 OA 
ENDBRANCH   2  19
BRANCH   4  22
HETATM   22  C   UNL     3      -9.445  17.146  67.715  1.00  0.00    -0.253 C  
HETATM   23  H   UNL     3     -10.415  15.317  64.069  1.00  0.00     0.000 HD 
HETATM   24  C   UNL     3     -11.429  14.985  66.643  1.00  0.00    -0.251 C  
HETATM   25  O   UNL     3     -10.677  16.539  68.985  1.00  0.00    -0.291 OA 
HETATM   26  O   UNL     3     -12.234  14.555  69.221  1.00  0.00    -0.301 OA 
HETATM   27  C   UNL     3     -10.313  15.877  66.061  1.00  0.00    -0.348 C  
HETATM   28  O   UNL     3     -12.001  13.954  66.173  1.00  0.00    -0.379 OA 
HETATM   29  O   UNL     3     -10.050  15.851  64.764  1.00  0.00    -0.332 OA 
HETATM   30  C   UNL     3     -11.734  15.345  68.418  1.00  0.00    -0.316 C  
ENDBRANCH   4  22
BRANCH   4  31
HETATM   31  C   UNL     3     -10.570  19.107  69.537  1.00  0.00     0.954 C  
HETATM   32  O   UNL     3     -10.413  20.421  70.112  1.00  0.00    -0.642 OA 
HETATM   33  H   UNL     3     -10.998  20.572  70.845  1.00  0.00     0.000 HD 
ENDBRANCH   4  31
TORSDOF 4
ENDMDL
MODEL       60
REMARK 921   NORMALIZED FREE ENERGY PREDICTED BY IDOCK:   -4.08 KCAL/MOL
REMARK 922        TOTAL FREE ENERGY PREDICTED BY IDOCK:   29.29 KCAL/MOL
REMARK 923 INTER-LIGAND FREE ENERGY PREDICTED BY IDOCK:   -5.13 KCAL/MOL
REMARK 924 INTRA-LIGAND FREE ENERGY PREDICTED BY IDOCK:   34.42 KCAL/MOL
REMARK 927      BINDING AFFINITY PREDICTED BY RF-SCORE:    0.00 PKD
ROOT
HETATM    1 FE   UNL     1      -9.799   9.267  67.063  1.00  0.00    -0.139 Fe 
HETATM    2  C   UNL     2     -10.965   7.143  72.789  1.00  0.00    -0.307 C  
HETATM    3  O   UNL     2     -12.140   8.020  72.914  1.00  0.00    -0.619 OA 
HETATM    4  C   UNL     3     -11.319   9.644  70.431  1.00  0.00    -0.277 C  
HETATM    5  H   UNL     3     -11.420   9.418  72.287  1.00  0.00     0.000 HD 
HETATM    6  H   UNL     2     -11.760   8.846  73.189  1.00  0.00     0.000 HD 
HETATM    7  O   UNL     3     -11.685  10.125  71.711  1.00  0.00    -0.226 OA 
ENDROOT
BRANCH   2   8
HETATM    8  C   UNL     2     -10.103   7.614  71.623  1.00  0.00    -0.212 C  
HETATM    9  H   UNL     2     -10.164   7.240  67.246  1.00  0.00     0.000 HD 
HETATM   10  H   UNL     2     -11.852   7.416  68.434  1.00  0.00     0.000 HD 
HETATM   11  C   UNL     2      -9.367   7.871  68.911  1.00  0.00    -0.150 C  
HETATM   12  O   UNL     2      -8.176   7.607  71.717  1.00  0.00    -0.102 OA 
HETATM   13  O   UNL     2      -6.948   8.703  69.190  1.00  0.00    -0.060 OA 
HETATM   14  O   UNL     2     -11.656   7.273  69.352  1.00  0.00     0.107 OA 
HETATM   15  C   UNL     2      -7.706   7.860  69.778  1.00  0.00    -0.099 C  
HETATM   16  H   UNL     2      -6.726   8.822  68.274  1.00  0.00     0.000 HD 
HETATM   17  O   UNL     2      -9.321   7.234  67.686  1.00  0.00    -0.128 OA 
HETATM   18  C   UNL     2     -10.496   7.900  69.776  1.00  0.00    -0.233 C  
ENDBRANCH   2   8
BRANCH   2  19
HETATM   19  C   UNL     2     -11.580   5.805  72.344  1.00  0.00    -0.264 C  
HETATM   20  H   UNL     2     -11.900   4.028  73.127  1.00  0.00     0.000 HD 
HETATM   21  O   UNL     2     -11.521   4.854  73.402  1.00  0.00    -0.336 OA 
ENDBRANCH   2  19
BRANCH   4  22
HETATM   22  C   UNL     3      -9.618   8.968  70.256  1.00  0.00    -0.230 C  
HETATM   23  H   UNL     3      -6.322   8.774  72.841  1.00  0.00     0.000 HD 
HETATM   24  C   UNL     3      -6.743  10.171  70.467  1.00  0.00    -0.096 C  
HETATM   25  O   UNL     3      -9.229  10.257  68.957  1.00  0.00    -0.163 OA 
HETATM   26  O   UNL     3      -7.138  11.348  68.030  1.00  0.00    -0.070 OA 
HETATM   27  C   UNL     3      -7.616   9.191  71.277  1.00  0.00    -0.025 C  
HETATM   28  O   UNL     3      -5.494  10.396  70.499  1.00  0.00    -0.056 OA 
HETATM   29  O   UNL     3      -7.164   8.681  72.412  1.00  0.00    -0.243 OA 
HETATM   30  C   UNL     3      -7.661  10.890  69.048  1.00  0.00    -0.135 C  
ENDBRANCH   4  22
BRANCH   4  31
HETATM   31  C   UNL     3     -11.747  10.790  69.497  1.00  0.00    -0.312 C  
HETATM   32  O   UNL     3     -11.949  10.352  68.137  1.00  0.00    -0.756 OA 
HETATM   33  H   UNL     3     -12.213  11.060  67.561  1.00  0.00     0.000 HD 
ENDBRANCH   4  31
TORSDOF 4
ENDMDL
MODEL       61
REMARK 921   NORMALIZED FREE ENERGY PREDICTED BY IDOCK:   -4.05 KCAL/MOL
REMARK 922        TOTAL FREE ENERGY PREDICTED BY IDOCK:   29.34 KCAL/MOL
REMARK 923 INTER-LIGAND FREE ENERGY PREDICTED BY IDOCK:   -5.04 KCAL/MOL
REMARK 924 INTRA-LIGAND FREE ENERGY PREDICTED BY IDOCK:   34.38 KCAL/MOL
REMARK 927      BINDING AFFINITY PREDICTED BY RF-SCORE:    0.00 PKD
ROOT
HETATM    1 FE   UNL     1      -9.637  10.839  70.726  1.00  0.00    -0.219 Fe 
HETATM    2  C   UNL     2      -8.305   6.199  66.807  1.00  0.00    -0.110 C  
HETATM    3  O   UNL     2      -8.854   6.953  65.670  1.00  0.00    -0.299 OA 
HETATM    4  C   UNL     3     -10.182   9.005  67.542  1.00  0.00    -0.241 C  
HETATM    5  H   UNL     3     -10.261   7.492  66.442  1.00  0.00     0.000 HD 
HETATM    6  H   UNL     2      -9.786   6.773  65.725  1.00  0.00     0.000 HD 
HETATM    7  O   UNL     3     -10.765   8.297  66.464  1.00  0.00    -0.090 OA 
ENDROOT
BRANCH   2   8
HETATM    8  C   UNL     2      -8.774   6.834  68.112  1.00  0.00    -0.122 C  
HETATM    9  H   UNL     2      -7.647  10.296  70.570  1.00  0.00     0.000 HD 
HETATM   10  H   UNL     2      -7.581  10.254  68.501  1.00  0.00     0.000 HD 
HETATM   11  C   UNL     2      -8.741   8.722  70.208  1.00  0.00    -0.161 C  
HETATM   12  O   UNL     2      -9.285   5.766  69.635  1.00  0.00    -0.135 OA 
HETATM   13  O   UNL     2     -10.208   7.493  71.928  1.00  0.00    -0.185 OA 
HETATM   14  O   UNL     2      -7.655   9.370  68.161  1.00  0.00    -0.082 OA 
HETATM   15  C   UNL     2      -9.312   7.165  71.080  1.00  0.00    -0.157 C  
HETATM   16  H   UNL     2     -10.221   8.154  72.611  1.00  0.00     0.000 HD 
HETATM   17  O   UNL     2      -7.937   9.506  71.013  1.00  0.00    -0.321 OA 
HETATM   18  C   UNL     2      -8.625   8.611  68.795  1.00  0.00    -0.130 C  
ENDBRANCH   2   8
BRANCH   2  19
HETATM   19  C   UNL     2      -6.797   6.491  66.717  1.00  0.00    -0.066 C  
HETATM   20  H   UNL     2      -5.609   7.657  65.667  1.00  0.00     0.000 HD 
HETATM   21  O   UNL     2      -6.540   7.477  65.722  1.00  0.00    -0.044 OA 
ENDBRANCH   2  19
BRANCH   4  22
HETATM   22  C   UNL     3      -9.952   8.079  69.114  1.00  0.00    -0.188 C  
HETATM   23  H   UNL     3     -11.010   4.216  70.355  1.00  0.00     0.000 HD 
HETATM   24  C   UNL     3     -11.875   6.736  71.175  1.00  0.00    -0.360 C  
HETATM   25  O   UNL     3     -11.085   9.276  69.997  1.00  0.00    -0.235 OA 
HETATM   26  O   UNL     3     -12.526   9.232  72.081  1.00  0.00    -0.370 OA 
HETATM   27  C   UNL     3     -10.836   6.270  70.134  1.00  0.00    -0.313 C  
HETATM   28  O   UNL     3     -12.417   6.120  72.144  1.00  0.00    -0.262 OA 
HETATM   29  O   UNL     3     -10.639   4.977  69.926  1.00  0.00    -0.237 OA 
HETATM   30  C   UNL     3     -12.108   8.557  71.138  1.00  0.00    -0.252 C  
ENDBRANCH   4  22
BRANCH   4  31
HETATM   31  C   UNL     3     -10.999  10.310  67.578  1.00  0.00    -0.280 C  
HETATM   32  O   UNL     3     -10.290  11.391  68.218  1.00  0.00    -0.180 OA 
HETATM   33  H   UNL     3     -10.794  12.196  68.240  1.00  0.00     0.000 HD 
ENDBRANCH   4  31
TORSDOF 4
ENDMDL
MODEL       62
REMARK 921   NORMALIZED FREE ENERGY PREDICTED BY IDOCK:   -4.03 KCAL/MOL
REMARK 922        TOTAL FREE ENERGY PREDICTED BY IDOCK:   29.36 KCAL/MOL
REMARK 923 INTER-LIGAND FREE ENERGY PREDICTED BY IDOCK:   -4.98 KCAL/MOL
REMARK 924 INTRA-LIGAND FREE ENERGY PREDICTED BY IDOCK:   34.34 KCAL/MOL
REMARK 927      BINDING AFFINITY PREDICTED BY RF-SCORE:    0.00 PKD
ROOT
HETATM    1 FE   UNL     1      -8.879  13.652  68.263  1.00  0.00    -0.139 Fe 
HETATM    2  C   UNL     2      -8.268   8.196  65.345  1.00  0.00    -0.146 C  
HETATM    3  O   UNL     2      -8.764   8.773  64.086  1.00  0.00    -0.388 OA 
HETATM    4  C   UNL     3      -9.761  11.307  65.521  1.00  0.00    -0.229 C  
HETATM    5  H   UNL     3     -10.065   9.628  64.750  1.00  0.00     0.000 HD 
HETATM    6  H   UNL     2      -9.708   8.727  64.187  1.00  0.00     0.000 HD 
HETATM    7  O   UNL     3     -10.466  10.478  64.616  1.00  0.00    -0.311 OA 
ENDROOT
BRANCH   2   8
HETATM    8  C   UNL     2      -8.608   9.132  66.500  1.00  0.00    -0.136 C  
HETATM    9  H   UNL     2      -6.957  12.822  68.218  1.00  0.00     0.000 HD 
HETATM   10  H   UNL     2      -6.963  12.367  66.197  1.00  0.00     0.000 HD 
HETATM   11  C   UNL     2      -8.259  11.371  68.180  1.00  0.00    -0.143 C  
HETATM   12  O   UNL     2      -9.207   8.462  68.207  1.00  0.00    -0.135 OA 
HETATM   13  O   UNL     2      -9.820  10.713  70.118  1.00  0.00    -0.333 OA 
HETATM   14  O   UNL     2      -7.164  11.453  66.040  1.00  0.00     0.046 OA 
HETATM   15  C   UNL     2      -9.003  10.106  69.347  1.00  0.00    -0.191 C  
HETATM   16  H   UNL     2      -9.723  11.490  70.656  1.00  0.00     0.000 HD 
HETATM   17  O   UNL     2      -7.334  12.181  68.810  1.00  0.00    -0.109 OA 
HETATM   18  C   UNL     2      -8.205  10.971  66.817  1.00  0.00    -0.149 C  
ENDBRANCH   2   8
BRANCH   2  19
HETATM   19  C   UNL     2      -6.741   8.271  65.180  1.00  0.00    -0.055 C  
HETATM   20  H   UNL     2      -5.152   8.118  66.332  1.00  0.00     0.000 HD 
HETATM   21  O   UNL     2      -6.096   8.072  66.434  1.00  0.00    -0.043 OA 
ENDBRANCH   2  19
BRANCH   4  22
HETATM   22  C   UNL     3      -9.587  10.690  67.244  1.00  0.00    -0.186 C  
HETATM   23  H   UNL     3     -11.101   7.342  69.265  1.00  0.00     0.000 HD 
HETATM   24  C   UNL     3     -11.579  10.071  69.569  1.00  0.00    -0.059 C  
HETATM   25  O   UNL     3     -10.507  12.187  67.885  1.00  0.00    -0.199 OA 
HETATM   26  O   UNL     3     -11.844  12.764  69.958  1.00  0.00    -0.325 OA 
HETATM   27  C   UNL     3     -10.661   9.264  68.627  1.00  0.00    -0.187 C  
HETATM   28  O   UNL     3     -12.155   9.744  70.652  1.00  0.00    -0.274 OA 
HETATM   29  O   UNL     3     -10.649   7.941  68.683  1.00  0.00    -0.190 OA 
HETATM   30  C   UNL     3     -11.565  11.862  69.166  1.00  0.00    -0.312 C  
ENDBRANCH   4  22
BRANCH   4  31
HETATM   31  C   UNL     3     -10.412  12.685  65.303  1.00  0.00    -0.289 C  
HETATM   32  O   UNL     3      -9.545  13.774  65.686  1.00  0.00    -0.494 OA 
HETATM   33  H   UNL     3      -9.947  14.625  65.552  1.00  0.00     0.000 HD 
ENDBRANCH   4  31
TORSDOF 4
ENDMDL
MODEL       63
REMARK 921   NORMALIZED FREE ENERGY PREDICTED BY IDOCK:   -4.02 KCAL/MOL
REMARK 922        TOTAL FREE ENERGY PREDICTED BY IDOCK:   29.37 KCAL/MOL
REMARK 923 INTER-LIGAND FREE ENERGY PREDICTED BY IDOCK:   -5.31 KCAL/MOL
REMARK 924 INTRA-LIGAND FREE ENERGY PREDICTED BY IDOCK:   34.69 KCAL/MOL
REMARK 927      BINDING AFFINITY PREDICTED BY RF-SCORE:    0.00 PKD
ROOT
HETATM    1 FE   UNL     1     -10.160  16.876  64.801  1.00  0.00    -0.071 Fe 
HETATM    2  C   UNL     2     -10.845  15.384  70.798  1.00  0.00    -0.252 C  
HETATM    3  O   UNL     2     -11.517  16.662  71.077  1.00  0.00    -0.557 OA 
HETATM    4  C   UNL     3     -10.657  17.823  68.358  1.00  0.00    -0.291 C  
HETATM    5  H   UNL     3     -10.448  17.649  70.210  1.00  0.00     0.000 HD 
HETATM    6  H   UNL     2     -10.790  17.261  71.205  1.00  0.00     0.000 HD 
HETATM    7  O   UNL     3     -10.523  18.405  69.641  1.00  0.00     0.245 OA 
ENDROOT
BRANCH   2   8
HETATM    8  C   UNL     2     -10.132  15.467  69.452  1.00  0.00    -0.266 C  
HETATM    9  H   UNL     2     -11.244  15.101  65.218  1.00  0.00     0.000 HD 
HETATM   10  H   UNL     2     -12.450  15.935  66.681  1.00  0.00     0.000 HD 
HETATM   11  C   UNL     2      -9.939  15.388  66.638  1.00  0.00    -0.260 C  
HETATM   12  O   UNL     2      -8.379  14.710  69.182  1.00  0.00    -0.139 OA 
HETATM   13  O   UNL     2      -7.384  15.212  66.380  1.00  0.00    -0.048 OA 
HETATM   14  O   UNL     2     -12.136  15.737  67.555  1.00  0.00     0.305 OA 
HETATM   15  C   UNL     2      -8.264  14.738  67.174  1.00  0.00    -0.211 C  
HETATM   16  H   UNL     2      -7.331  15.226  65.431  1.00  0.00     0.000 HD 
HETATM   17  O   UNL     2     -10.394  14.771  65.489  1.00  0.00    -0.315 OA 
HETATM   18  C   UNL     2     -10.763  15.865  67.694  1.00  0.00    -0.312 C  
ENDBRANCH   2   8
BRANCH   2  19
HETATM   19  C   UNL     2     -12.021  14.415  70.590  1.00  0.00    -0.323 C  
HETATM   20  H   UNL     2     -13.936  14.346  71.041  1.00  0.00     0.000 HD 
HETATM   21  O   UNL     2     -13.210  14.945  71.169  1.00  0.00    -0.366 OA 
ENDBRANCH   2  19
BRANCH   4  22
HETATM   22  C   UNL     3      -9.446  16.514  67.911  1.00  0.00    -0.220 C  
HETATM   23  H   UNL     3      -6.096  14.912  69.860  1.00  0.00     0.000 HD 
HETATM   24  C   UNL     3      -6.347  16.424  67.532  1.00  0.00    -0.164 C  
HETATM   25  O   UNL     3      -8.816  17.565  66.498  1.00  0.00    -0.254 OA 
HETATM   26  O   UNL     3      -6.676  17.725  65.150  1.00  0.00    -0.120 OA 
HETATM   27  C   UNL     3      -7.376  15.866  68.538  1.00  0.00    -0.127 C  
HETATM   28  O   UNL     3      -5.133  16.115  67.324  1.00  0.00    -0.258 OA 
HETATM   29  O   UNL     3      -6.967  15.185  69.597  1.00  0.00    -0.170 OA 
HETATM   30  C   UNL     3      -7.140  17.495  66.269  1.00  0.00    -0.305 C  
ENDBRANCH   4  22
BRANCH   4  31
HETATM   31  C   UNL     3     -10.778  19.049  67.435  1.00  0.00    -0.473 C  
HETATM   32  O   UNL     3      -9.746  20.029  67.676  1.00  0.00    -0.362 OA 
HETATM   33  H   UNL     3      -9.821  20.786  67.107  1.00  0.00     0.000 HD 
ENDBRANCH   4  31
TORSDOF 4
ENDMDL
MODEL       64
REMARK 921   NORMALIZED FREE ENERGY PREDICTED BY IDOCK:   -3.99 KCAL/MOL
REMARK 922        TOTAL FREE ENERGY PREDICTED BY IDOCK:   29.40 KCAL/MOL
REMARK 923 INTER-LIGAND FREE ENERGY PREDICTED BY IDOCK:   -4.93 KCAL/MOL
REMARK 924 INTRA-LIGAND FREE ENERGY PREDICTED BY IDOCK:   34.33 KCAL/MOL
REMARK 927      BINDING AFFINITY PREDICTED BY RF-SCORE:    0.00 PKD
ROOT
HETATM    1 FE   UNL     1     -11.784   7.981  67.417  1.00  0.00    -0.449 Fe 
HETATM    2  C   UNL     2      -5.874   9.219  68.900  1.00  0.00    -0.040 C  
HETATM    3  O   UNL     2      -5.403   8.038  68.160  1.00  0.00    -0.031 OA 
HETATM    4  C   UNL     3      -8.261   6.919  67.926  1.00  0.00    -0.114 C  
HETATM    5  H   UNL     3      -6.572   6.957  68.734  1.00  0.00     0.000 HD 
HETATM    6  H   UNL     2      -5.518   7.334  68.788  1.00  0.00     0.000 HD 
HETATM    7  O   UNL     3      -7.093   6.252  68.367  1.00  0.00    -0.077 OA 
ENDROOT
BRANCH   2   8
HETATM    8  C   UNL     2      -7.378   9.108  69.129  1.00  0.00    -0.071 C  
HETATM    9  H   UNL     2     -11.028   9.797  66.785  1.00  0.00     0.000 HD 
HETATM   10  H   UNL     2      -9.257   9.054  66.010  1.00  0.00     0.000 HD 
HETATM   11  C   UNL     2     -10.104   9.288  68.425  1.00  0.00    -0.191 C  
HETATM   12  O   UNL     2      -8.195   9.655  70.789  1.00  0.00    -0.273 OA 
HETATM   13  O   UNL     2     -11.169   9.159  70.764  1.00  0.00    -0.248 OA 
HETATM   14  O   UNL     2      -8.530   9.172  66.608  1.00  0.00    -0.120 OA 
HETATM   15  C   UNL     2     -10.133   9.702  70.253  1.00  0.00    -0.275 C  
HETATM   16  H   UNL     2     -12.085   9.182  70.511  1.00  0.00     0.000 HD 
HETATM   17  O   UNL     2     -11.044  10.007  67.712  1.00  0.00    -0.286 OA 
HETATM   18  C   UNL     2      -8.840   8.870  67.925  1.00  0.00    -0.133 C  
ENDBRANCH   2   8
BRANCH   2  19
HETATM   19  C   UNL     2      -5.687  10.359  67.884  1.00  0.00    -0.040 C  
HETATM   20  H   UNL     2      -6.183  12.257  67.732  1.00  0.00     0.000 HD 
HETATM   21  O   UNL     2      -6.298  11.553  68.360  1.00  0.00    -0.049 OA 
ENDBRANCH   2  19
BRANCH   4  22
HETATM   22  C   UNL     3      -9.064   8.061  69.123  1.00  0.00    -0.145 C  
HETATM   23  H   UNL     3      -8.322   8.997  73.142  1.00  0.00     0.000 HD 
HETATM   24  C   UNL     3     -10.459   7.714  71.896  1.00  0.00    -0.215 C  
HETATM   25  O   UNL     3     -10.626   7.034  69.071  1.00  0.00    -0.206 OA 
HETATM   26  O   UNL     3     -12.616   6.654  70.592  1.00  0.00    -0.223 OA 
HETATM   27  C   UNL     3      -9.156   8.344  71.361  1.00  0.00    -0.186 C  
HETATM   28  O   UNL     3     -11.056   7.852  73.007  1.00  0.00    -0.402 OA 
HETATM   29  O   UNL     3      -8.283   8.878  72.201  1.00  0.00    -0.373 OA 
HETATM   30  C   UNL     3     -11.403   6.868  70.566  1.00  0.00    -0.327 C  
ENDBRANCH   4  22
BRANCH   4  31
HETATM   31  C   UNL     3      -9.105   5.777  67.331  1.00  0.00    -0.110 C  
HETATM   32  O   UNL     3     -10.067   6.244  66.363  1.00  0.00    -0.344 OA 
HETATM   33  H   UNL     3     -10.588   5.539  65.996  1.00  0.00     0.000 HD 
ENDBRANCH   4  31
TORSDOF 4
ENDMDL
MODEL       65
REMARK 921   NORMALIZED FREE ENERGY PREDICTED BY IDOCK:   -3.99 KCAL/MOL
REMARK 922        TOTAL FREE ENERGY PREDICTED BY IDOCK:   29.41 KCAL/MOL
REMARK 923 INTER-LIGAND FREE ENERGY PREDICTED BY IDOCK:   -5.20 KCAL/MOL
REMARK 924 INTRA-LIGAND FREE ENERGY PREDICTED BY IDOCK:   34.61 KCAL/MOL
REMARK 927      BINDING AFFINITY PREDICTED BY RF-SCORE:    0.00 PKD
ROOT
HETATM    1 FE   UNL     1      -6.134   7.449  70.899  1.00  0.00    -0.032 Fe 
HETATM    2  C   UNL     2     -11.004   6.296  67.210  1.00  0.00    -0.366 C  
HETATM    3  O   UNL     2     -10.748   7.516  66.430  1.00  0.00    -0.365 OA 
HETATM    4  C   UNL     3      -8.774   8.574  68.542  1.00  0.00    -0.139 C  
HETATM    5  H   UNL     3     -10.468   8.545  67.744  1.00  0.00     0.000 HD 
HETATM    6  H   UNL     2     -11.171   8.192  66.946  1.00  0.00     0.000 HD 
HETATM    7  O   UNL     3      -9.865   9.251  67.945  1.00  0.00    -0.155 OA 
ENDROOT
BRANCH   2   8
HETATM    8  C   UNL     2     -10.231   6.361  68.524  1.00  0.00    -0.198 C  
HETATM    9  H   UNL     2      -6.079   5.755  69.823  1.00  0.00     0.000 HD 
HETATM   10  H   UNL     2      -6.632   6.582  68.007  1.00  0.00     0.000 HD 
HETATM   11  C   UNL     2      -7.951   6.174  70.175  1.00  0.00    -0.107 C  
HETATM   12  O   UNL     2     -10.973   5.691  70.173  1.00  0.00    -0.313 OA 
HETATM   13  O   UNL     2      -9.085   6.128  72.484  1.00  0.00    -0.139 OA 
HETATM   14  O   UNL     2      -7.552   6.440  67.817  1.00  0.00    -0.098 OA 
HETATM   15  C   UNL     2      -9.328   5.640  71.329  1.00  0.00    -0.147 C  
HETATM   16  H   UNL     2      -8.308   6.104  73.030  1.00  0.00     0.000 HD 
HETATM   17  O   UNL     2      -6.777   5.484  70.409  1.00  0.00    -0.044 OA 
HETATM   18  C   UNL     2      -8.382   6.649  68.906  1.00  0.00    -0.120 C  
ENDBRANCH   2   8
BRANCH   2  19
HETATM   19  C   UNL     2     -10.319   5.202  66.374  1.00  0.00    -0.288 C  
HETATM   20  H   UNL     2      -9.487   3.446  66.692  1.00  0.00     0.000 HD 
HETATM   21  O   UNL     2      -9.911   4.122  67.208  1.00  0.00    -0.196 OA 
ENDBRANCH   2  19
BRANCH   4  22
HETATM   22  C   UNL     3      -9.175   7.367  69.870  1.00  0.00    -0.144 C  
HETATM   23  H   UNL     3     -12.734   6.321  71.824  1.00  0.00     0.000 HD 
HETATM   24  C   UNL     3     -10.415   7.575  72.729  1.00  0.00    -0.295 C  
HETATM   25  O   UNL     3      -8.141   8.344  71.085  1.00  0.00    -0.102 OA 
HETATM   26  O   UNL     3      -8.040   8.609  73.602  1.00  0.00    -0.406 OA 
HETATM   27  C   UNL     3     -10.835   7.006  71.357  1.00  0.00    -0.229 C  
HETATM   28  O   UNL     3     -10.887   7.380  73.891  1.00  0.00    -0.281 OA 
HETATM   29  O   UNL     3     -12.036   6.473  71.199  1.00  0.00    -0.353 OA 
HETATM   30  C   UNL     3      -8.794   8.435  72.643  1.00  0.00    -0.217 C  
ENDBRANCH   4  22
BRANCH   4  31
HETATM   31  C   UNL     3      -7.797   9.719  68.868  1.00  0.00    -0.087 C  
HETATM   32  O   UNL     3      -8.452  10.851  69.478  1.00  0.00    -0.380 OA 
HETATM   33  H   UNL     3      -7.849  11.557  69.679  1.00  0.00     0.000 HD 
ENDBRANCH   4  31
TORSDOF 4
ENDMDL
MODEL       66
REMARK 921   NORMALIZED FREE ENERGY PREDICTED BY IDOCK:   -3.98 KCAL/MOL
REMARK 922        TOTAL FREE ENERGY PREDICTED BY IDOCK:   29.42 KCAL/MOL
REMARK 923 INTER-LIGAND FREE ENERGY PREDICTED BY IDOCK:   -5.15 KCAL/MOL
REMARK 924 INTRA-LIGAND FREE ENERGY PREDICTED BY IDOCK:   34.57 KCAL/MOL
REMARK 927      BINDING AFFINITY PREDICTED BY RF-SCORE:    0.00 PKD
ROOT
HETATM    1 FE   UNL     1     -11.893   5.305  71.896  1.00  0.00    -0.194 Fe 
HETATM    2  C   UNL     2      -8.664   8.340  67.535  1.00  0.00    -0.129 C  
HETATM    3  O   UNL     2      -8.175   7.075  66.966  1.00  0.00    -0.115 OA 
HETATM    4  C   UNL     3      -9.130   5.483  69.422  1.00  0.00    -0.112 C  
HETATM    5  H   UNL     3      -7.782   6.328  68.433  1.00  0.00     0.000 HD 
HETATM    6  H   UNL     2      -7.429   6.868  67.517  1.00  0.00     0.000 HD 
HETATM    7  O   UNL     3      -7.858   5.455  68.799  1.00  0.00    -0.085 OA 
ENDROOT
BRANCH   2   8
HETATM    8  C   UNL     2      -9.234   8.084  68.927  1.00  0.00    -0.147 C  
HETATM    9  H   UNL     2     -12.947   6.450  70.611  1.00  0.00     0.000 HD 
HETATM   10  H   UNL     2     -12.049   5.774  68.872  1.00  0.00     0.000 HD 
HETATM   11  C   UNL     2     -11.172   7.238  70.794  1.00  0.00    -0.274 C  
HETATM   12  O   UNL     2      -8.988   9.339  70.371  1.00  0.00    -0.200 OA 
HETATM   13  O   UNL     2     -10.234   8.330  72.926  1.00  0.00    -0.295 OA 
HETATM   14  O   UNL     2     -11.386   6.376  68.557  1.00  0.00    -0.303 OA 
HETATM   15  C   UNL     2     -10.338   8.654  71.695  1.00  0.00    -0.296 C  
HETATM   16  H   UNL     2     -10.871   8.007  73.551  1.00  0.00     0.000 HD 
HETATM   17  O   UNL     2     -12.524   7.168  71.069  1.00  0.00    -0.357 OA 
HETATM   18  C   UNL     2     -10.568   6.873  69.559  1.00  0.00    -0.236 C  
ENDBRANCH   2   8
BRANCH   2  19
HETATM   19  C   UNL     2      -9.872   8.675  66.643  1.00  0.00    -0.266 C  
HETATM   20  H   UNL     2     -11.446   9.855  66.721  1.00  0.00     0.000 HD 
HETATM   21  O   UNL     2     -10.700   9.648  67.272  1.00  0.00    -0.263 OA 
ENDBRANCH   2  19
BRANCH   4  22
HETATM   22  C   UNL     3      -9.485   6.919  70.514  1.00  0.00    -0.169 C  
HETATM   23  H   UNL     3      -7.169  10.137  71.876  1.00  0.00     0.000 HD 
HETATM   24  C   UNL     3      -8.313   7.974  73.210  1.00  0.00    -0.211 C  
HETATM   25  O   UNL     3      -9.741   5.766  71.964  1.00  0.00    -0.154 OA 
HETATM   26  O   UNL     3      -9.633   5.950  74.489  1.00  0.00    -0.165 OA 
HETATM   27  C   UNL     3      -8.322   8.422  71.733  1.00  0.00    -0.160 C  
HETATM   28  O   UNL     3      -8.025   8.608  74.271  1.00  0.00    -0.382 OA 
HETATM   29  O   UNL     3      -7.657   9.505  71.363  1.00  0.00    -0.311 OA 
HETATM   30  C   UNL     3      -9.134   6.346  73.434  1.00  0.00    -0.127 C  
ENDBRANCH   4  22
BRANCH   4  31
HETATM   31  C   UNL     3      -9.252   4.068  70.015  1.00  0.00    -0.145 C  
HETATM   32  O   UNL     3      -8.107   3.699  70.812  1.00  0.00    -0.056 OA 
HETATM   33  H   UNL     3      -8.183   2.826  71.178  1.00  0.00     0.000 HD 
ENDBRANCH   4  31
TORSDOF 4
ENDMDL
MODEL       67
REMARK 921   NORMALIZED FREE ENERGY PREDICTED BY IDOCK:   -3.93 KCAL/MOL
REMARK 922        TOTAL FREE ENERGY PREDICTED BY IDOCK:   29.49 KCAL/MOL
REMARK 923 INTER-LIGAND FREE ENERGY PREDICTED BY IDOCK:   -4.85 KCAL/MOL
REMARK 924 INTRA-LIGAND FREE ENERGY PREDICTED BY IDOCK:   34.34 KCAL/MOL
REMARK 927      BINDING AFFINITY PREDICTED BY RF-SCORE:    0.00 PKD
ROOT
HETATM    1 FE   UNL     1      -7.976   6.734  71.333  1.00  0.00    -0.094 Fe 
HETATM    2  C   UNL     2      -9.038  11.869  67.991  1.00  0.00    -0.189 C  
HETATM    3  O   UNL     2      -9.846  12.450  69.075  1.00  0.00    -0.415 OA 
HETATM    4  C   UNL     3      -9.994   9.752  70.550  1.00  0.00    -0.193 C  
HETATM    5  H   UNL     3     -10.740  11.058  69.434  1.00  0.00     0.000 HD 
HETATM    6  H   UNL     2     -10.701  12.061  68.935  1.00  0.00     0.000 HD 
HETATM    7  O   UNL     3     -11.054  10.631  70.221  1.00  0.00    -0.292 OA 
ENDROOT
BRANCH   2   8
HETATM    8  C   UNL     2      -8.860  10.374  68.237  1.00  0.00    -0.135 C  
HETATM    9  H   UNL     2      -6.316   7.828  70.756  1.00  0.00     0.000 HD 
HETATM   10  H   UNL     2      -7.053   9.679  71.322  1.00  0.00     0.000 HD 
HETATM   11  C   UNL     2      -7.713   8.083  69.419  1.00  0.00    -0.104 C  
HETATM   12  O   UNL     2      -8.923   9.093  66.796  1.00  0.00    -0.124 OA 
HETATM   13  O   UNL     2      -8.596   6.274  67.816  1.00  0.00    -0.116 OA 
HETATM   14  O   UNL     2      -7.399  10.165  70.584  1.00  0.00    -0.306 OA 
HETATM   15  C   UNL     2      -8.161   7.469  67.705  1.00  0.00    -0.119 C  
HETATM   16  H   UNL     2      -8.236   5.507  68.246  1.00  0.00     0.000 HD 
HETATM   17  O   UNL     2      -6.543   7.516  69.887  1.00  0.00    -0.038 OA 
HETATM   18  C   UNL     2      -8.166   9.396  69.723  1.00  0.00    -0.143 C  
ENDBRANCH   2   8
BRANCH   2  19
HETATM   19  C   UNL     2      -7.653  12.499  68.218  1.00  0.00    -0.129 C  
HETATM   20  H   UNL     2      -5.790  12.120  67.708  1.00  0.00     0.000 HD 
HETATM   21  O   UNL     2      -6.646  11.731  67.568  1.00  0.00    -0.076 OA 
ENDBRANCH   2  19
BRANCH   4  22
HETATM   22  C   UNL     3      -9.339   8.701  69.191  1.00  0.00    -0.153 C  
HETATM   23  H   UNL     3     -10.451   8.161  65.184  1.00  0.00     0.000 HD 
HETATM   24  C   UNL     3     -10.533   6.451  67.383  1.00  0.00    -0.252 C  
HETATM   25  O   UNL     3      -9.853   7.161  70.121  1.00  0.00    -0.178 OA 
HETATM   26  O   UNL     3     -10.392   4.758  69.525  1.00  0.00    -0.196 OA 
HETATM   27  C   UNL     3     -10.050   7.905  67.201  1.00  0.00    -0.258 C  
HETATM   28  O   UNL     3     -10.761   5.536  66.532  1.00  0.00    -0.296 OA 
HETATM   29  O   UNL     3     -10.152   8.496  66.021  1.00  0.00    -0.154 OA 
HETATM   30  C   UNL     3     -10.472   5.927  69.142  1.00  0.00    -0.270 C  
ENDBRANCH   4  22
BRANCH   4  31
HETATM   31  C   UNL     3     -10.505   9.059  71.826  1.00  0.00    -0.348 C  
HETATM   32  O   UNL     3      -9.433   8.555  72.650  1.00  0.00    -0.278 OA 
HETATM   33  H   UNL     3      -9.748   8.127  73.438  1.00  0.00     0.000 HD 
ENDBRANCH   4  31
TORSDOF 4
ENDMDL
MODEL       68
REMARK 921   NORMALIZED FREE ENERGY PREDICTED BY IDOCK:   -3.92 KCAL/MOL
REMARK 922        TOTAL FREE ENERGY PREDICTED BY IDOCK:   29.49 KCAL/MOL
REMARK 923 INTER-LIGAND FREE ENERGY PREDICTED BY IDOCK:   -5.00 KCAL/MOL
REMARK 924 INTRA-LIGAND FREE ENERGY PREDICTED BY IDOCK:   34.49 KCAL/MOL
REMARK 927      BINDING AFFINITY PREDICTED BY RF-SCORE:    0.00 PKD
ROOT
HETATM    1 FE   UNL     1      -6.493   7.743  71.830  1.00  0.00    -0.041 Fe 
HETATM    2  C   UNL     2     -12.693   7.521  71.412  1.00  0.00    -0.348 C  
HETATM    3  O   UNL     2     -12.753   6.401  72.364  1.00  0.00    -0.547 OA 
HETATM    4  C   UNL     3      -9.718   5.929  72.157  1.00  0.00    -0.155 C  
HETATM    5  H   UNL     3     -11.482   5.500  71.701  1.00  0.00     0.000 HD 
HETATM    6  H   UNL     2     -12.588   5.644  71.813  1.00  0.00     0.000 HD 
HETATM    7  O   UNL     3     -10.762   4.981  72.039  1.00  0.00    -0.206 OA 
ENDROOT
BRANCH   2   8
HETATM    8  C   UNL     2     -11.263   7.679  70.904  1.00  0.00    -0.282 C  
HETATM    9  H   UNL     2      -7.513   9.413  72.397  1.00  0.00     0.000 HD 
HETATM   10  H   UNL     2      -8.917   8.453  73.580  1.00  0.00     0.000 HD 
HETATM   11  C   UNL     2      -8.566   8.498  71.034  1.00  0.00    -0.158 C  
HETATM   12  O   UNL     2     -10.882   8.130  69.068  1.00  0.00    -0.133 OA 
HETATM   13  O   UNL     2      -7.912   8.245  68.559  1.00  0.00    -0.118 OA 
HETATM   14  O   UNL     2      -9.743   8.336  73.127  1.00  0.00    -0.254 OA 
HETATM   15  C   UNL     2      -8.941   8.639  69.203  1.00  0.00    -0.142 C  
HETATM   16  H   UNL     2      -6.995   8.485  68.623  1.00  0.00     0.000 HD 
HETATM   17  O   UNL     2      -7.703   9.485  71.468  1.00  0.00    -0.266 OA 
HETATM   18  C   UNL     2      -9.601   7.914  71.815  1.00  0.00    -0.165 C  
ENDBRANCH   2   8
BRANCH   2  19
HETATM   19  C   UNL     2     -12.959   8.746  72.303  1.00  0.00    -0.408 C  
HETATM   20  H   UNL     2     -14.513   9.608  73.150  1.00  0.00     0.000 HD 
HETATM   21  O   UNL     2     -14.348   8.851  72.599  1.00  0.00    -0.613 OA 
ENDBRANCH   2  19
BRANCH   4  22
HETATM   22  C   UNL     3      -9.407   7.006  70.699  1.00  0.00    -0.162 C  
HETATM   23  H   UNL     3     -10.916   7.051  66.788  1.00  0.00     0.000 HD 
HETATM   24  C   UNL     3      -8.371   6.524  67.793  1.00  0.00    -0.119 C  
HETATM   25  O   UNL     3      -7.644   6.389  70.607  1.00  0.00    -0.097 OA 
HETATM   26  O   UNL     3      -5.855   6.224  68.820  1.00  0.00    -0.018 OA 
HETATM   27  C   UNL     3      -9.704   6.919  68.463  1.00  0.00    -0.138 C  
HETATM   28  O   UNL     3      -7.990   6.605  66.585  1.00  0.00    -0.102 OA 
HETATM   29  O   UNL     3     -10.792   7.088  67.728  1.00  0.00    -0.228 OA 
HETATM   30  C   UNL     3      -7.067   6.155  69.033  1.00  0.00    -0.081 C  
ENDBRANCH   4  22
BRANCH   4  31
HETATM   31  C   UNL     3      -8.550   5.088  72.704  1.00  0.00    -0.119 C  
HETATM   32  O   UNL     3      -7.568   5.887  73.397  1.00  0.00    -0.096 OA 
HETATM   33  H   UNL     3      -6.847   5.368  73.734  1.00  0.00     0.000 HD 
ENDBRANCH   4  31
TORSDOF 4
ENDMDL
MODEL       69
REMARK 921   NORMALIZED FREE ENERGY PREDICTED BY IDOCK:   -3.91 KCAL/MOL
REMARK 922        TOTAL FREE ENERGY PREDICTED BY IDOCK:   29.51 KCAL/MOL
REMARK 923 INTER-LIGAND FREE ENERGY PREDICTED BY IDOCK:   -4.96 KCAL/MOL
REMARK 924 INTRA-LIGAND FREE ENERGY PREDICTED BY IDOCK:   34.47 KCAL/MOL
REMARK 927      BINDING AFFINITY PREDICTED BY RF-SCORE:    0.00 PKD
ROOT
HETATM    1 FE   UNL     1      -8.463   5.761  72.229  1.00  0.00    -0.111 Fe 
HETATM    2  C   UNL     2     -12.234  10.016  69.713  1.00  0.00     0.187 C  
HETATM    3  O   UNL     2     -13.288   9.716  70.695  1.00  0.00    -0.593 OA 
HETATM    4  C   UNL     3     -11.851   7.149  71.602  1.00  0.00    -0.306 C  
HETATM    5  H   UNL     3     -13.172   8.029  70.609  1.00  0.00     0.000 HD 
HETATM    6  H   UNL     2     -13.722   8.960  70.316  1.00  0.00     0.000 HD 
HETATM    7  O   UNL     3     -13.206   7.308  71.227  1.00  0.00    -0.372 OA 
ENDROOT
BRANCH   2   8
HETATM    8  C   UNL     2     -11.200   8.895  69.719  1.00  0.00    -0.018 C  
HETATM    9  H   UNL     2      -7.808   7.688  72.234  1.00  0.00     0.000 HD 
HETATM   10  H   UNL     2      -9.554   8.540  72.949  1.00  0.00     0.000 HD 
HETATM   11  C   UNL     2      -8.978   7.455  70.691  1.00  0.00    -0.155 C  
HETATM   12  O   UNL     2     -10.374   8.267  68.092  1.00  0.00    -0.204 OA 
HETATM   13  O   UNL     2      -8.468   5.994  68.635  1.00  0.00    -0.112 OA 
HETATM   14  O   UNL     2     -10.074   8.922  72.252  1.00  0.00    -0.294 OA 
HETATM   15  C   UNL     2      -8.844   7.197  68.840  1.00  0.00    -0.130 C  
HETATM   16  H   UNL     2      -7.745   5.489  68.988  1.00  0.00     0.000 HD 
HETATM   17  O   UNL     2      -7.739   7.557  71.295  1.00  0.00    -0.083 OA 
HETATM   18  C   UNL     2     -10.155   8.127  71.120  1.00  0.00    -0.184 C  
ENDBRANCH   2   8
BRANCH   2  19
HETATM   19  C   UNL     2     -11.531  11.239  70.326  1.00  0.00    -0.193 C  
HETATM   20  H   UNL     2     -11.924  13.148  70.600  1.00  0.00     0.000 HD 
HETATM   21  O   UNL     2     -12.359  12.393  70.221  1.00  0.00    -0.275 OA 
ENDBRANCH   2  19
BRANCH   4  22
HETATM   22  C   UNL     3     -10.618   7.071  70.240  1.00  0.00    -0.247 C  
HETATM   23  H   UNL     3     -10.950   7.072  66.060  1.00  0.00     0.000 HD 
HETATM   24  C   UNL     3     -10.097   5.120  67.857  1.00  0.00    -0.137 C  
HETATM   25  O   UNL     3     -10.140   5.338  70.758  1.00  0.00    -0.196 OA 
HETATM   26  O   UNL     3      -9.074   3.325  69.648  1.00  0.00    -0.106 OA 
HETATM   27  C   UNL     3     -10.588   6.572  68.038  1.00  0.00    -0.251 C  
HETATM   28  O   UNL     3      -9.675   4.505  66.829  1.00  0.00    -0.174 OA 
HETATM   29  O   UNL     3     -10.963   7.282  66.986  1.00  0.00    -0.358 OA 
HETATM   30  C   UNL     3      -9.826   4.285  69.471  1.00  0.00    -0.154 C  
ENDBRANCH   4  22
BRANCH   4  31
HETATM   31  C   UNL     3     -11.906   5.980  72.603  1.00  0.00    -0.123 C  
HETATM   32  O   UNL     3     -10.864   6.052  73.598  1.00  0.00    -0.374 OA 
HETATM   33  H   UNL     3     -10.898   5.331  74.215  1.00  0.00     0.000 HD 
ENDBRANCH   4  31
TORSDOF 4
ENDMDL
MODEL       70
REMARK 921   NORMALIZED FREE ENERGY PREDICTED BY IDOCK:   -3.90 KCAL/MOL
REMARK 922        TOTAL FREE ENERGY PREDICTED BY IDOCK:   29.51 KCAL/MOL
REMARK 923 INTER-LIGAND FREE ENERGY PREDICTED BY IDOCK:   -4.92 KCAL/MOL
REMARK 924 INTRA-LIGAND FREE ENERGY PREDICTED BY IDOCK:   34.43 KCAL/MOL
REMARK 927      BINDING AFFINITY PREDICTED BY RF-SCORE:    0.00 PKD
ROOT
HETATM    1 FE   UNL     1      -7.172   7.426  71.417  1.00  0.00    -0.062 Fe 
HETATM    2  C   UNL     2     -11.145  10.295  67.590  1.00  0.00    -0.251 C  
HETATM    3  O   UNL     2     -11.923  10.811  68.727  1.00  0.00    -0.620 OA 
HETATM    4  C   UNL     3     -10.493   8.923  70.694  1.00  0.00    -0.221 C  
HETATM    5  H   UNL     3     -11.959   9.373  69.619  1.00  0.00     0.000 HD 
HETATM    6  H   UNL     2     -12.497  10.083  68.939  1.00  0.00     0.000 HD 
HETATM    7  O   UNL     3     -11.884   9.133  70.535  1.00  0.00    -0.218 OA 
ENDROOT
BRANCH   2   8
HETATM    8  C   UNL     2     -10.231   9.172  68.069  1.00  0.00    -0.258 C  
HETATM    9  H   UNL     2      -6.379   8.853  70.155  1.00  0.00     0.000 HD 
HETATM   10  H   UNL     2      -7.800  10.311  70.530  1.00  0.00     0.000 HD 
HETATM   11  C   UNL     2      -7.937   8.067  69.284  1.00  0.00    -0.116 C  
HETATM   12  O   UNL     2      -9.924   7.591  67.007  1.00  0.00    -0.191 OA 
HETATM   13  O   UNL     2      -8.111   5.646  68.430  1.00  0.00    -0.101 OA 
HETATM   14  O   UNL     2      -8.461  10.347  69.849  1.00  0.00    -0.087 OA 
HETATM   15  C   UNL     2      -8.330   6.810  67.952  1.00  0.00    -0.120 C  
HETATM   16  H   UNL     2      -7.357   5.278  68.876  1.00  0.00     0.000 HD 
HETATM   17  O   UNL     2      -6.577   8.215  69.479  1.00  0.00    -0.037 OA 
HETATM   18  C   UNL     2      -8.903   9.100  69.439  1.00  0.00    -0.146 C  
ENDBRANCH   2   8
BRANCH   2  19
HETATM   19  C   UNL     2     -10.217  11.473  67.247  1.00  0.00    -0.202 C  
HETATM   20  H   UNL     2     -10.388  13.267  66.454  1.00  0.00     0.000 HD 
HETATM   21  O   UNL     2     -10.961  12.539  66.666  1.00  0.00    -0.251 OA 
ENDBRANCH   2  19
BRANCH   4  22
HETATM   22  C   UNL     3      -9.669   7.855  69.444  1.00  0.00    -0.170 C  
HETATM   23  H   UNL     3     -11.096   5.554  66.242  1.00  0.00     0.000 HD 
HETATM   24  C   UNL     3      -9.879   4.843  68.646  1.00  0.00    -0.152 C  
HETATM   25  O   UNL     3      -9.144   6.667  70.790  1.00  0.00    -0.150 OA 
HETATM   26  O   UNL     3      -8.494   4.222  70.920  1.00  0.00    -0.080 OA 
HETATM   27  C   UNL     3     -10.244   6.203  68.016  1.00  0.00    -0.175 C  
HETATM   28  O   UNL     3      -9.771   3.688  68.130  1.00  0.00    -0.137 OA 
HETATM   29  O   UNL     3     -10.855   6.249  66.842  1.00  0.00    -0.331 OA 
HETATM   30  C   UNL     3      -9.226   5.034  70.352  1.00  0.00    -0.148 C  
ENDBRANCH   4  22
BRANCH   4  31
HETATM   31  C   UNL     3     -10.371   8.534  72.178  1.00  0.00    -0.339 C  
HETATM   32  O   UNL     3      -9.036   8.725  72.694  1.00  0.00    -0.354 OA 
HETATM   33  H   UNL     3      -8.961   8.485  73.610  1.00  0.00     0.000 HD 
ENDBRANCH   4  31
TORSDOF 4
ENDMDL
MODEL       71
REMARK 921   NORMALIZED FREE ENERGY PREDICTED BY IDOCK:   -3.89 KCAL/MOL
REMARK 922        TOTAL FREE ENERGY PREDICTED BY IDOCK:   29.53 KCAL/MOL
REMARK 923 INTER-LIGAND FREE ENERGY PREDICTED BY IDOCK:   -4.89 KCAL/MOL
REMARK 924 INTRA-LIGAND FREE ENERGY PREDICTED BY IDOCK:   34.41 KCAL/MOL
REMARK 927      BINDING AFFINITY PREDICTED BY RF-SCORE:    0.00 PKD
ROOT
HETATM    1 FE   UNL     1      -9.275   4.394  70.991  1.00  0.00    -0.102 Fe 
HETATM    2  C   UNL     2      -7.861  10.309  69.697  1.00  0.00    -0.160 C  
HETATM    3  O   UNL     2      -6.870  10.348  70.785  1.00  0.00    -0.369 OA 
HETATM    4  C   UNL     3      -7.923   7.711  71.974  1.00  0.00    -0.100 C  
HETATM    5  H   UNL     3      -7.822   9.580  71.956  1.00  0.00     0.000 HD 
HETATM    6  H   UNL     2      -7.401  10.537  71.550  1.00  0.00     0.000 HD 
HETATM    7  O   UNL     3      -7.680   8.936  72.639  1.00  0.00    -0.366 OA 
ENDROOT
BRANCH   2   8
HETATM    8  C   UNL     2      -8.770   9.098  69.882  1.00  0.00    -0.170 C  
HETATM    9  H   UNL     2      -8.496   4.764  69.225  1.00  0.00     0.000 HD 
HETATM   10  H   UNL     2      -6.925   5.958  69.853  1.00  0.00     0.000 HD 
HETATM   11  C   UNL     2      -9.462   6.365  69.779  1.00  0.00    -0.152 C  
HETATM   12  O   UNL     2     -10.650   9.166  69.456  1.00  0.00    -0.218 OA 
HETATM   13  O   UNL     2     -12.012   6.547  70.072  1.00  0.00    -0.591 OA 
HETATM   14  O   UNL     2      -7.112   6.882  69.736  1.00  0.00    -0.064 OA 
HETATM   15  C   UNL     2     -11.105   7.207  69.461  1.00  0.00    -0.141 C  
HETATM   16  H   UNL     2     -12.227   5.622  70.074  1.00  0.00     0.000 HD 
HETATM   17  O   UNL     2      -9.330   5.190  69.064  1.00  0.00    -0.109 OA 
HETATM   18  C   UNL     2      -8.394   7.241  70.118  1.00  0.00    -0.137 C  
ENDBRANCH   2   8
BRANCH   2  19
HETATM   19  C   UNL     2      -7.001  10.003  68.459  1.00  0.00    -0.066 C  
HETATM   20  H   UNL     2      -7.289   9.362  66.620  1.00  0.00     0.000 HD 
HETATM   21  O   UNL     2      -7.820   9.551  67.385  1.00  0.00    -0.101 OA 
ENDBRANCH   2  19
BRANCH   4  22
HETATM   22  C   UNL     3      -9.467   7.600  70.981  1.00  0.00    -0.164 C  
HETATM   23  H   UNL     3     -12.643  10.252  70.302  1.00  0.00     0.000 HD 
HETATM   24  C   UNL     3     -12.516   7.804  71.629  1.00  0.00    -0.326 C  
HETATM   25  O   UNL     3     -10.104   6.247  72.104  1.00  0.00    -0.181 OA 
HETATM   26  O   UNL     3     -12.372   5.306  72.730  1.00  0.00    -0.045 OA 
HETATM   27  C   UNL     3     -11.465   8.646  70.874  1.00  0.00    -0.275 C  
HETATM   28  O   UNL     3     -13.784   7.848  71.614  1.00  0.00    -0.353 OA 
HETATM   29  O   UNL     3     -11.803   9.812  70.347  1.00  0.00    -0.254 OA 
HETATM   30  C   UNL     3     -11.762   6.335  72.433  1.00  0.00    -0.257 C  
ENDBRANCH   4  22
BRANCH   4  31
HETATM   31  C   UNL     3      -7.693   6.667  73.082  1.00  0.00    -0.095 C  
HETATM   32  O   UNL     3      -7.368   5.363  72.557  1.00  0.00    -0.090 OA 
HETATM   33  H   UNL     3      -7.226   4.719  73.240  1.00  0.00     0.000 HD 
ENDBRANCH   4  31
TORSDOF 4
ENDMDL
MODEL       72
REMARK 921   NORMALIZED FREE ENERGY PREDICTED BY IDOCK:   -3.89 KCAL/MOL
REMARK 922        TOTAL FREE ENERGY PREDICTED BY IDOCK:   29.53 KCAL/MOL
REMARK 923 INTER-LIGAND FREE ENERGY PREDICTED BY IDOCK:   -4.90 KCAL/MOL
REMARK 924 INTRA-LIGAND FREE ENERGY PREDICTED BY IDOCK:   34.43 KCAL/MOL
REMARK 927      BINDING AFFINITY PREDICTED BY RF-SCORE:    0.00 PKD
ROOT
HETATM    1 FE   UNL     1      -8.871  11.990  65.090  1.00  0.00    -0.370 Fe 
HETATM    2  C   UNL     2     -10.293   8.051  69.687  1.00  0.00    -0.220 C  
HETATM    3  O   UNL     2     -11.660   8.586  69.771  1.00  0.00    -0.432 OA 
HETATM    4  C   UNL     3     -10.927  11.014  68.026  1.00  0.00    -0.258 C  
HETATM    5  H   UNL     3     -11.245  10.225  69.694  1.00  0.00     0.000 HD 
HETATM    6  H   UNL     2     -11.556   9.352  70.324  1.00  0.00     0.000 HD 
HETATM    7  O   UNL     3     -11.594  11.002  69.274  1.00  0.00    -0.259 OA 
ENDROOT
BRANCH   2   8
HETATM    8  C   UNL     2      -9.417   9.018  68.897  1.00  0.00    -0.151 C  
HETATM    9  H   UNL     2      -8.708   9.964  64.666  1.00  0.00     0.000 HD 
HETATM   10  H   UNL     2     -10.544   9.419  65.456  1.00  0.00     0.000 HD 
HETATM   11  C   UNL     2      -8.370  10.221  66.569  1.00  0.00    -0.126 C  
HETATM   12  O   UNL     2      -7.595   9.389  69.410  1.00  0.00    -0.075 OA 
HETATM   13  O   UNL     2      -6.328  11.420  67.576  1.00  0.00    -0.058 OA 
HETATM   14  O   UNL     2     -10.460   9.053  66.329  1.00  0.00    -0.179 OA 
HETATM   15  C   UNL     2      -6.917  10.301  67.750  1.00  0.00    -0.083 C  
HETATM   16  H   UNL     2      -6.008  11.851  66.792  1.00  0.00     0.000 HD 
HETATM   17  O   UNL     2      -7.971  10.004  65.264  1.00  0.00    -0.131 OA 
HETATM   18  C   UNL     2      -9.585   9.754  67.143  1.00  0.00    -0.169 C  
ENDBRANCH   2   8
BRANCH   2  19
HETATM   19  C   UNL     2     -10.462   6.812  68.792  1.00  0.00    -0.208 C  
HETATM   20  H   UNL     2     -11.259   5.018  68.939  1.00  0.00     0.000 HD 
HETATM   21  O   UNL     2     -11.155   5.784  69.492  1.00  0.00    -0.366 OA 
ENDBRANCH   2  19
BRANCH   4  22
HETATM   22  C   UNL     3      -9.102  10.791  68.061  1.00  0.00    -0.150 C  
HETATM   23  H   UNL     3      -6.298  10.529  71.168  1.00  0.00     0.000 HD 
HETATM   24  C   UNL     3      -6.706  12.448  69.188  1.00  0.00    -0.090 C  
HETATM   25  O   UNL     3      -8.872  12.458  67.245  1.00  0.00    -0.176 OA 
HETATM   26  O   UNL     3      -7.023  14.185  67.101  1.00  0.00    -0.146 OA 
HETATM   27  C   UNL     3      -7.405  11.111  69.516  1.00  0.00    -0.018 C  
HETATM   28  O   UNL     3      -5.579  12.908  69.547  1.00  0.00    -0.079 OA 
HETATM   29  O   UNL     3      -7.012  10.394  70.556  1.00  0.00    -0.305 OA 
HETATM   30  C   UNL     3      -7.556  13.348  67.831  1.00  0.00    -0.151 C  
ENDBRANCH   4  22
BRANCH   4  31
HETATM   31  C   UNL     3     -11.494  12.273  67.345  1.00  0.00    -0.352 C  
HETATM   32  O   UNL     3     -11.426  12.203  65.905  1.00  0.00    -0.345 OA 
HETATM   33  H   UNL     3     -11.776  12.980  65.485  1.00  0.00     0.000 HD 
ENDBRANCH   4  31
TORSDOF 4
ENDMDL
MODEL       73
REMARK 921   NORMALIZED FREE ENERGY PREDICTED BY IDOCK:   -3.89 KCAL/MOL
REMARK 922        TOTAL FREE ENERGY PREDICTED BY IDOCK:   29.53 KCAL/MOL
REMARK 923 INTER-LIGAND FREE ENERGY PREDICTED BY IDOCK:   -5.12 KCAL/MOL
REMARK 924 INTRA-LIGAND FREE ENERGY PREDICTED BY IDOCK:   34.65 KCAL/MOL
REMARK 927      BINDING AFFINITY PREDICTED BY RF-SCORE:    0.00 PKD
ROOT
HETATM    1 FE   UNL     1     -12.093  15.524  65.956  1.00  0.00    -0.141 Fe 
HETATM    2  C   UNL     2      -7.690  11.410  67.487  1.00  0.00    -0.125 C  
HETATM    3  O   UNL     2      -8.647  10.630  68.289  1.00  0.00    -0.119 OA 
HETATM    4  C   UNL     3     -10.726  12.899  68.199  1.00  0.00    -0.241 C  
HETATM    5  H   UNL     3      -9.374  11.943  69.073  1.00  0.00     0.000 HD 
HETATM    6  H   UNL     2      -8.649  11.089  69.121  1.00  0.00     0.000 HD 
HETATM    7  O   UNL     3     -10.256  12.185  69.328  1.00  0.00     0.089 OA 
ENDROOT
BRANCH   2   8
HETATM    8  C   UNL     2      -8.274  12.790  67.201  1.00  0.00    -0.146 C  
HETATM    9  H   UNL     2     -11.203  14.506  64.414  1.00  0.00     0.000 HD 
HETATM   10  H   UNL     2     -11.350  12.620  65.257  1.00  0.00     0.000 HD 
HETATM   11  C   UNL     2      -9.909  14.660  65.865  1.00  0.00    -0.330 C  
HETATM   12  O   UNL     2      -7.181  14.379  67.220  1.00  0.00    -0.170 OA 
HETATM   13  O   UNL     2      -8.822  16.848  66.672  1.00  0.00    -0.215 OA 
HETATM   14  O   UNL     2     -10.534  12.346  65.657  1.00  0.00    -0.250 OA 
HETATM   15  C   UNL     2      -8.412  15.691  66.322  1.00  0.00    -0.152 C  
HETATM   16  H   UNL     2      -9.403  17.468  66.247  1.00  0.00     0.000 HD 
HETATM   17  O   UNL     2     -10.444  15.029  64.645  1.00  0.00    -0.318 OA 
HETATM   18  C   UNL     2      -9.915  13.341  66.396  1.00  0.00    -0.288 C  
ENDBRANCH   2   8
BRANCH   2  19
HETATM   19  C   UNL     2      -7.686  10.668  66.139  1.00  0.00    -0.145 C  
HETATM   20  H   UNL     2      -6.362  10.148  64.778  1.00  0.00     0.000 HD 
HETATM   21  O   UNL     2      -6.365  10.606  65.611  1.00  0.00    -0.128 OA 
ENDBRANCH   2  19
BRANCH   4  22
HETATM   22  C   UNL     3      -9.622  14.208  67.530  1.00  0.00    -0.223 C  
HETATM   23  H   UNL     3      -5.983  15.840  68.826  1.00  0.00     0.000 HD 
HETATM   24  C   UNL     3      -8.538  16.932  68.607  1.00  0.00    -0.267 C  
HETATM   25  O   UNL     3     -10.946  15.494  67.833  1.00  0.00    -0.297 OA 
HETATM   26  O   UNL     3     -11.015  18.004  68.172  1.00  0.00    -0.230 OA 
HETATM   27  C   UNL     3      -7.960  15.539  68.279  1.00  0.00    -0.132 C  
HETATM   28  O   UNL     3      -7.964  18.049  68.797  1.00  0.00    -0.299 OA 
HETATM   29  O   UNL     3      -6.682  15.280  68.510  1.00  0.00    -0.106 OA 
HETATM   30  C   UNL     3     -10.361  16.982  68.388  1.00  0.00    -0.351 C  
ENDBRANCH   4  22
BRANCH   4  31
HETATM   31  C   UNL     3     -12.156  13.292  68.612  1.00  0.00    -0.222 C  
HETATM   32  O   UNL     3     -12.198  13.974  69.883  1.00  0.00    -0.317 OA 
HETATM   33  H   UNL     3     -13.081  14.217  70.138  1.00  0.00     0.000 HD 
ENDBRANCH   4  31
TORSDOF 4
ENDMDL
MODEL       74
REMARK 921   NORMALIZED FREE ENERGY PREDICTED BY IDOCK:   -3.84 KCAL/MOL
REMARK 922        TOTAL FREE ENERGY PREDICTED BY IDOCK:   29.59 KCAL/MOL
REMARK 923 INTER-LIGAND FREE ENERGY PREDICTED BY IDOCK:   -4.79 KCAL/MOL
REMARK 924 INTRA-LIGAND FREE ENERGY PREDICTED BY IDOCK:   34.38 KCAL/MOL
REMARK 927      BINDING AFFINITY PREDICTED BY RF-SCORE:    0.00 PKD
ROOT
HETATM    1 FE   UNL     1     -11.600   8.294  72.014  1.00  0.00    -0.245 Fe 
HETATM    2  C   UNL     2      -9.042   2.670  71.321  1.00  0.00    -0.108 C  
HETATM    3  O   UNL     2      -8.180   2.878  72.495  1.00  0.00    -0.065 OA 
HETATM    4  C   UNL     3      -8.826   5.887  72.563  1.00  0.00    -0.132 C  
HETATM    5  H   UNL     3      -7.700   4.457  72.120  1.00  0.00     0.000 HD 
HETATM    6  H   UNL     2      -7.447   3.366  72.137  1.00  0.00     0.000 HD 
HETATM    7  O   UNL     3      -7.556   5.262  72.603  1.00  0.00    -0.094 OA 
ENDROOT
BRANCH   2   8
HETATM    8  C   UNL     2      -9.615   4.009  70.869  1.00  0.00    -0.253 C  
HETATM    9  H   UNL     2     -12.825   6.713  72.164  1.00  0.00     0.000 HD 
HETATM   10  H   UNL     2     -11.647   5.590  73.445  1.00  0.00     0.000 HD 
HETATM   11  C   UNL     2     -11.365   6.220  70.969  1.00  0.00    -0.316 C  
HETATM   12  O   UNL     2      -9.842   4.438  69.002  1.00  0.00    -0.173 OA 
HETATM   13  O   UNL     2     -10.934   7.226  68.640  1.00  0.00    -0.412 OA 
HETATM   14  O   UNL     2     -11.161   4.919  72.983  1.00  0.00    -0.262 OA 
HETATM   15  C   UNL     2     -11.036   6.052  69.132  1.00  0.00    -0.359 C  
HETATM   16  H   UNL     2     -11.498   7.988  68.702  1.00  0.00     0.000 HD 
HETATM   17  O   UNL     2     -12.658   6.629  71.232  1.00  0.00    -0.317 OA 
HETATM   18  C   UNL     2     -10.594   5.360  71.798  1.00  0.00    -0.222 C  
ENDBRANCH   2   8
BRANCH   2  19
HETATM   19  C   UNL     2     -10.228   1.880  71.900  1.00  0.00    -0.092 C  
HETATM   20  H   UNL     2     -10.856   1.307  73.676  1.00  0.00     0.000 HD 
HETATM   21  O   UNL     2     -10.123   1.795  73.318  1.00  0.00    -0.088 OA 
ENDBRANCH   2  19
BRANCH   4  22
HETATM   22  C   UNL     3      -9.645   5.993  70.921  1.00  0.00    -0.196 C  
HETATM   23  H   UNL     3      -8.433   4.990  67.034  1.00  0.00     0.000 HD 
HETATM   24  C   UNL     3      -8.998   7.443  68.231  1.00  0.00    -0.130 C  
HETATM   25  O   UNL     3      -9.655   7.860  71.034  1.00  0.00    -0.159 OA 
HETATM   26  O   UNL     3      -9.767   9.792  69.399  1.00  0.00    -0.179 OA 
HETATM   27  C   UNL     3      -9.039   5.988  68.746  1.00  0.00    -0.124 C  
HETATM   28  O   UNL     3      -8.972   7.908  67.050  1.00  0.00    -0.122 OA 
HETATM   29  O   UNL     3      -8.687   4.992  67.949  1.00  0.00    -0.103 OA 
HETATM   30  C   UNL     3      -9.335   8.651  69.573  1.00  0.00    -0.153 C  
ENDBRANCH   4  22
BRANCH   4  31
HETATM   31  C   UNL     3      -8.592   7.191  73.346  1.00  0.00    -0.134 C  
HETATM   32  O   UNL     3      -9.810   7.736  73.895  1.00  0.00    -0.355 OA 
HETATM   33  H   UNL     3      -9.666   8.541  74.378  1.00  0.00     0.000 HD 
ENDBRANCH   4  31
TORSDOF 4
ENDMDL
MODEL       75
REMARK 921   NORMALIZED FREE ENERGY PREDICTED BY IDOCK:   -3.82 KCAL/MOL
REMARK 922        TOTAL FREE ENERGY PREDICTED BY IDOCK:   29.62 KCAL/MOL
REMARK 923 INTER-LIGAND FREE ENERGY PREDICTED BY IDOCK:   -4.94 KCAL/MOL
REMARK 924 INTRA-LIGAND FREE ENERGY PREDICTED BY IDOCK:   34.56 KCAL/MOL
REMARK 927      BINDING AFFINITY PREDICTED BY RF-SCORE:    0.00 PKD
ROOT
HETATM    1 FE   UNL     1      -8.669  13.628  66.157  1.00  0.00    -0.369 Fe 
HETATM    2  C   UNL     2      -7.206   7.621  66.817  1.00  0.00    -0.088 C  
HETATM    3  O   UNL     2      -7.305   7.400  65.366  1.00  0.00    -0.066 OA 
HETATM    4  C   UNL     3      -8.690  10.117  64.945  1.00  0.00    -0.181 C  
HETATM    5  H   UNL     3      -8.747   8.254  65.126  1.00  0.00     0.000 HD 
HETATM    6  H   UNL     2      -8.236   7.262  65.234  1.00  0.00     0.000 HD 
HETATM    7  O   UNL     3      -9.091   8.846  64.468  1.00  0.00    -0.058 OA 
ENDROOT
BRANCH   2   8
HETATM    8  C   UNL     2      -7.877   8.943  67.176  1.00  0.00    -0.096 C  
HETATM    9  H   UNL     2      -6.840  13.207  66.994  1.00  0.00     0.000 HD 
HETATM   10  H   UNL     2      -6.258  11.796  65.594  1.00  0.00     0.000 HD 
HETATM   11  C   UNL     2      -8.057  11.747  67.429  1.00  0.00    -0.161 C  
HETATM   12  O   UNL     2      -8.932   9.144  68.779  1.00  0.00    -0.135 OA 
HETATM   13  O   UNL     2     -10.100  11.916  68.984  1.00  0.00    -0.403 OA 
HETATM   14  O   UNL     2      -6.393  10.909  65.906  1.00  0.00    -0.126 OA 
HETATM   15  C   UNL     2      -9.087  11.147  68.875  1.00  0.00    -0.089 C  
HETATM   16  H   UNL     2     -10.173  12.862  69.030  1.00  0.00     0.000 HD 
HETATM   17  O   UNL     2      -7.363  12.903  67.727  1.00  0.00    -0.106 OA 
HETATM   18  C   UNL     2      -7.607  10.725  66.548  1.00  0.00    -0.139 C  
ENDBRANCH   2   8
BRANCH   2  19
HETATM   19  C   UNL     2      -5.699   7.843  67.030  1.00  0.00    -0.037 C  
HETATM   20  H   UNL     2      -4.535   8.650  68.396  1.00  0.00     0.000 HD 
HETATM   21  O   UNL     2      -5.466   8.513  68.265  1.00  0.00    -0.033 OA 
ENDBRANCH   2  19
BRANCH   4  22
HETATM   22  C   UNL     3      -9.036  10.485  66.712  1.00  0.00    -0.149 C  
HETATM   23  H   UNL     3     -11.072   8.411  69.735  1.00  0.00     0.000 HD 
HETATM   24  C   UNL     3     -11.629  10.806  68.423  1.00  0.00    -0.239 C  
HETATM   25  O   UNL     3     -10.111  11.932  66.211  1.00  0.00    -0.211 OA 
HETATM   26  O   UNL     3     -12.010  13.247  67.252  1.00  0.00    -0.367 OA 
HETATM   27  C   UNL     3     -10.468   9.795  68.315  1.00  0.00    -0.216 C  
HETATM   28  O   UNL     3     -12.502  10.979  69.329  1.00  0.00    -0.400 OA 
HETATM   29  O   UNL     3     -10.469   8.702  69.061  1.00  0.00    -0.216 OA 
HETATM   30  C   UNL     3     -11.503  12.128  67.154  1.00  0.00    -0.346 C  
ENDBRANCH   4  22
BRANCH   4  31
HETATM   31  C   UNL     3      -9.248  11.076  63.877  1.00  0.00    -0.166 C  
HETATM   32  O   UNL     3     -10.669  10.920  63.679  1.00  0.00    -0.546 OA 
HETATM   33  H   UNL     3     -11.013  11.511  63.021  1.00  0.00     0.000 HD 
ENDBRANCH   4  31
TORSDOF 4
ENDMDL
MODEL       76
REMARK 921   NORMALIZED FREE ENERGY PREDICTED BY IDOCK:   -3.80 KCAL/MOL
REMARK 922        TOTAL FREE ENERGY PREDICTED BY IDOCK:   29.64 KCAL/MOL
REMARK 923 INTER-LIGAND FREE ENERGY PREDICTED BY IDOCK:   -5.23 KCAL/MOL
REMARK 924 INTRA-LIGAND FREE ENERGY PREDICTED BY IDOCK:   34.87 KCAL/MOL
REMARK 927      BINDING AFFINITY PREDICTED BY RF-SCORE:    0.00 PKD
ROOT
HETATM    1 FE   UNL     1     -12.135   9.620  68.202  1.00  0.00    -0.506 Fe 
HETATM    2  C   UNL     2      -6.509   8.566  65.774  1.00  0.00    -0.053 C  
HETATM    3  O   UNL     2      -6.986   7.344  65.108  1.00  0.00    -0.056 OA 
HETATM    4  C   UNL     3      -9.586   7.338  66.756  1.00  0.00    -0.185 C  
HETATM    5  H   UNL     3      -7.851   6.718  66.422  1.00  0.00     0.000 HD 
HETATM    6  H   UNL     2      -6.923   6.689  65.794  1.00  0.00     0.000 HD 
HETATM    7  O   UNL     3      -8.680   6.271  66.546  1.00  0.00    -0.122 OA 
ENDROOT
BRANCH   2   8
HETATM    8  C   UNL     2      -7.513   8.986  66.843  1.00  0.00    -0.090 C  
HETATM    9  H   UNL     2     -11.367  11.091  66.959  1.00  0.00     0.000 HD 
HETATM   10  H   UNL     2     -10.770   9.816  65.439  1.00  0.00     0.000 HD 
HETATM   11  C   UNL     2      -9.876  10.177  67.822  1.00  0.00    -0.163 C  
HETATM   12  O   UNL     2      -6.947   9.677  68.552  1.00  0.00    -0.064 OA 
HETATM   13  O   UNL     2      -9.307  10.283  70.329  1.00  0.00    -0.345 OA 
HETATM   14  O   UNL     2      -9.841   9.626  65.479  1.00  0.00    -0.302 OA 
HETATM   15  C   UNL     2      -8.674  10.451  69.233  1.00  0.00    -0.150 C  
HETATM   16  H   UNL     2     -10.122  10.649  70.650  1.00  0.00     0.000 HD 
HETATM   17  O   UNL     2     -10.757  11.230  67.674  1.00  0.00    -0.201 OA 
HETATM   18  C   UNL     2      -9.382   9.368  66.761  1.00  0.00    -0.158 C  
ENDBRANCH   2   8
BRANCH   2  19
HETATM   19  C   UNL     2      -6.611   9.625  64.663  1.00  0.00    -0.100 C  
HETATM   20  H   UNL     2      -5.520  11.114  63.980  1.00  0.00     0.000 HD 
HETATM   21  O   UNL     2      -5.457  10.460  64.666  1.00  0.00    -0.113 OA 
ENDBRANCH   2  19
BRANCH   4  22
HETATM   22  C   UNL     3      -9.093   8.614  67.985  1.00  0.00    -0.144 C  
HETATM   23  H   UNL     3      -5.869   8.947  70.645  1.00  0.00     0.000 HD 
HETATM   24  C   UNL     3      -8.604   8.621  71.070  1.00  0.00    -0.173 C  
HETATM   25  O   UNL     3     -10.616   8.236  69.003  1.00  0.00    -0.215 OA 
HETATM   26  O   UNL     3     -11.313   8.512  71.423  1.00  0.00    -0.246 OA 
HETATM   27  C   UNL     3      -7.749   8.763  69.793  1.00  0.00    -0.084 C  
HETATM   28  O   UNL     3      -8.343   8.895  72.281  1.00  0.00    -0.384 OA 
HETATM   29  O   UNL     3      -6.434   8.884  69.884  1.00  0.00    -0.037 OA 
HETATM   30  C   UNL     3     -10.363   8.269  70.677  1.00  0.00    -0.199 C  
ENDBRANCH   4  22
BRANCH   4  31
HETATM   31  C   UNL     3     -10.929   6.613  66.957  1.00  0.00    -0.393 C  
HETATM   32  O   UNL     3     -11.082   5.476  66.081  1.00  0.00    -0.747 OA 
HETATM   33  H   UNL     3     -11.911   5.029  66.205  1.00  0.00     0.000 HD 
ENDBRANCH   4  31
TORSDOF 4
ENDMDL
MODEL       77
REMARK 921   NORMALIZED FREE ENERGY PREDICTED BY IDOCK:   -3.79 KCAL/MOL
REMARK 922        TOTAL FREE ENERGY PREDICTED BY IDOCK:   29.65 KCAL/MOL
REMARK 923 INTER-LIGAND FREE ENERGY PREDICTED BY IDOCK:   -4.79 KCAL/MOL
REMARK 924 INTRA-LIGAND FREE ENERGY PREDICTED BY IDOCK:   34.44 KCAL/MOL
REMARK 927      BINDING AFFINITY PREDICTED BY RF-SCORE:    0.00 PKD
ROOT
HETATM    1 FE   UNL     1     -11.872   9.621  67.912  1.00  0.00    -0.544 Fe 
HETATM    2  C   UNL     2      -6.085  11.223  69.525  1.00  0.00    -0.085 C  
HETATM    3  O   UNL     2      -5.632  11.133  68.128  1.00  0.00    -0.043 OA 
HETATM    4  C   UNL     3      -8.213   9.687  67.278  1.00  0.00    -0.114 C  
HETATM    5  H   UNL     3      -6.403   9.673  67.756  1.00  0.00     0.000 HD 
HETATM    6  H   UNL     2      -5.453  10.206  68.021  1.00  0.00     0.000 HD 
HETATM    7  O   UNL     3      -6.873   9.317  67.012  1.00  0.00    -0.078 OA 
ENDROOT
BRANCH   2   8
HETATM    8  C   UNL     2      -7.431  10.520  69.668  1.00  0.00    -0.145 C  
HETATM    9  H   UNL     2     -11.635  11.459  68.808  1.00  0.00     0.000 HD 
HETATM   10  H   UNL     2     -10.033  12.079  67.651  1.00  0.00     0.000 HD 
HETATM   11  C   UNL     2     -10.235  10.275  69.470  1.00  0.00    -0.236 C  
HETATM   12  O   UNL     2      -7.861   9.454  71.218  1.00  0.00    -0.335 OA 
HETATM   13  O   UNL     2     -10.602   8.222  70.978  1.00  0.00    -0.199 OA 
HETATM   14  O   UNL     2      -9.205  11.964  68.101  1.00  0.00    -0.176 OA 
HETATM   15  C   UNL     2      -9.849   9.253  70.993  1.00  0.00    -0.285 C  
HETATM   16  H   UNL     2     -11.542   8.127  70.872  1.00  0.00     0.000 HD 
HETATM   17  O   UNL     2     -11.440  10.941  69.580  1.00  0.00    -0.251 OA 
HETATM   18  C   UNL     2      -9.097  10.752  68.764  1.00  0.00    -0.178 C  
ENDBRANCH   2   8
BRANCH   2  19
HETATM   19  C   UNL     2      -6.375  12.724  69.698  1.00  0.00    -0.091 C  
HETATM   20  H   UNL     2      -5.846  14.167  70.928  1.00  0.00     0.000 HD 
HETATM   21  O   UNL     2      -5.667  13.240  70.821  1.00  0.00    -0.178 OA 
ENDBRANCH   2  19
BRANCH   4  22
HETATM   22  C   UNL     3      -8.852   9.327  68.964  1.00  0.00    -0.136 C  
HETATM   23  H   UNL     3      -7.218   7.387  72.303  1.00  0.00     0.000 HD 
HETATM   24  C   UNL     3      -9.339   6.724  70.621  1.00  0.00    -0.162 C  
HETATM   25  O   UNL     3     -10.149   8.189  68.241  1.00  0.00    -0.185 OA 
HETATM   26  O   UNL     3     -11.536   6.237  69.068  1.00  0.00    -0.363 OA 
HETATM   27  C   UNL     3      -8.374   7.928  70.670  1.00  0.00    -0.123 C  
HETATM   28  O   UNL     3      -9.621   5.846  71.494  1.00  0.00    -0.153 OA 
HETATM   29  O   UNL     3      -7.419   7.975  71.585  1.00  0.00    -0.066 OA 
HETATM   30  C   UNL     3     -10.439   6.792  69.152  1.00  0.00    -0.216 C  
ENDBRANCH   4  22
BRANCH   4  31
HETATM   31  C   UNL     3      -8.975   9.109  66.071  1.00  0.00    -0.181 C  
HETATM   32  O   UNL     3     -10.201   9.819  65.798  1.00  0.00    -0.264 OA 
HETATM   33  H   UNL     3     -10.672   9.463  65.054  1.00  0.00     0.000 HD 
ENDBRANCH   4  31
TORSDOF 4
ENDMDL
MODEL       78
REMARK 921   NORMALIZED FREE ENERGY PREDICTED BY IDOCK:   -3.78 KCAL/MOL
REMARK 922        TOTAL FREE ENERGY PREDICTED BY IDOCK:   29.66 KCAL/MOL
REMARK 923 INTER-LIGAND FREE ENERGY PREDICTED BY IDOCK:   -4.95 KCAL/MOL
REMARK 924 INTRA-LIGAND FREE ENERGY PREDICTED BY IDOCK:   34.61 KCAL/MOL
REMARK 927      BINDING AFFINITY PREDICTED BY RF-SCORE:    0.00 PKD
ROOT
HETATM    1 FE   UNL     1     -10.875  10.545  65.296  1.00  0.00    -0.269 Fe 
HETATM    2  C   UNL     2      -6.878  11.084  70.028  1.00  0.00    -0.040 C  
HETATM    3  O   UNL     2      -7.620  10.087  70.815  1.00  0.00    -0.390 OA 
HETATM    4  C   UNL     3     -10.023  10.209  68.895  1.00  0.00    -0.199 C  
HETATM    5  H   UNL     3      -9.171  10.683  70.494  1.00  0.00     0.000 HD 
HETATM    6  H   UNL     2      -8.313  10.601  71.211  1.00  0.00     0.000 HD 
HETATM    7  O   UNL     3     -10.023  10.309  70.307  1.00  0.00    -0.132 OA 
ENDROOT
BRANCH   2   8
HETATM    8  C   UNL     2      -7.749  11.568  68.872  1.00  0.00    -0.088 C  
HETATM    9  H   UNL     2      -8.869  10.107  64.884  1.00  0.00     0.000 HD 
HETATM   10  H   UNL     2      -8.566   8.895  66.536  1.00  0.00     0.000 HD 
HETATM   11  C   UNL     2      -8.933  11.430  66.316  1.00  0.00    -0.200 C  
HETATM   12  O   UNL     2      -7.789  13.421  68.338  1.00  0.00    -0.131 OA 
HETATM   13  O   UNL     2      -9.720  13.867  66.065  1.00  0.00    -0.359 OA 
HETATM   14  O   UNL     2      -8.131   9.359  67.241  1.00  0.00    -0.109 OA 
HETATM   15  C   UNL     2      -8.698  13.274  66.550  1.00  0.00     0.102 C  
HETATM   16  H   UNL     2     -10.150  13.798  65.221  1.00  0.00     0.000 HD 
HETATM   17  O   UNL     2      -8.750  11.043  65.002  1.00  0.00    -0.146 OA 
HETATM   18  C   UNL     2      -8.624  10.636  67.454  1.00  0.00    -0.122 C  
ENDBRANCH   2   8
BRANCH   2  19
HETATM   19  C   UNL     2      -5.755  10.251  69.387  1.00  0.00    -0.037 C  
HETATM   20  H   UNL     2      -5.158   8.376  69.398  1.00  0.00     0.000 HD 
HETATM   21  O   UNL     2      -5.851   8.890  69.794  1.00  0.00    -0.029 OA 
ENDBRANCH   2  19
BRANCH   4  22
HETATM   22  C   UNL     3      -9.505  11.704  67.959  1.00  0.00    -0.185 C  
HETATM   23  H   UNL     3      -8.570  15.629  69.101  1.00  0.00     0.000 HD 
HETATM   24  C   UNL     3     -10.667  14.581  67.595  1.00  0.00    -0.254 C  
HETATM   25  O   UNL     3     -11.168  11.757  67.103  1.00  0.00    -0.280 OA 
HETATM   26  O   UNL     3     -12.578  13.519  65.953  1.00  0.00    -0.446 OA 
HETATM   27  C   UNL     3      -9.442  13.939  68.278  1.00  0.00    -0.217 C  
HETATM   28  O   UNL     3     -10.911  15.788  67.286  1.00  0.00    -0.316 OA 
HETATM   29  O   UNL     3      -8.597  14.689  68.967  1.00  0.00    -0.164 OA 
HETATM   30  C   UNL     3     -11.788  13.316  66.876  1.00  0.00    -0.392 C  
ENDBRANCH   4  22
BRANCH   4  31
HETATM   31  C   UNL     3     -11.406   9.603  68.593  1.00  0.00     0.157 C  
HETATM   32  O   UNL     3     -12.487  10.392  69.131  1.00  0.00    -0.705 OA 
HETATM   33  H   UNL     3     -13.340  10.018  68.946  1.00  0.00     0.000 HD 
ENDBRANCH   4  31
TORSDOF 4
ENDMDL
MODEL       79
REMARK 921   NORMALIZED FREE ENERGY PREDICTED BY IDOCK:   -3.78 KCAL/MOL
REMARK 922        TOTAL FREE ENERGY PREDICTED BY IDOCK:   29.67 KCAL/MOL
REMARK 923 INTER-LIGAND FREE ENERGY PREDICTED BY IDOCK:   -4.73 KCAL/MOL
REMARK 924 INTRA-LIGAND FREE ENERGY PREDICTED BY IDOCK:   34.39 KCAL/MOL
REMARK 927      BINDING AFFINITY PREDICTED BY RF-SCORE:    0.00 PKD
ROOT
HETATM    1 FE   UNL     1      -8.012   5.396  67.976  1.00  0.00    -0.086 Fe 
HETATM    2  C   UNL     2     -10.769   5.644  73.543  1.00  0.00    -0.275 C  
HETATM    3  O   UNL     2     -12.104   5.621  72.924  1.00  0.00    -0.550 OA 
HETATM    4  C   UNL     3     -10.929   6.186  70.134  1.00  0.00    -0.358 C  
HETATM    5  H   UNL     3     -11.782   6.750  71.704  1.00  0.00     0.000 HD 
HETATM    6  H   UNL     2     -12.249   6.533  72.699  1.00  0.00     0.000 HD 
HETATM    7  O   UNL     3     -12.001   6.846  70.784  1.00  0.00    -0.363 OA 
ENDROOT
BRANCH   2   8
HETATM    8  C   UNL     2      -9.724   5.984  72.486  1.00  0.00    -0.169 C  
HETATM    9  H   UNL     2      -7.623   3.858  69.267  1.00  0.00     0.000 HD 
HETATM   10  H   UNL     2      -9.588   3.505  69.820  1.00  0.00     0.000 HD 
HETATM   11  C   UNL     2      -7.991   5.455  70.323  1.00  0.00    -0.092 C  
HETATM   12  O   UNL     2      -8.221   7.129  72.874  1.00  0.00    -0.104 OA 
HETATM   13  O   UNL     2      -6.500   7.550  70.434  1.00  0.00    -0.038 OA 
HETATM   14  O   UNL     2      -9.798   3.901  70.657  1.00  0.00    -0.189 OA 
HETATM   15  C   UNL     2      -7.053   6.767  71.278  1.00  0.00    -0.075 C  
HETATM   16  H   UNL     2      -5.948   7.379  69.680  1.00  0.00     0.000 HD 
HETATM   17  O   UNL     2      -7.147   4.523  69.751  1.00  0.00    -0.048 OA 
HETATM   18  C   UNL     2      -9.303   5.187  70.802  1.00  0.00    -0.160 C  
ENDBRANCH   2   8
BRANCH   2  19
HETATM   19  C   UNL     2     -10.534   4.168  73.907  1.00  0.00    -0.209 C  
HETATM   20  H   UNL     2     -11.410   2.437  73.571  1.00  0.00     0.000 HD 
HETATM   21  O   UNL     2     -11.555   3.349  73.347  1.00  0.00    -0.138 OA 
ENDBRANCH   2  19
BRANCH   4  22
HETATM   22  C   UNL     3      -9.231   6.635  70.677  1.00  0.00    -0.159 C  
HETATM   23  H   UNL     3      -7.731   9.457  73.392  1.00  0.00     0.000 HD 
HETATM   24  C   UNL     3      -7.524   9.250  70.620  1.00  0.00    -0.136 C  
HETATM   25  O   UNL     3      -8.834   7.254  68.957  1.00  0.00    -0.132 OA 
HETATM   26  O   UNL     3      -7.180   8.878  67.933  1.00  0.00    -0.081 OA 
HETATM   27  C   UNL     3      -8.202   8.370  71.691  1.00  0.00    -0.152 C  
HETATM   28  O   UNL     3      -6.636  10.152  70.723  1.00  0.00    -0.268 OA 
HETATM   29  O   UNL     3      -8.164   8.727  72.965  1.00  0.00    -0.418 OA 
HETATM   30  C   UNL     3      -7.883   8.654  68.920  1.00  0.00    -0.104 C  
ENDBRANCH   4  22
BRANCH   4  31
HETATM   31  C   UNL     3     -11.283   6.342  68.644  1.00  0.00    -0.238 C  
HETATM   32  O   UNL     3     -10.567   5.413  67.804  1.00  0.00    -0.181 OA 
HETATM   33  H   UNL     3     -10.785   5.509  66.885  1.00  0.00     0.000 HD 
ENDBRANCH   4  31
TORSDOF 4
ENDMDL
MODEL       80
REMARK 921   NORMALIZED FREE ENERGY PREDICTED BY IDOCK:   -3.78 KCAL/MOL
REMARK 922        TOTAL FREE ENERGY PREDICTED BY IDOCK:   29.67 KCAL/MOL
REMARK 923 INTER-LIGAND FREE ENERGY PREDICTED BY IDOCK:   -4.90 KCAL/MOL
REMARK 924 INTRA-LIGAND FREE ENERGY PREDICTED BY IDOCK:   34.58 KCAL/MOL
REMARK 927      BINDING AFFINITY PREDICTED BY RF-SCORE:    0.00 PKD
ROOT
HETATM    1 FE   UNL     1     -11.630   8.210  67.272  1.00  0.00    -0.494 Fe 
HETATM    2  C   UNL     2      -6.495   8.553  70.762  1.00  0.00    -0.040 C  
HETATM    3  O   UNL     2      -7.245   8.166  71.967  1.00  0.00    -0.076 OA 
HETATM    4  C   UNL     3      -9.944   8.618  70.556  1.00  0.00    -0.189 C  
HETATM    5  H   UNL     3      -8.579   9.176  71.711  1.00  0.00     0.000 HD 
HETATM    6  H   UNL     2      -7.619   8.990  72.258  1.00  0.00     0.000 HD 
HETATM    7  O   UNL     3      -9.521   9.107  71.815  1.00  0.00    -0.312 OA 
ENDROOT
BRANCH   2   8
HETATM    8  C   UNL     2      -7.473   8.975  69.669  1.00  0.00    -0.076 C  
HETATM    9  H   UNL     2     -10.083   6.965  66.763  1.00  0.00     0.000 HD 
HETATM   10  H   UNL     2      -9.699   6.268  68.675  1.00  0.00     0.000 HD 
HETATM   11  C   UNL     2      -9.328   8.565  67.584  1.00  0.00    -0.137 C  
HETATM   12  O   UNL     2      -7.102  10.458  68.493  1.00  0.00    -0.071 OA 
HETATM   13  O   UNL     2      -9.377  10.930  66.570  1.00  0.00    -0.167 OA 
HETATM   14  O   UNL     2      -8.959   6.712  69.073  1.00  0.00    -0.131 OA 
HETATM   15  C   UNL     2      -8.488  10.159  67.067  1.00  0.00    -0.129 C  
HETATM   16  H   UNL     2     -10.031  10.789  65.896  1.00  0.00     0.000 HD 
HETATM   17  O   UNL     2      -9.657   7.773  66.501  1.00  0.00    -0.202 OA 
HETATM   18  C   UNL     2      -8.959   8.082  68.869  1.00  0.00    -0.141 C  
ENDBRANCH   2   8
BRANCH   2  19
HETATM   19  C   UNL     2      -5.890   7.219  70.290  1.00  0.00    -0.024 C  
HETATM   20  H   UNL     2      -5.495   5.454  71.068  1.00  0.00     0.000 HD 
HETATM   21  O   UNL     2      -5.869   6.278  71.359  1.00  0.00    -0.026 OA 
ENDBRANCH   2  19
BRANCH   4  22
HETATM   22  C   UNL     3      -9.295   9.486  69.070  1.00  0.00    -0.155 C  
HETATM   23  H   UNL     3      -6.963  12.930  68.544  1.00  0.00     0.000 HD 
HETATM   24  C   UNL     3      -9.611  12.360  67.890  1.00  0.00    -0.205 C  
HETATM   25  O   UNL     3     -11.039   9.910  68.543  1.00  0.00    -0.207 OA 
HETATM   26  O   UNL     3     -12.132  11.670  67.085  1.00  0.00    -0.575 OA 
HETATM   27  C   UNL     3      -8.489  11.528  68.545  1.00  0.00    -0.143 C  
HETATM   28  O   UNL     3      -9.566  13.431  67.211  1.00  0.00    -0.221 OA 
HETATM   29  O   UNL     3      -7.302  12.071  68.765  1.00  0.00    -0.108 OA 
HETATM   30  C   UNL     3     -11.210  11.455  67.875  1.00  0.00    -0.288 C  
ENDBRANCH   4  22
BRANCH   4  31
HETATM   31  C   UNL     3     -11.470   8.506  70.726  1.00  0.00    -0.253 C  
HETATM   32  O   UNL     3     -12.002   7.284  70.174  1.00  0.00    -0.534 OA 
HETATM   33  H   UNL     3     -12.943   7.215  70.279  1.00  0.00     0.000 HD 
ENDBRANCH   4  31
TORSDOF 4
ENDMDL
MODEL       81
REMARK 921   NORMALIZED FREE ENERGY PREDICTED BY IDOCK:   -3.75 KCAL/MOL
REMARK 922        TOTAL FREE ENERGY PREDICTED BY IDOCK:   29.70 KCAL/MOL
REMARK 923 INTER-LIGAND FREE ENERGY PREDICTED BY IDOCK:   -4.71 KCAL/MOL
REMARK 924 INTRA-LIGAND FREE ENERGY PREDICTED BY IDOCK:   34.40 KCAL/MOL
REMARK 927      BINDING AFFINITY PREDICTED BY RF-SCORE:    0.00 PKD
ROOT
HETATM    1 FE   UNL     1     -11.186   8.242  70.867  1.00  0.00    -0.232 Fe 
HETATM    2  C   UNL     2      -8.487  10.011  65.552  1.00  0.00    -0.147 C  
HETATM    3  O   UNL     2      -9.135   8.914  64.816  1.00  0.00    -0.422 OA 
HETATM    4  C   UNL     3      -9.977   7.522  67.429  1.00  0.00    -0.187 C  
HETATM    5  H   UNL     3      -8.836   7.698  65.955  1.00  0.00     0.000 HD 
HETATM    6  H   UNL     2      -8.558   8.177  64.981  1.00  0.00     0.000 HD 
HETATM    7  O   UNL     3      -9.316   6.960  66.311  1.00  0.00    -0.163 OA 
ENDROOT
BRANCH   2   8
HETATM    8  C   UNL     2      -8.577   9.740  67.050  1.00  0.00    -0.127 C  
HETATM    9  H   UNL     2     -11.616  10.144  70.196  1.00  0.00     0.000 HD 
HETATM   10  H   UNL     2     -12.019   9.615  68.235  1.00  0.00     0.000 HD 
HETATM   11  C   UNL     2      -9.828   9.669  69.578  1.00  0.00    -0.206 C  
HETATM   12  O   UNL     2      -7.114  10.136  68.244  1.00  0.00    -0.074 OA 
HETATM   13  O   UNL     2      -7.764   9.343  71.079  1.00  0.00    -0.284 OA 
HETATM   14  O   UNL     2     -11.281   9.783  67.663  1.00  0.00    -0.178 OA 
HETATM   15  C   UNL     2      -8.040  10.007  70.025  1.00  0.00    -0.136 C  
HETATM   16  H   UNL     2      -8.201   9.282  71.921  1.00  0.00     0.000 HD 
HETATM   17  O   UNL     2     -10.709  10.316  70.423  1.00  0.00    -0.292 OA 
HETATM   18  C   UNL     2     -10.063   9.401  68.201  1.00  0.00    -0.181 C  
ENDBRANCH   2   8
BRANCH   2  19
HETATM   19  C   UNL     2      -9.421  11.204  65.285  1.00  0.00    -0.226 C  
HETATM   20  H   UNL     2     -11.079  11.547  64.281  1.00  0.00     0.000 HD 
HETATM   21  O   UNL     2     -10.502  10.810  64.446  1.00  0.00    -0.365 OA 
ENDBRANCH   2  19
BRANCH   4  22
HETATM   22  C   UNL     3      -8.952   8.528  68.577  1.00  0.00    -0.139 C  
HETATM   23  H   UNL     3      -4.849   9.365  68.782  1.00  0.00     0.000 HD 
HETATM   24  C   UNL     3      -6.540   7.929  70.469  1.00  0.00    -0.037 C  
HETATM   25  O   UNL     3      -9.349   7.354  69.978  1.00  0.00    -0.152 OA 
HETATM   26  O   UNL     3      -8.286   6.715  72.187  1.00  0.00    -0.106 OA 
HETATM   27  C   UNL     3      -6.777   8.707  69.157  1.00  0.00    -0.047 C  
HETATM   28  O   UNL     3      -5.575   7.961  71.293  1.00  0.00    -0.034 OA 
HETATM   29  O   UNL     3      -5.763   9.290  68.538  1.00  0.00    -0.041 OA 
HETATM   30  C   UNL     3      -8.054   7.050  71.024  1.00  0.00    -0.105 C  
ENDBRANCH   4  22
BRANCH   4  31
HETATM   31  C   UNL     3     -10.755   6.325  68.006  1.00  0.00    -0.295 C  
HETATM   32  O   UNL     3     -11.780   6.727  68.939  1.00  0.00    -0.530 OA 
HETATM   33  H   UNL     3     -12.260   5.989  69.295  1.00  0.00     0.000 HD 
ENDBRANCH   4  31
TORSDOF 4
ENDMDL
MODEL       82
REMARK 921   NORMALIZED FREE ENERGY PREDICTED BY IDOCK:   -3.71 KCAL/MOL
REMARK 922        TOTAL FREE ENERGY PREDICTED BY IDOCK:   29.75 KCAL/MOL
REMARK 923 INTER-LIGAND FREE ENERGY PREDICTED BY IDOCK:   -4.70 KCAL/MOL
REMARK 924 INTRA-LIGAND FREE ENERGY PREDICTED BY IDOCK:   34.45 KCAL/MOL
REMARK 927      BINDING AFFINITY PREDICTED BY RF-SCORE:    0.00 PKD
ROOT
HETATM    1 FE   UNL     1      -6.297   8.024  69.873  1.00  0.00    -0.028 Fe 
HETATM    2  C   UNL     2     -11.510  10.914  68.105  1.00  0.00    -0.295 C  
HETATM    3  O   UNL     2     -11.810  11.300  69.492  1.00  0.00    -0.297 OA 
HETATM    4  C   UNL     3      -9.683   9.367  70.596  1.00  0.00    -0.273 C  
HETATM    5  H   UNL     3     -11.461   9.803  70.201  1.00  0.00     0.000 HD 
HETATM    6  H   UNL     2     -12.238  10.526  69.841  1.00  0.00     0.000 HD 
HETATM    7  O   UNL     3     -11.034   9.504  70.996  1.00  0.00    -0.298 OA 
ENDROOT
BRANCH   2   8
HETATM    8  C   UNL     2     -10.451   9.816  68.101  1.00  0.00    -0.258 C  
HETATM    9  H   UNL     2      -6.090   9.577  68.570  1.00  0.00     0.000 HD 
HETATM   10  H   UNL     2      -7.310  10.910  69.583  1.00  0.00     0.000 HD 
HETATM   11  C   UNL     2      -7.838   8.766  68.268  1.00  0.00    -0.101 C  
HETATM   12  O   UNL     2     -10.519   8.345  66.855  1.00  0.00    -0.317 OA 
HETATM   13  O   UNL     2      -8.249   6.413  67.311  1.00  0.00    -0.112 OA 
HETATM   14  O   UNL     2      -8.178  10.958  69.202  1.00  0.00    -0.146 OA 
HETATM   15  C   UNL     2      -8.665   7.594  67.062  1.00  0.00    -0.126 C  
HETATM   16  H   UNL     2      -7.373   6.059  67.409  1.00  0.00     0.000 HD 
HETATM   17  O   UNL     2      -6.509   8.983  67.958  1.00  0.00    -0.058 OA 
HETATM   18  C   UNL     2      -8.705   9.721  68.867  1.00  0.00    -0.136 C  
ENDBRANCH   2   8
BRANCH   2  19
HETATM   19  C   UNL     2     -10.818  12.166  67.541  1.00  0.00    -0.243 C  
HETATM   20  H   UNL     2     -11.278  14.053  67.218  1.00  0.00     0.000 HD 
HETATM   21  O   UNL     2     -11.706  13.279  67.567  1.00  0.00    -0.326 OA 
ENDBRANCH   2  19
BRANCH   4  22
HETATM   22  C   UNL     3      -9.370   8.441  69.039  1.00  0.00    -0.147 C  
HETATM   23  H   UNL     3     -11.839   6.260  66.446  1.00  0.00     0.000 HD 
HETATM   24  C   UNL     3      -9.758   5.479  68.126  1.00  0.00    -0.132 C  
HETATM   25  O   UNL     3      -8.317   7.208  69.971  1.00  0.00    -0.134 OA 
HETATM   26  O   UNL     3      -7.575   4.809  69.631  1.00  0.00    -0.055 OA 
HETATM   27  C   UNL     3     -10.390   6.850  67.805  1.00  0.00    -0.203 C  
HETATM   28  O   UNL     3      -9.814   4.371  67.510  1.00  0.00    -0.177 OA 
HETATM   29  O   UNL     3     -11.410   6.929  66.965  1.00  0.00    -0.304 OA 
HETATM   30  C   UNL     3      -8.501   5.605  69.460  1.00  0.00    -0.110 C  
ENDBRANCH   4  22
BRANCH   4  31
HETATM   31  C   UNL     3      -8.992   8.882  71.884  1.00  0.00    -0.084 C  
HETATM   32  O   UNL     3      -7.574   9.150  71.887  1.00  0.00    -0.340 OA 
HETATM   33  H   UNL     3      -7.148   8.851  72.681  1.00  0.00     0.000 HD 
ENDBRANCH   4  31
TORSDOF 4
ENDMDL
MODEL       83
REMARK 921   NORMALIZED FREE ENERGY PREDICTED BY IDOCK:   -3.67 KCAL/MOL
REMARK 922        TOTAL FREE ENERGY PREDICTED BY IDOCK:   29.80 KCAL/MOL
REMARK 923 INTER-LIGAND FREE ENERGY PREDICTED BY IDOCK:   -4.62 KCAL/MOL
REMARK 924 INTRA-LIGAND FREE ENERGY PREDICTED BY IDOCK:   34.43 KCAL/MOL
REMARK 927      BINDING AFFINITY PREDICTED BY RF-SCORE:    0.00 PKD
ROOT
HETATM    1 FE   UNL     1      -9.103   6.090  71.159  1.00  0.00    -0.133 Fe 
HETATM    2  C   UNL     2      -6.908  10.888  67.869  1.00  0.00    -0.068 C  
HETATM    3  O   UNL     2      -5.778  11.053  68.796  1.00  0.00    -0.041 OA 
HETATM    4  C   UNL     3      -7.079   9.191  70.874  1.00  0.00    -0.105 C  
HETATM    5  H   UNL     3      -6.665  10.900  70.230  1.00  0.00     0.000 HD 
HETATM    6  H   UNL     2      -6.152  11.575  69.497  1.00  0.00     0.000 HD 
HETATM    7  O   UNL     3      -6.536  10.483  71.073  1.00  0.00    -0.346 OA 
ENDROOT
BRANCH   2   8
HETATM    8  C   UNL     2      -7.973  10.010  68.518  1.00  0.00    -0.102 C  
HETATM    9  H   UNL     2      -8.585   5.717  69.221  1.00  0.00     0.000 HD 
HETATM   10  H   UNL     2      -6.744   6.665  69.273  1.00  0.00     0.000 HD 
HETATM   11  C   UNL     2      -9.145   7.581  69.348  1.00  0.00    -0.142 C  
HETATM   12  O   UNL     2      -9.856  10.365  68.296  1.00  0.00    -0.149 OA 
HETATM   13  O   UNL     2     -11.536   8.394  69.840  1.00  0.00    -0.455 OA 
HETATM   14  O   UNL     2      -6.782   7.535  68.895  1.00  0.00    -0.047 OA 
HETATM   15  C   UNL     2     -10.643   8.638  68.961  1.00  0.00    -0.160 C  
HETATM   16  H   UNL     2     -11.908   7.578  70.154  1.00  0.00     0.000 HD 
HETATM   17  O   UNL     2      -9.345   6.253  69.025  1.00  0.00    -0.127 OA 
HETATM   18  C   UNL     2      -7.897   8.261  69.280  1.00  0.00    -0.108 C  
ENDBRANCH   2   8
BRANCH   2  19
HETATM   19  C   UNL     2      -6.302  10.043  66.735  1.00  0.00    -0.069 C  
HETATM   20  H   UNL     2      -5.603  10.346  64.920  1.00  0.00     0.000 HD 
HETATM   21  O   UNL     2      -5.977  10.868  65.621  1.00  0.00    -0.133 OA 
ENDBRANCH   2  19
BRANCH   4  22
HETATM   22  C   UNL     3      -8.746   9.103  70.105  1.00  0.00    -0.196 C  
HETATM   23  H   UNL     3     -11.569  12.008  69.023  1.00  0.00     0.000 HD 
HETATM   24  C   UNL     3     -11.611  10.006  70.961  1.00  0.00    -0.393 C  
HETATM   25  O   UNL     3      -9.408   8.222  71.617  1.00  0.00    -0.158 OA 
HETATM   26  O   UNL     3     -11.677   7.894  72.696  1.00  0.00    -0.370 OA 
HETATM   27  C   UNL     3     -10.567  10.423  69.904  1.00  0.00    -0.251 C  
HETATM   28  O   UNL     3     -12.850  10.269  71.057  1.00  0.00    -0.352 OA 
HETATM   29  O   UNL     3     -10.803  11.454  69.108  1.00  0.00    -0.217 OA 
HETATM   30  C   UNL     3     -10.973   8.686  72.067  1.00  0.00    -0.362 C  
ENDBRANCH   4  22
BRANCH   4  31
HETATM   31  C   UNL     3      -6.870   8.516  72.242  1.00  0.00    -0.077 C  
HETATM   32  O   UNL     3      -6.918   7.076  72.163  1.00  0.00    -0.064 OA 
HETATM   33  H   UNL     3      -6.789   6.659  73.007  1.00  0.00     0.000 HD 
ENDBRANCH   4  31
TORSDOF 4
ENDMDL
MODEL       84
REMARK 921   NORMALIZED FREE ENERGY PREDICTED BY IDOCK:   -3.66 KCAL/MOL
REMARK 922        TOTAL FREE ENERGY PREDICTED BY IDOCK:   29.82 KCAL/MOL
REMARK 923 INTER-LIGAND FREE ENERGY PREDICTED BY IDOCK:   -4.64 KCAL/MOL
REMARK 924 INTRA-LIGAND FREE ENERGY PREDICTED BY IDOCK:   34.46 KCAL/MOL
REMARK 927      BINDING AFFINITY PREDICTED BY RF-SCORE:    0.00 PKD
ROOT
HETATM    1 FE   UNL     1      -9.275   5.913  66.494  1.00  0.00    -0.122 Fe 
HETATM    2  C   UNL     2      -9.914  11.813  68.350  1.00  0.00    -0.202 C  
HETATM    3  O   UNL     2      -8.758  12.230  67.543  1.00  0.00    -0.160 OA 
HETATM    4  C   UNL     3      -7.895   9.310  67.085  1.00  0.00    -0.099 C  
HETATM    5  H   UNL     3      -7.735  10.951  67.973  1.00  0.00     0.000 HD 
HETATM    6  H   UNL     2      -8.020  12.027  68.106  1.00  0.00     0.000 HD 
HETATM    7  O   UNL     3      -7.105  10.399  67.527  1.00  0.00    -0.084 OA 
ENDROOT
BRANCH   2   8
HETATM    8  C   UNL     2      -9.909  10.295  68.498  1.00  0.00    -0.174 C  
HETATM    9  H   UNL     2     -11.018   6.838  66.025  1.00  0.00     0.000 HD 
HETATM   10  H   UNL     2     -10.184   8.587  65.293  1.00  0.00     0.000 HD 
HETATM   11  C   UNL     2     -10.344   7.632  67.674  1.00  0.00    -0.237 C  
HETATM   12  O   UNL     2     -10.421   9.433  70.146  1.00  0.00    -0.207 OA 
HETATM   13  O   UNL     2     -10.164   6.435  69.945  1.00  0.00    -0.173 OA 
HETATM   14  O   UNL     2     -10.210   9.288  65.933  1.00  0.00    -0.245 OA 
HETATM   15  C   UNL     2     -10.652   7.536  69.520  1.00  0.00    -0.236 C  
HETATM   16  H   UNL     2     -10.273   5.539  69.649  1.00  0.00     0.000 HD 
HETATM   17  O   UNL     2     -11.175   6.789  66.961  1.00  0.00    -0.393 OA 
HETATM   18  C   UNL     2      -9.857   8.885  67.211  1.00  0.00    -0.199 C  
ENDBRANCH   2   8
BRANCH   2  19
HETATM   19  C   UNL     2     -11.108  12.142  67.437  1.00  0.00    -0.276 C  
HETATM   20  H   UNL     2     -12.998  11.613  67.281  1.00  0.00     0.000 HD 
HETATM   21  O   UNL     2     -12.260  11.410  67.845  1.00  0.00    -0.592 OA 
ENDBRANCH   2  19
BRANCH   4  22
HETATM   22  C   UNL     3      -9.006   8.536  68.329  1.00  0.00    -0.139 C  
HETATM   23  H   UNL     3      -9.555   9.111  72.446  1.00  0.00     0.000 HD 
HETATM   24  C   UNL     3      -8.566   6.953  70.985  1.00  0.00    -0.135 C  
HETATM   25  O   UNL     3      -8.127   6.899  68.109  1.00  0.00    -0.116 OA 
HETATM   26  O   UNL     3      -7.804   4.797  69.486  1.00  0.00    -0.065 OA 
HETATM   27  C   UNL     3      -9.119   8.334  70.575  1.00  0.00    -0.147 C  
HETATM   28  O   UNL     3      -8.668   6.304  72.072  1.00  0.00    -0.134 OA 
HETATM   29  O   UNL     3      -9.507   9.196  71.501  1.00  0.00    -0.267 OA 
HETATM   30  C   UNL     3      -7.913   6.023  69.542  1.00  0.00    -0.106 C  
ENDBRANCH   4  22
BRANCH   4  31
HETATM   31  C   UNL     3      -6.873   8.414  66.362  1.00  0.00    -0.070 C  
HETATM   32  O   UNL     3      -7.407   7.824  65.158  1.00  0.00    -0.066 OA 
HETATM   33  H   UNL     3      -6.776   7.271  64.712  1.00  0.00     0.000 HD 
ENDBRANCH   4  31
TORSDOF 4
ENDMDL
MODEL       85
REMARK 921   NORMALIZED FREE ENERGY PREDICTED BY IDOCK:   -3.65 KCAL/MOL
REMARK 922        TOTAL FREE ENERGY PREDICTED BY IDOCK:   29.83 KCAL/MOL
REMARK 923 INTER-LIGAND FREE ENERGY PREDICTED BY IDOCK:   -4.66 KCAL/MOL
REMARK 924 INTRA-LIGAND FREE ENERGY PREDICTED BY IDOCK:   34.49 KCAL/MOL
REMARK 927      BINDING AFFINITY PREDICTED BY RF-SCORE:    0.00 PKD
ROOT
HETATM    1 FE   UNL     1      -7.884  10.471  70.732  1.00  0.00    -0.243 Fe 
HETATM    2  C   UNL     2      -9.019   8.397  64.981  1.00  0.00     0.112 C  
HETATM    3  O   UNL     2      -9.537   9.711  64.570  1.00  0.00    -0.429 OA 
HETATM    4  C   UNL     3      -9.683  10.679  67.489  1.00  0.00    -0.166 C  
HETATM    5  H   UNL     3     -10.487   9.995  65.942  1.00  0.00     0.000 HD 
HETATM    6  H   UNL     2     -10.439   9.686  64.866  1.00  0.00     0.000 HD 
HETATM    7  O   UNL     3     -10.688  10.742  66.493  1.00  0.00    -0.240 OA 
ENDROOT
BRANCH   2   8
HETATM    8  C   UNL     2      -8.957   8.329  66.504  1.00  0.00    -0.189 C  
HETATM    9  H   UNL     2      -6.303   9.832  69.665  1.00  0.00     0.000 HD 
HETATM   10  H   UNL     2      -6.742  10.852  67.916  1.00  0.00     0.000 HD 
HETATM   11  C   UNL     2      -7.869   8.843  69.056  1.00  0.00    -0.091 C  
HETATM   12  O   UNL     2      -9.389   6.715  67.467  1.00  0.00    -0.123 OA 
HETATM   13  O   UNL     2      -9.188   7.126  70.447  1.00  0.00    -0.155 OA 
HETATM   14  O   UNL     2      -7.154  10.290  67.271  1.00  0.00    -0.086 OA 
HETATM   15  C   UNL     2      -8.657   7.158  69.287  1.00  0.00    -0.137 C  
HETATM   16  H   UNL     2      -8.842   7.336  71.307  1.00  0.00     0.000 HD 
HETATM   17  O   UNL     2      -6.702   8.978  69.783  1.00  0.00    -0.047 OA 
HETATM   18  C   UNL     2      -8.128   9.459  67.801  1.00  0.00    -0.107 C  
ENDBRANCH   2   8
BRANCH   2  19
HETATM   19  C   UNL     2      -7.557   8.437  64.503  1.00  0.00    -0.106 C  
HETATM   20  H   UNL     2      -5.905   7.413  64.812  1.00  0.00     0.000 HD 
HETATM   21  O   UNL     2      -6.808   7.388  65.107  1.00  0.00    -0.046 OA 
ENDBRANCH   2  19
BRANCH   4  22
HETATM   22  C   UNL     3      -9.418   9.048  68.295  1.00  0.00    -0.156 C  
HETATM   23  H   UNL     3     -11.401   5.362  68.045  1.00  0.00     0.000 HD 
HETATM   24  C   UNL     3     -11.141   7.195  70.128  1.00  0.00    -0.272 C  
HETATM   25  O   UNL     3      -9.836   9.791  69.960  1.00  0.00    -0.227 OA 
HETATM   26  O   UNL     3     -10.673   8.928  72.190  1.00  0.00    -0.342 OA 
HETATM   27  C   UNL     3     -10.598   7.162  68.683  1.00  0.00    -0.189 C  
HETATM   28  O   UNL     3     -11.615   6.274  70.861  1.00  0.00    -0.331 OA 
HETATM   29  O   UNL     3     -10.905   6.155  67.882  1.00  0.00    -0.279 OA 
HETATM   30  C   UNL     3     -10.743   8.779  70.969  1.00  0.00    -0.229 C  
ENDBRANCH   4  22
BRANCH   4  31
HETATM   31  C   UNL     3     -10.009  11.889  68.383  1.00  0.00    -0.203 C  
HETATM   32  O   UNL     3      -8.828  12.607  68.797  1.00  0.00    -0.381 OA 
HETATM   33  H   UNL     3      -9.029  13.353  69.349  1.00  0.00     0.000 HD 
ENDBRANCH   4  31
TORSDOF 4
ENDMDL
MODEL       86
REMARK 921   NORMALIZED FREE ENERGY PREDICTED BY IDOCK:   -3.64 KCAL/MOL
REMARK 922        TOTAL FREE ENERGY PREDICTED BY IDOCK:   29.84 KCAL/MOL
REMARK 923 INTER-LIGAND FREE ENERGY PREDICTED BY IDOCK:   -4.81 KCAL/MOL
REMARK 924 INTRA-LIGAND FREE ENERGY PREDICTED BY IDOCK:   34.65 KCAL/MOL
REMARK 927      BINDING AFFINITY PREDICTED BY RF-SCORE:    0.00 PKD
ROOT
HETATM    1 FE   UNL     1      -7.272  12.160  66.049  1.00  0.00    -0.356 Fe 
HETATM    2  C   UNL     2     -11.302   9.657  70.067  1.00  0.00    -0.195 C  
HETATM    3  O   UNL     2     -10.376   9.876  71.189  1.00  0.00    -0.285 OA 
HETATM    4  C   UNL     3      -8.044  10.490  69.275  1.00  0.00    -0.148 C  
HETATM    5  H   UNL     3      -8.977   9.328  70.409  1.00  0.00     0.000 HD 
HETATM    6  H   UNL     2      -9.801   9.121  71.141  1.00  0.00     0.000 HD 
HETATM    7  O   UNL     3      -8.066   9.593  70.371  1.00  0.00    -0.180 OA 
ENDROOT
BRANCH   2   8
HETATM    8  C   UNL     2     -10.546   9.794  68.750  1.00  0.00    -0.244 C  
HETATM    9  H   UNL     2      -9.135  13.080  66.200  1.00  0.00     0.000 HD 
HETATM   10  H   UNL     2      -9.188  13.139  68.270  1.00  0.00     0.000 HD 
HETATM   11  C   UNL     2      -9.349  11.185  66.608  1.00  0.00    -0.177 C  
HETATM   12  O   UNL     2     -10.886   8.620  67.257  1.00  0.00    -0.217 OA 
HETATM   13  O   UNL     2      -9.079   9.255  64.927  1.00  0.00    -0.289 OA 
HETATM   14  O   UNL     2      -9.711  12.435  68.632  1.00  0.00    -0.166 OA 
HETATM   15  C   UNL     2      -9.959   9.620  65.778  1.00  0.00    -0.272 C  
HETATM   16  H   UNL     2      -8.642   9.727  64.229  1.00  0.00     0.000 HD 
HETATM   17  O   UNL     2      -9.444  12.287  65.779  1.00  0.00    -0.217 OA 
HETATM   18  C   UNL     2      -9.492  11.210  68.022  1.00  0.00    -0.174 C  
ENDBRANCH   2   8
BRANCH   2  19
HETATM   19  C   UNL     2     -12.233  10.879  70.146  1.00  0.00    -0.343 C  
HETATM   20  H   UNL     2     -13.332  11.775  71.510  1.00  0.00     0.000 HD 
HETATM   21  O   UNL     2     -12.757  11.020  71.462  1.00  0.00    -0.410 OA 
ENDBRANCH   2  19
BRANCH   4  22
HETATM   22  C   UNL     3      -8.851   9.921  67.724  1.00  0.00    -0.129 C  
HETATM   23  H   UNL     3     -10.587   6.289  66.552  1.00  0.00     0.000 HD 
HETATM   24  C   UNL     3      -8.306   7.628  65.675  1.00  0.00    -0.140 C  
HETATM   25  O   UNL     3      -7.228  10.082  66.808  1.00  0.00    -0.089 OA 
HETATM   26  O   UNL     3      -6.203   9.088  64.715  1.00  0.00    -0.065 OA 
HETATM   27  C   UNL     3      -9.378   7.962  66.734  1.00  0.00    -0.184 C  
HETATM   28  O   UNL     3      -8.314   6.798  64.715  1.00  0.00    -0.095 OA 
HETATM   29  O   UNL     3     -10.366   7.113  66.969  1.00  0.00    -0.242 OA 
HETATM   30  C   UNL     3      -6.942   8.858  65.674  1.00  0.00    -0.080 C  
ENDBRANCH   4  22
BRANCH   4  31
HETATM   31  C   UNL     3      -6.567  10.920  69.213  1.00  0.00    -0.079 C  
HETATM   32  O   UNL     3      -5.661   9.797  69.231  1.00  0.00    -0.035 OA 
HETATM   33  H   UNL     3      -4.750  10.062  69.192  1.00  0.00     0.000 HD 
ENDBRANCH   4  31
TORSDOF 4
ENDMDL
MODEL       87
REMARK 921   NORMALIZED FREE ENERGY PREDICTED BY IDOCK:   -3.63 KCAL/MOL
REMARK 922        TOTAL FREE ENERGY PREDICTED BY IDOCK:   29.85 KCAL/MOL
REMARK 923 INTER-LIGAND FREE ENERGY PREDICTED BY IDOCK:   -4.50 KCAL/MOL
REMARK 924 INTRA-LIGAND FREE ENERGY PREDICTED BY IDOCK:   34.36 KCAL/MOL
REMARK 927      BINDING AFFINITY PREDICTED BY RF-SCORE:    0.00 PKD
ROOT
HETATM    1 FE   UNL     1      -7.333   3.604  69.291  1.00  0.00    -0.045 Fe 
HETATM    2  C   UNL     2      -9.817   7.394  73.549  1.00  0.00    -0.312 C  
HETATM    3  O   UNL     2     -10.345   6.251  74.311  1.00  0.00    -0.314 OA 
HETATM    4  C   UNL     3      -9.792   4.314  71.983  1.00  0.00    -0.175 C  
HETATM    5  H   UNL     3     -10.952   5.386  72.988  1.00  0.00     0.000 HD 
HETATM    6  H   UNL     2     -11.160   6.056  73.863  1.00  0.00     0.000 HD 
HETATM    7  O   UNL     3     -10.988   4.475  72.724  1.00  0.00    -0.191 OA 
ENDROOT
BRANCH   2   8
HETATM    8  C   UNL     2      -9.423   6.933  72.149  1.00  0.00    -0.148 C  
HETATM    9  H   UNL     2      -6.028   4.836  70.312  1.00  0.00     0.000 HD 
HETATM   10  H   UNL     2      -6.767   4.440  72.206  1.00  0.00     0.000 HD 
HETATM   11  C   UNL     2      -7.760   5.728  70.215  1.00  0.00    -0.095 C  
HETATM   12  O   UNL     2      -9.750   8.022  70.591  1.00  0.00    -0.172 OA 
HETATM   13  O   UNL     2      -8.860   6.628  68.070  1.00  0.00    -0.117 OA 
HETATM   14  O   UNL     2      -7.353   5.123  72.508  1.00  0.00    -0.088 OA 
HETATM   15  C   UNL     2      -8.600   7.085  69.233  1.00  0.00    -0.136 C  
HETATM   16  H   UNL     2      -8.317   6.185  67.428  1.00  0.00     0.000 HD 
HETATM   17  O   UNL     2      -6.454   5.525  69.813  1.00  0.00    -0.037 OA 
HETATM   18  C   UNL     2      -8.245   5.558  71.541  1.00  0.00    -0.119 C  
ENDBRANCH   2   8
BRANCH   2  19
HETATM   19  C   UNL     2      -8.498   7.711  74.273  1.00  0.00    -0.235 C  
HETATM   20  H   UNL     2      -7.021   8.999  74.092  1.00  0.00     0.000 HD 
HETATM   21  O   UNL     2      -7.836   8.804  73.644  1.00  0.00    -0.411 OA 
ENDBRANCH   2  19
BRANCH   4  22
HETATM   22  C   UNL     3      -9.439   5.580  70.697  1.00  0.00    -0.209 C  
HETATM   23  H   UNL     3     -11.610   8.841  69.201  1.00  0.00     0.000 HD 
HETATM   24  C   UNL     3     -10.810   6.443  68.027  1.00  0.00    -0.316 C  
HETATM   25  O   UNL     3      -9.446   4.256  69.376  1.00  0.00    -0.154 OA 
HETATM   26  O   UNL     3      -9.819   4.172  66.871  1.00  0.00    -0.216 OA 
HETATM   27  C   UNL     3     -10.598   7.047  69.431  1.00  0.00    -0.230 C  
HETATM   28  O   UNL     3     -11.159   6.983  66.932  1.00  0.00    -0.359 OA 
HETATM   29  O   UNL     3     -11.122   8.224  69.734  1.00  0.00    -0.182 OA 
HETATM   30  C   UNL     3     -10.161   4.728  67.916  1.00  0.00    -0.056 C  
ENDBRANCH   4  22
BRANCH   4  31
HETATM   31  C   UNL     3      -9.850   2.836  71.554  1.00  0.00    -0.125 C  
HETATM   32  O   UNL     3      -8.549   2.301  71.234  1.00  0.00    -0.060 OA 
HETATM   33  H   UNL     3      -8.584   1.389  70.970  1.00  0.00     0.000 HD 
ENDBRANCH   4  31
TORSDOF 4
ENDMDL
MODEL       88
REMARK 921   NORMALIZED FREE ENERGY PREDICTED BY IDOCK:   -3.56 KCAL/MOL
REMARK 922        TOTAL FREE ENERGY PREDICTED BY IDOCK:   29.93 KCAL/MOL
REMARK 923 INTER-LIGAND FREE ENERGY PREDICTED BY IDOCK:   -4.77 KCAL/MOL
REMARK 924 INTRA-LIGAND FREE ENERGY PREDICTED BY IDOCK:   34.70 KCAL/MOL
REMARK 927      BINDING AFFINITY PREDICTED BY RF-SCORE:    0.00 PKD
ROOT
HETATM    1 FE   UNL     1     -11.909   9.618  67.712  1.00  0.00    -0.546 Fe 
HETATM    2  C   UNL     2      -5.969  11.455  67.725  1.00  0.00    -0.049 C  
HETATM    3  O   UNL     2      -6.100  12.010  66.369  1.00  0.00    -0.487 OA 
HETATM    4  C   UNL     3      -8.793  10.583  65.936  1.00  0.00    -0.165 C  
HETATM    5  H   UNL     3      -6.940  10.705  65.694  1.00  0.00     0.000 HD 
HETATM    6  H   UNL     2      -5.968  11.250  65.815  1.00  0.00     0.000 HD 
HETATM    7  O   UNL     3      -7.661  10.596  65.086  1.00  0.00    -0.102 OA 
ENDROOT
BRANCH   2   8
HETATM    8  C   UNL     2      -7.144  10.525  68.009  1.00  0.00    -0.086 C  
HETATM    9  H   UNL     2     -11.348  10.958  69.208  1.00  0.00     0.000 HD 
HETATM   10  H   UNL     2     -10.340  12.271  67.963  1.00  0.00     0.000 HD 
HETATM   11  C   UNL     2      -9.794   9.880  68.731  1.00  0.00    -0.171 C  
HETATM   12  O   UNL     2      -6.917   8.864  68.963  1.00  0.00    -0.061 OA 
HETATM   13  O   UNL     2      -9.523   7.363  69.191  1.00  0.00    -0.150 OA 
HETATM   14  O   UNL     2      -9.401  12.135  67.988  1.00  0.00    -0.185 OA 
HETATM   15  C   UNL     2      -8.830   8.416  69.394  1.00  0.00    -0.142 C  
HETATM   16  H   UNL     2     -10.427   7.152  69.394  1.00  0.00     0.000 HD 
HETATM   17  O   UNL     2     -10.859  10.215  69.544  1.00  0.00    -0.223 OA 
HETATM   18  C   UNL     2      -9.033  10.799  67.958  1.00  0.00    -0.139 C  
ENDBRANCH   2   8
BRANCH   2  19
HETATM   19  C   UNL     2      -6.182  12.686  68.623  1.00  0.00    -0.070 C  
HETATM   20  H   UNL     2      -5.260  14.386  68.990  1.00  0.00     0.000 HD 
HETATM   21  O   UNL     2      -5.129  13.625  68.436  1.00  0.00    -0.084 OA 
ENDBRANCH   2  19
BRANCH   4  22
HETATM   22  C   UNL     3      -8.716   9.476  67.402  1.00  0.00    -0.128 C  
HETATM   23  H   UNL     3      -5.948   6.600  68.687  1.00  0.00     0.000 HD 
HETATM   24  C   UNL     3      -8.586   6.382  67.814  1.00  0.00    -0.116 C  
HETATM   25  O   UNL     3     -10.231   8.558  66.801  1.00  0.00    -0.276 OA 
HETATM   26  O   UNL     3     -11.235   6.258  67.152  1.00  0.00    -0.334 OA 
HETATM   27  C   UNL     3      -7.642   7.587  68.016  1.00  0.00    -0.110 C  
HETATM   28  O   UNL     3      -8.524   5.193  68.255  1.00  0.00    -0.096 OA 
HETATM   29  O   UNL     3      -6.399   7.395  68.429  1.00  0.00    -0.037 OA 
HETATM   30  C   UNL     3     -10.179   6.884  67.050  1.00  0.00    -0.248 C  
ENDBRANCH   4  22
BRANCH   4  31
HETATM   31  C   UNL     3      -9.962  10.406  64.950  1.00  0.00    -0.339 C  
HETATM   32  O   UNL     3      -9.654   9.481  63.885  1.00  0.00    -0.423 OA 
HETATM   33  H   UNL     3     -10.375   9.372  63.277  1.00  0.00     0.000 HD 
ENDBRANCH   4  31
TORSDOF 4
ENDMDL
MODEL       89
REMARK 921   NORMALIZED FREE ENERGY PREDICTED BY IDOCK:   -3.56 KCAL/MOL
REMARK 922        TOTAL FREE ENERGY PREDICTED BY IDOCK:   29.94 KCAL/MOL
REMARK 923 INTER-LIGAND FREE ENERGY PREDICTED BY IDOCK:   -4.63 KCAL/MOL
REMARK 924 INTRA-LIGAND FREE ENERGY PREDICTED BY IDOCK:   34.57 KCAL/MOL
REMARK 927      BINDING AFFINITY PREDICTED BY RF-SCORE:    0.00 PKD
ROOT
HETATM    1 FE   UNL     1      -9.993  11.801  66.659  1.00  0.00    -0.187 Fe 
HETATM    2  C   UNL     2      -9.339   7.585  71.181  1.00  0.00    -0.151 C  
HETATM    3  O   UNL     2      -8.389   8.449  71.899  1.00  0.00    -0.142 OA 
HETATM    4  C   UNL     3      -8.070  10.298  69.458  1.00  0.00    -0.162 C  
HETATM    5  H   UNL     3      -7.468   8.904  70.554  1.00  0.00     0.000 HD 
HETATM    6  H   UNL     2      -7.564   8.262  71.468  1.00  0.00     0.000 HD 
HETATM    7  O   UNL     3      -7.055   9.701  70.244  1.00  0.00    -0.094 OA 
ENDROOT
BRANCH   2   8
HETATM    8  C   UNL     2      -9.496   8.084  69.748  1.00  0.00    -0.159 C  
HETATM    9  H   UNL     2     -11.626  11.341  67.711  1.00  0.00     0.000 HD 
HETATM   10  H   UNL     2     -10.779  11.489  69.595  1.00  0.00     0.000 HD 
HETATM   11  C   UNL     2     -10.466   9.773  67.708  1.00  0.00    -0.246 C  
HETATM   12  O   UNL     2      -9.691   6.866  68.265  1.00  0.00    -0.132 OA 
HETATM   13  O   UNL     2      -9.886   8.347  65.646  1.00  0.00    -0.412 OA 
HETATM   14  O   UNL     2     -10.553  10.638  69.951  1.00  0.00    -0.238 OA 
HETATM   15  C   UNL     2     -10.316   8.126  66.827  1.00  0.00    -0.291 C  
HETATM   16  H   UNL     2     -10.182   8.942  64.966  1.00  0.00     0.000 HD 
HETATM   17  O   UNL     2     -11.550  10.505  67.264  1.00  0.00    -0.327 OA 
HETATM   18  C   UNL     2      -9.950   9.795  69.032  1.00  0.00    -0.184 C  
ENDBRANCH   2   8
BRANCH   2  19
HETATM   19  C   UNL     2     -10.676   7.888  71.879  1.00  0.00    -0.237 C  
HETATM   20  H   UNL     2     -11.761   7.111  73.327  1.00  0.00     0.000 HD 
HETATM   21  O   UNL     2     -10.935   6.924  72.895  1.00  0.00    -0.262 OA 
ENDBRANCH   2  19
BRANCH   4  22
HETATM   22  C   UNL     3      -8.909   9.218  68.229  1.00  0.00    -0.129 C  
HETATM   23  H   UNL     3      -8.192   5.318  66.868  1.00  0.00     0.000 HD 
HETATM   24  C   UNL     3      -8.028   7.791  65.594  1.00  0.00    -0.118 C  
HETATM   25  O   UNL     3      -8.417  10.385  66.852  1.00  0.00    -0.123 OA 
HETATM   26  O   UNL     3      -8.090  10.222  64.346  1.00  0.00    -0.163 OA 
HETATM   27  C   UNL     3      -8.430   7.370  67.024  1.00  0.00    -0.118 C  
HETATM   28  O   UNL     3      -7.935   7.117  64.523  1.00  0.00    -0.122 OA 
HETATM   29  O   UNL     3      -8.393   6.095  67.375  1.00  0.00    -0.109 OA 
HETATM   30  C   UNL     3      -7.968   9.618  65.412  1.00  0.00    -0.120 C  
ENDBRANCH   4  22
BRANCH   4  31
HETATM   31  C   UNL     3      -7.401  11.590  68.956  1.00  0.00    -0.094 C  
HETATM   32  O   UNL     3      -8.359  12.611  68.603  1.00  0.00    -0.314 OA 
HETATM   33  H   UNL     3      -7.946  13.408  68.293  1.00  0.00     0.000 HD 
ENDBRANCH   4  31
TORSDOF 4
ENDMDL
MODEL       90
REMARK 921   NORMALIZED FREE ENERGY PREDICTED BY IDOCK:   -3.54 KCAL/MOL
REMARK 922        TOTAL FREE ENERGY PREDICTED BY IDOCK:   29.96 KCAL/MOL
REMARK 923 INTER-LIGAND FREE ENERGY PREDICTED BY IDOCK:   -4.72 KCAL/MOL
REMARK 924 INTRA-LIGAND FREE ENERGY PREDICTED BY IDOCK:   34.69 KCAL/MOL
REMARK 927      BINDING AFFINITY PREDICTED BY RF-SCORE:    0.00 PKD
ROOT
HETATM    1 FE   UNL     1     -12.489   6.688  69.009  1.00  0.00    -0.577 Fe 
HETATM    2  C   UNL     2      -7.028   5.399  71.687  1.00  0.00    -0.067 C  
HETATM    3  O   UNL     2      -7.680   5.153  72.982  1.00  0.00    -0.095 OA 
HETATM    4  C   UNL     3     -10.316   6.410  72.008  1.00  0.00    -0.197 C  
HETATM    5  H   UNL     3      -8.703   6.502  72.955  1.00  0.00     0.000 HD 
HETATM    6  H   UNL     2      -7.766   6.027  73.346  1.00  0.00     0.000 HD 
HETATM    7  O   UNL     3      -9.603   6.684  73.200  1.00  0.00    -0.147 OA 
ENDROOT
BRANCH   2   8
HETATM    8  C   UNL     2      -7.991   6.140  70.766  1.00  0.00    -0.115 C  
HETATM    9  H   UNL     2     -11.475   5.117  68.293  1.00  0.00     0.000 HD 
HETATM   10  H   UNL     2     -11.030   4.239  70.116  1.00  0.00     0.000 HD 
HETATM   11  C   UNL     2     -10.175   6.389  68.996  1.00  0.00    -0.183 C  
HETATM   12  O   UNL     2      -7.385   7.515  69.556  1.00  0.00    -0.079 OA 
HETATM   13  O   UNL     2      -9.684   8.719  68.020  1.00  0.00    -0.150 OA 
HETATM   14  O   UNL     2     -10.143   4.431  70.395  1.00  0.00    -0.209 OA 
HETATM   15  C   UNL     2      -8.994   7.701  68.365  1.00  0.00    -0.128 C  
HETATM   16  H   UNL     2     -10.444   8.806  67.457  1.00  0.00     0.000 HD 
HETATM   17  O   UNL     2     -10.877   5.782  67.973  1.00  0.00    -0.242 OA 
HETATM   18  C   UNL     2      -9.775   5.753  70.204  1.00  0.00    -0.170 C  
ENDBRANCH   2   8
BRANCH   2  19
HETATM   19  C   UNL     2      -6.889   3.984  71.098  1.00  0.00    -0.032 C  
HETATM   20  H   UNL     2      -6.686   3.172  69.317  1.00  0.00     0.000 HD 
HETATM   21  O   UNL     2      -6.772   4.046  69.680  1.00  0.00    -0.036 OA 
ENDBRANCH   2  19
BRANCH   4  22
HETATM   22  C   UNL     3      -9.665   7.163  70.462  1.00  0.00    -0.176 C  
HETATM   23  H   UNL     3      -6.412   9.677  69.639  1.00  0.00     0.000 HD 
HETATM   24  C   UNL     3      -9.164  10.086  69.483  1.00  0.00    -0.221 C  
HETATM   25  O   UNL     3     -11.218   8.193  70.297  1.00  0.00    -0.253 OA 
HETATM   26  O   UNL     3     -11.864  10.357  69.149  1.00  0.00    -0.186 OA 
HETATM   27  C   UNL     3      -8.304   8.867  69.876  1.00  0.00    -0.128 C  
HETATM   28  O   UNL     3      -8.866  11.147  68.852  1.00  0.00    -0.153 OA 
HETATM   29  O   UNL     3      -6.984   8.961  69.886  1.00  0.00    -0.047 OA 
HETATM   30  C   UNL     3     -10.955   9.769  69.737  1.00  0.00    -0.256 C  
ENDBRANCH   4  22
BRANCH   4  31
HETATM   31  C   UNL     3     -11.774   6.706  72.405  1.00  0.00    -0.225 C  
HETATM   32  O   UNL     3     -11.905   7.923  73.168  1.00  0.00    -0.651 OA 
HETATM   33  H   UNL     3     -12.805   8.106  73.413  1.00  0.00     0.000 HD 
ENDBRANCH   4  31
TORSDOF 4
ENDMDL
MODEL       91
REMARK 921   NORMALIZED FREE ENERGY PREDICTED BY IDOCK:   -3.52 KCAL/MOL
REMARK 922        TOTAL FREE ENERGY PREDICTED BY IDOCK:   29.98 KCAL/MOL
REMARK 923 INTER-LIGAND FREE ENERGY PREDICTED BY IDOCK:   -4.38 KCAL/MOL
REMARK 924 INTRA-LIGAND FREE ENERGY PREDICTED BY IDOCK:   34.37 KCAL/MOL
REMARK 927      BINDING AFFINITY PREDICTED BY RF-SCORE:    0.00 PKD
ROOT
HETATM    1 FE   UNL     1     -12.156   6.931  67.143  1.00  0.00    -0.646 Fe 
HETATM    2  C   UNL     2      -6.757   5.090  69.616  1.00  0.00    -0.051 C  
HETATM    3  O   UNL     2      -7.275   5.281  70.979  1.00  0.00    -0.064 OA 
HETATM    4  C   UNL     3      -9.717   6.842  69.942  1.00  0.00    -0.162 C  
HETATM    5  H   UNL     3      -8.010   6.782  70.711  1.00  0.00     0.000 HD 
HETATM    6  H   UNL     2      -7.142   6.210  71.129  1.00  0.00     0.000 HD 
HETATM    7  O   UNL     3      -8.819   7.205  70.975  1.00  0.00    -0.143 OA 
ENDROOT
BRANCH   2   8
HETATM    8  C   UNL     2      -7.666   5.806  68.622  1.00  0.00    -0.090 C  
HETATM    9  H   UNL     2     -11.555   5.047  66.726  1.00  0.00     0.000 HD 
HETATM   10  H   UNL     2     -11.067   4.503  68.664  1.00  0.00     0.000 HD 
HETATM   11  C   UNL     2      -9.960   6.132  67.013  1.00  0.00    -0.162 C  
HETATM   12  O   UNL     2      -6.960   6.731  67.084  1.00  0.00    -0.069 OA 
HETATM   13  O   UNL     2      -9.157   8.042  65.487  1.00  0.00    -0.385 OA 
HETATM   14  O   UNL     2     -10.133   4.556  68.824  1.00  0.00    -0.099 OA 
HETATM   15  C   UNL     2      -8.637   6.998  66.006  1.00  0.00    -0.148 C  
HETATM   16  H   UNL     2      -9.949   8.168  64.978  1.00  0.00     0.000 HD 
HETATM   17  O   UNL     2     -10.884   5.486  66.215  1.00  0.00    -0.232 OA 
HETATM   18  C   UNL     2      -9.546   5.698  68.302  1.00  0.00    -0.121 C  
ENDBRANCH   2   8
BRANCH   2  19
HETATM   19  C   UNL     2      -6.972   3.586  69.373  1.00  0.00    -0.042 C  
HETATM   20  H   UNL     2      -6.965   2.353  67.839  1.00  0.00     0.000 HD 
HETATM   21  O   UNL     2      -6.832   3.282  67.989  1.00  0.00    -0.047 OA 
ENDBRANCH   2  19
BRANCH   4  22
HETATM   22  C   UNL     3      -9.132   7.080  68.215  1.00  0.00    -0.126 C  
HETATM   23  H   UNL     3      -5.620   8.665  66.562  1.00  0.00     0.000 HD 
HETATM   24  C   UNL     3      -8.263   9.548  66.509  1.00  0.00    -0.119 C  
HETATM   25  O   UNL     3     -10.497   8.323  67.913  1.00  0.00    -0.224 OA 
HETATM   26  O   UNL     3     -10.899  10.248  66.315  1.00  0.00    -0.068 OA 
HETATM   27  C   UNL     3      -7.581   8.310  67.129  1.00  0.00    -0.093 C  
HETATM   28  O   UNL     3      -7.866  10.358  65.616  1.00  0.00    -0.146 OA 
HETATM   29  O   UNL     3      -6.272   8.148  67.020  1.00  0.00    -0.052 OA 
HETATM   30  C   UNL     3     -10.040   9.647  66.964  1.00  0.00    -0.214 C  
ENDBRANCH   4  22
BRANCH   4  31
HETATM   31  C   UNL     3     -11.027   7.529  70.369  1.00  0.00    -0.251 C  
HETATM   32  O   UNL     3     -12.197   6.866  69.845  1.00  0.00    -0.626 OA 
HETATM   33  H   UNL     3     -13.005   7.290  70.109  1.00  0.00     0.000 HD 
ENDBRANCH   4  31
TORSDOF 4
ENDMDL
MODEL       92
REMARK 921   NORMALIZED FREE ENERGY PREDICTED BY IDOCK:   -3.51 KCAL/MOL
REMARK 922        TOTAL FREE ENERGY PREDICTED BY IDOCK:   30.00 KCAL/MOL
REMARK 923 INTER-LIGAND FREE ENERGY PREDICTED BY IDOCK:   -4.67 KCAL/MOL
REMARK 924 INTRA-LIGAND FREE ENERGY PREDICTED BY IDOCK:   34.66 KCAL/MOL
REMARK 927      BINDING AFFINITY PREDICTED BY RF-SCORE:    0.00 PKD
ROOT
HETATM    1 FE   UNL     1     -10.028  17.265  68.525  1.00  0.00    -0.227 Fe 
HETATM    2  C   UNL     2      -8.819  11.169  68.314  1.00  0.00    -0.155 C  
HETATM    3  O   UNL     2      -7.378  11.424  68.161  1.00  0.00    -0.084 OA 
HETATM    4  C   UNL     3      -7.865  14.404  67.561  1.00  0.00    -0.190 C  
HETATM    5  H   UNL     3      -7.509  12.652  67.003  1.00  0.00     0.000 HD 
HETATM    6  H   UNL     2      -7.287  11.576  67.228  1.00  0.00     0.000 HD 
HETATM    7  O   UNL     3      -7.078  13.480  66.832  1.00  0.00     0.143 OA 
ENDROOT
BRANCH   2   8
HETATM    8  C   UNL     2      -9.595  12.450  68.025  1.00  0.00    -0.211 C  
HETATM    9  H   UNL     2     -10.442  16.218  70.119  1.00  0.00     0.000 HD 
HETATM   10  H   UNL     2      -8.657  15.175  70.253  1.00  0.00     0.000 HD 
HETATM   11  C   UNL     2     -10.608  15.022  68.587  1.00  0.00    -0.237 C  
HETATM   12  O   UNL     2     -11.303  12.423  67.130  1.00  0.00    -0.288 OA 
HETATM   13  O   UNL     2     -12.378  15.211  66.728  1.00  0.00    -0.027 OA 
HETATM   14  O   UNL     2      -8.734  14.294  69.908  1.00  0.00     0.718 OA 
HETATM   15  C   UNL     2     -11.950  14.290  67.502  1.00  0.00    -0.376 C  
HETATM   16  H   UNL     2     -12.684  16.094  66.904  1.00  0.00     0.000 HD 
HETATM   17  O   UNL     2     -11.123  15.847  69.569  1.00  0.00    -0.266 OA 
HETATM   18  C   UNL     2      -9.440  14.223  68.718  1.00  0.00    -0.131 C  
ENDBRANCH   2   8
BRANCH   2  19
HETATM   19  C   UNL     2      -8.966  10.922  69.826  1.00  0.00     0.625 C  
HETATM   20  H   UNL     2      -7.901  10.114  71.270  1.00  0.00     0.000 HD 
HETATM   21  O   UNL     2      -7.810  10.266  70.336  1.00  0.00    -0.153 OA 
ENDBRANCH   2  19
BRANCH   4  22
HETATM   22  C   UNL     3      -9.686  14.305  67.325  1.00  0.00    -0.234 C  
HETATM   23  H   UNL     3     -12.154  11.844  64.993  1.00  0.00     0.000 HD 
HETATM   24  C   UNL     3     -11.603  14.574  64.873  1.00  0.00    -0.401 C  
HETATM   25  O   UNL     3      -9.686  16.000  66.533  1.00  0.00    -0.236 OA 
HETATM   26  O   UNL     3     -11.186  17.275  64.939  1.00  0.00    -0.717 OA 
HETATM   27  C   UNL     3     -11.134  13.448  65.819  1.00  0.00    -0.282 C  
HETATM   28  O   UNL     3     -12.582  14.631  64.068  1.00  0.00    -0.819 OA 
HETATM   29  O   UNL     3     -11.545  12.205  65.626  1.00  0.00    -0.364 OA 
HETATM   30  C   UNL     3     -10.745  16.160  65.223  1.00  0.00    -0.368 C  
ENDBRANCH   4  22
BRANCH   4  31
HETATM   31  C   UNL     3      -7.166  15.747  67.283  1.00  0.00    -0.219 C  
HETATM   32  O   UNL     3      -7.573  16.784  68.199  1.00  0.00    -0.167 OA 
HETATM   33  H   UNL     3      -7.141  17.613  68.028  1.00  0.00     0.000 HD 
ENDBRANCH   4  31
TORSDOF 4
ENDMDL
MODEL       93
REMARK 921   NORMALIZED FREE ENERGY PREDICTED BY IDOCK:   -3.48 KCAL/MOL
REMARK 922        TOTAL FREE ENERGY PREDICTED BY IDOCK:   30.03 KCAL/MOL
REMARK 923 INTER-LIGAND FREE ENERGY PREDICTED BY IDOCK:   -5.35 KCAL/MOL
REMARK 924 INTRA-LIGAND FREE ENERGY PREDICTED BY IDOCK:   35.39 KCAL/MOL
REMARK 927      BINDING AFFINITY PREDICTED BY RF-SCORE:    0.00 PKD
ROOT
HETATM    1 FE   UNL     1      -9.839  16.241  68.007  1.00  0.00    -0.213 Fe 
HETATM    2  C   UNL     2     -11.239  10.283  69.107  1.00  0.00    -0.215 C  
HETATM    3  O   UNL     2      -9.823   9.956  69.336  1.00  0.00    -0.191 OA 
HETATM    4  C   UNL     3      -8.904  12.650  68.164  1.00  0.00    -0.194 C  
HETATM    5  H   UNL     3      -9.198  10.806  68.013  1.00  0.00     0.000 HD 
HETATM    6  H   UNL     2      -9.491   9.820  68.457  1.00  0.00     0.000 HD 
HETATM    7  O   UNL     3      -8.438  11.351  67.846  1.00  0.00    -0.129 OA 
ENDROOT
BRANCH   2   8
HETATM    8  C   UNL     2     -11.340  11.637  68.410  1.00  0.00    -0.339 C  
HETATM    9  H   UNL     2     -11.465  15.856  69.623  1.00  0.00     0.000 HD 
HETATM   10  H   UNL     2     -10.354  14.392  70.578  1.00  0.00     0.000 HD 
HETATM   11  C   UNL     2     -11.487  14.450  68.272  1.00  0.00    -0.305 C  
HETATM   12  O   UNL     2     -12.498  11.913  66.892  1.00  0.00     0.106 OA 
HETATM   13  O   UNL     2     -12.273  14.729  65.838  1.00  0.00    -0.202 OA 
HETATM   14  O   UNL     2     -10.613  13.519  70.311  1.00  0.00     0.926 OA 
HETATM   15  C   UNL     2     -12.515  13.922  66.797  1.00  0.00    -0.213 C  
HETATM   16  H   UNL     2     -12.281  15.678  65.793  1.00  0.00     0.000 HD 
HETATM   17  O   UNL     2     -11.986  15.589  68.875  1.00  0.00    -0.351 OA 
HETATM   18  C   UNL     2     -10.817  13.393  68.946  1.00  0.00    -0.220 C  
ENDBRANCH   2   8
BRANCH   2  19
HETATM   19  C   UNL     2     -11.777  10.504  70.531  1.00  0.00    -0.350 C  
HETATM   20  H   UNL     2     -11.420   9.806  72.336  1.00  0.00     0.000 HD 
HETATM   21  O   UNL     2     -11.088   9.670  71.457  1.00  0.00    -0.370 OA 
ENDBRANCH   2  19
BRANCH   4  22
HETATM   22  C   UNL     3     -10.514  13.154  67.433  1.00  0.00    -0.243 C  
HETATM   23  H   UNL     3     -13.026  11.432  64.551  1.00  0.00     0.000 HD 
HETATM   24  C   UNL     3     -11.516  13.774  64.540  1.00  0.00    -0.384 C  
HETATM   25  O   UNL     3      -9.701  14.642  66.642  1.00  0.00    -0.248 OA 
HETATM   26  O   UNL     3     -10.183  16.158  64.671  1.00  0.00    -0.294 OA 
HETATM   27  C   UNL     3     -11.742  12.675  65.599  1.00  0.00    -0.412 C  
HETATM   28  O   UNL     3     -12.171  14.069  63.493  1.00  0.00    -0.626 OA 
HETATM   29  O   UNL     3     -12.510  11.633  65.322  1.00  0.00     0.049 OA 
HETATM   30  C   UNL     3     -10.262  15.001  65.086  1.00  0.00    -0.365 C  
ENDBRANCH   4  22
BRANCH   4  31
HETATM   31  C   UNL     3      -7.672  13.532  67.893  1.00  0.00    -0.153 C  
HETATM   32  O   UNL     3      -6.822  12.996  66.857  1.00  0.00    -0.415 OA 
HETATM   33  H   UNL     3      -6.062  13.540  66.690  1.00  0.00     0.000 HD 
ENDBRANCH   4  31
TORSDOF 4
ENDMDL
MODEL       94
REMARK 921   NORMALIZED FREE ENERGY PREDICTED BY IDOCK:   -3.45 KCAL/MOL
REMARK 922        TOTAL FREE ENERGY PREDICTED BY IDOCK:   30.08 KCAL/MOL
REMARK 923 INTER-LIGAND FREE ENERGY PREDICTED BY IDOCK:   -4.38 KCAL/MOL
REMARK 924 INTRA-LIGAND FREE ENERGY PREDICTED BY IDOCK:   34.46 KCAL/MOL
REMARK 927      BINDING AFFINITY PREDICTED BY RF-SCORE:    0.00 PKD
ROOT
HETATM    1 FE   UNL     1      -8.485   5.610  73.504  1.00  0.00    -0.110 Fe 
HETATM    2  C   UNL     2      -8.814   9.962  69.076  1.00  0.00    -0.156 C  
HETATM    3  O   UNL     2      -9.960  10.602  69.740  1.00  0.00    -0.429 OA 
HETATM    4  C   UNL     3     -10.368   8.180  71.596  1.00  0.00    -0.224 C  
HETATM    5  H   UNL     3     -10.819   9.184  70.081  1.00  0.00     0.000 HD 
HETATM    6  H   UNL     2     -10.698  10.090  69.432  1.00  0.00     0.000 HD 
HETATM    7  O   UNL     3     -11.332   8.852  70.807  1.00  0.00    -0.267 OA 
ENDROOT
BRANCH   2   8
HETATM    8  C   UNL     2      -8.615   8.561  69.645  1.00  0.00    -0.131 C  
HETATM    9  H   UNL     2      -6.843   6.801  73.259  1.00  0.00     0.000 HD 
HETATM   10  H   UNL     2      -7.858   8.606  73.208  1.00  0.00     0.000 HD 
HETATM   11  C   UNL     2      -7.746   6.656  71.536  1.00  0.00    -0.098 C  
HETATM   12  O   UNL     2      -8.112   7.072  68.527  1.00  0.00    -0.121 OA 
HETATM   13  O   UNL     2      -7.926   4.517  70.118  1.00  0.00    -0.062 OA 
HETATM   14  O   UNL     2      -7.981   8.919  72.320  1.00  0.00    -0.371 OA 
HETATM   15  C   UNL     2      -7.568   5.726  69.919  1.00  0.00    -0.080 C  
HETATM   16  H   UNL     2      -7.668   3.881  70.776  1.00  0.00     0.000 HD 
HETATM   17  O   UNL     2      -6.752   6.329  72.439  1.00  0.00    -0.066 OA 
HETATM   18  C   UNL     2      -8.369   7.930  71.431  1.00  0.00    -0.108 C  
ENDBRANCH   2   8
BRANCH   2  19
HETATM   19  C   UNL     2      -7.619  10.791  69.575  1.00  0.00    -0.088 C  
HETATM   20  H   UNL     2      -6.382  12.135  68.839  1.00  0.00     0.000 HD 
HETATM   21  O   UNL     2      -7.121  11.622  68.531  1.00  0.00    -0.076 OA 
ENDBRANCH   2  19
BRANCH   4  22
HETATM   22  C   UNL     3      -9.247   7.016  70.719  1.00  0.00    -0.157 C  
HETATM   23  H   UNL     3      -9.104   5.580  66.782  1.00  0.00     0.000 HD 
HETATM   24  C   UNL     3      -9.635   4.311  69.205  1.00  0.00    -0.190 C  
HETATM   25  O   UNL     3      -9.843   5.611  71.800  1.00  0.00    -0.163 OA 
HETATM   26  O   UNL     3      -9.940   3.085  71.630  1.00  0.00    -0.163 OA 
HETATM   27  C   UNL     3      -9.273   5.766  68.839  1.00  0.00    -0.115 C  
HETATM   28  O   UNL     3      -9.515   3.232  68.548  1.00  0.00    -0.178 OA 
HETATM   29  O   UNL     3      -9.093   6.106  67.572  1.00  0.00    -0.113 OA 
HETATM   30  C   UNL     3     -10.026   4.135  70.991  1.00  0.00    -0.136 C  
ENDBRANCH   4  22
BRANCH   4  31
HETATM   31  C   UNL     3     -11.201   7.642  72.773  1.00  0.00    -0.377 C  
HETATM   32  O   UNL     3     -10.418   7.470  73.974  1.00  0.00    -0.403 OA 
HETATM   33  H   UNL     3     -10.932   7.138  74.700  1.00  0.00     0.000 HD 
ENDBRANCH   4  31
TORSDOF 4
ENDMDL
MODEL       95
REMARK 921   NORMALIZED FREE ENERGY PREDICTED BY IDOCK:   -3.39 KCAL/MOL
REMARK 922        TOTAL FREE ENERGY PREDICTED BY IDOCK:   30.15 KCAL/MOL
REMARK 923 INTER-LIGAND FREE ENERGY PREDICTED BY IDOCK:   -4.35 KCAL/MOL
REMARK 924 INTRA-LIGAND FREE ENERGY PREDICTED BY IDOCK:   34.50 KCAL/MOL
REMARK 927      BINDING AFFINITY PREDICTED BY RF-SCORE:    0.00 PKD
ROOT
HETATM    1 FE   UNL     1      -6.631   6.265  67.481  1.00  0.00    -0.036 Fe 
HETATM    2  C   UNL     2     -11.264   8.719  70.824  1.00  0.00    -0.266 C  
HETATM    3  O   UNL     2     -11.920   7.408  70.944  1.00  0.00    -0.329 OA 
HETATM    4  C   UNL     3     -10.114   6.191  68.767  1.00  0.00    -0.169 C  
HETATM    5  H   UNL     3     -11.738   6.938  69.328  1.00  0.00     0.000 HD 
HETATM    6  H   UNL     2     -12.408   7.338  70.132  1.00  0.00     0.000 HD 
HETATM    7  O   UNL     3     -11.525   6.134  68.868  1.00  0.00    -0.305 OA 
ENDROOT
BRANCH   2   8
HETATM    8  C   UNL     2     -10.219   8.664  69.713  1.00  0.00    -0.206 C  
HETATM    9  H   UNL     2      -6.088   7.238  69.279  1.00  0.00     0.000 HD 
HETATM   10  H   UNL     2      -7.528   6.324  70.454  1.00  0.00     0.000 HD 
HETATM   11  C   UNL     2      -7.705   8.074  68.579  1.00  0.00    -0.106 C  
HETATM   12  O   UNL     2      -9.974  10.124  68.477  1.00  0.00    -0.154 OA 
HETATM   13  O   UNL     2      -7.848   9.488  66.435  1.00  0.00    -0.097 OA 
HETATM   14  O   UNL     2      -8.283   6.883  70.589  1.00  0.00    -0.117 OA 
HETATM   15  C   UNL     2      -8.210   9.622  67.652  1.00  0.00    -0.114 C  
HETATM   16  H   UNL     2      -7.015   9.251  66.045  1.00  0.00     0.000 HD 
HETATM   17  O   UNL     2      -6.343   8.023  68.808  1.00  0.00    -0.042 OA 
HETATM   18  C   UNL     2      -8.701   7.539  69.442  1.00  0.00    -0.137 C  
ENDBRANCH   2   8
BRANCH   2  19
HETATM   19  C   UNL     2     -10.473   8.831  72.138  1.00  0.00    -0.314 C  
HETATM   20  H   UNL     2     -10.542   8.041  73.940  1.00  0.00     0.000 HD 
HETATM   21  O   UNL     2     -11.031   7.971  73.128  1.00  0.00    -0.337 OA 
ENDBRANCH   2  19
BRANCH   4  22
HETATM   22  C   UNL     3      -9.391   7.765  68.150  1.00  0.00    -0.148 C  
HETATM   23  H   UNL     3     -11.068  11.329  66.711  1.00  0.00     0.000 HD 
HETATM   24  C   UNL     3      -9.550   9.352  65.464  1.00  0.00    -0.258 C  
HETATM   25  O   UNL     3      -8.658   6.865  66.683  1.00  0.00    -0.116 OA 
HETATM   26  O   UNL     3      -7.884   7.490  64.353  1.00  0.00    -0.121 OA 
HETATM   27  C   UNL     3     -10.049   9.536  66.913  1.00  0.00    -0.230 C  
HETATM   28  O   UNL     3      -9.447  10.180  64.507  1.00  0.00    -0.261 OA 
HETATM   29  O   UNL     3     -10.792  10.584  67.231  1.00  0.00    -0.275 OA 
HETATM   30  C   UNL     3      -8.714   7.733  65.231  1.00  0.00     0.028 C  
ENDBRANCH   4  22
BRANCH   4  31
HETATM   31  C   UNL     3      -9.770   4.889  68.022  1.00  0.00    -0.151 C  
HETATM   32  O   UNL     3      -8.370   4.552  68.111  1.00  0.00    -0.094 OA 
HETATM   33  H   UNL     3      -8.158   3.749  67.650  1.00  0.00     0.000 HD 
ENDBRANCH   4  31
TORSDOF 4
ENDMDL
MODEL       96
REMARK 921   NORMALIZED FREE ENERGY PREDICTED BY IDOCK:   -3.32 KCAL/MOL
REMARK 922        TOTAL FREE ENERGY PREDICTED BY IDOCK:   30.23 KCAL/MOL
REMARK 923 INTER-LIGAND FREE ENERGY PREDICTED BY IDOCK:   -4.41 KCAL/MOL
REMARK 924 INTRA-LIGAND FREE ENERGY PREDICTED BY IDOCK:   34.64 KCAL/MOL
REMARK 927      BINDING AFFINITY PREDICTED BY RF-SCORE:    0.00 PKD
ROOT
HETATM    1 FE   UNL     1      -9.581   7.710  71.208  1.00  0.00    -0.150 Fe 
HETATM    2  C   UNL     2      -6.406   7.536  65.865  1.00  0.00    -0.042 C  
HETATM    3  O   UNL     2      -5.189   8.025  66.530  1.00  0.00    -0.024 OA 
HETATM    4  C   UNL     3      -6.765   8.816  69.054  1.00  0.00    -0.052 C  
HETATM    5  H   UNL     3      -5.929   9.249  67.436  1.00  0.00     0.000 HD 
HETATM    6  H   UNL     2      -5.316   8.967  66.541  1.00  0.00     0.000 HD 
HETATM    7  O   UNL     3      -5.844   9.597  68.316  1.00  0.00    -0.043 OA 
ENDROOT
BRANCH   2   8
HETATM    8  C   UNL     2      -7.612   7.783  66.766  1.00  0.00    -0.098 C  
HETATM    9  H   UNL     2      -9.419   5.873  70.285  1.00  0.00     0.000 HD 
HETATM   10  H   UNL     2      -7.382   5.975  69.920  1.00  0.00     0.000 HD 
HETATM   11  C   UNL     2      -9.370   7.253  68.908  1.00  0.00    -0.144 C  
HETATM   12  O   UNL     2      -9.311   8.356  66.055  1.00  0.00    -0.209 OA 
HETATM   13  O   UNL     2     -11.335   8.778  68.250  1.00  0.00    -0.214 OA 
HETATM   14  O   UNL     2      -7.194   6.231  69.025  1.00  0.00    -0.078 OA 
HETATM   15  C   UNL     2     -10.509   8.023  67.635  1.00  0.00    -0.232 C  
HETATM   16  H   UNL     2     -11.901   8.621  68.996  1.00  0.00     0.000 HD 
HETATM   17  O   UNL     2      -9.997   6.263  69.640  1.00  0.00    -0.159 OA 
HETATM   18  C   UNL     2      -7.990   7.269  68.566  1.00  0.00    -0.124 C  
ENDBRANCH   2   8
BRANCH   2  19
HETATM   19  C   UNL     2      -6.201   6.011  65.848  1.00  0.00    -0.037 C  
HETATM   20  H   UNL     2      -7.168   4.428  65.191  1.00  0.00     0.000 HD 
HETATM   21  O   UNL     2      -7.295   5.370  65.201  1.00  0.00    -0.066 OA 
ENDBRANCH   2  19
BRANCH   4  22
HETATM   22  C   UNL     3      -8.453   8.637  68.348  1.00  0.00    -0.131 C  
HETATM   23  H   UNL     3     -10.399  10.393  65.075  1.00  0.00     0.000 HD 
HETATM   24  C   UNL     3     -10.833  10.591  67.821  1.00  0.00    -0.294 C  
HETATM   25  O   UNL     3      -9.191   9.382  69.897  1.00  0.00    -0.175 OA 
HETATM   26  O   UNL     3     -11.340  10.578  70.507  1.00  0.00    -0.312 OA 
HETATM   27  C   UNL     3      -9.821   9.792  66.972  1.00  0.00    -0.193 C  
HETATM   28  O   UNL     3     -11.925  11.155  67.503  1.00  0.00    -0.580 OA 
HETATM   29  O   UNL     3      -9.823   9.908  65.653  1.00  0.00    -0.266 OA 
HETATM   30  C   UNL     3     -10.501  10.418  69.619  1.00  0.00    -0.243 C  
ENDBRANCH   4  22
BRANCH   4  31
HETATM   31  C   UNL     3      -6.627   9.379  70.480  1.00  0.00    -0.084 C  
HETATM   32  O   UNL     3      -6.845  10.805  70.537  1.00  0.00    -0.461 OA 
HETATM   33  H   UNL     3      -6.760  11.153  71.416  1.00  0.00     0.000 HD 
ENDBRANCH   4  31
TORSDOF 4
ENDMDL
MODEL       97
REMARK 921   NORMALIZED FREE ENERGY PREDICTED BY IDOCK:   -3.30 KCAL/MOL
REMARK 922        TOTAL FREE ENERGY PREDICTED BY IDOCK:   30.26 KCAL/MOL
REMARK 923 INTER-LIGAND FREE ENERGY PREDICTED BY IDOCK:   -4.20 KCAL/MOL
REMARK 924 INTRA-LIGAND FREE ENERGY PREDICTED BY IDOCK:   34.46 KCAL/MOL
REMARK 927      BINDING AFFINITY PREDICTED BY RF-SCORE:    0.00 PKD
ROOT
HETATM    1 FE   UNL     1      -9.177   4.305  70.981  1.00  0.00    -0.100 Fe 
HETATM    2  C   UNL     2      -8.290   9.660  67.948  1.00  0.00    -0.117 C  
HETATM    3  O   UNL     2      -6.867   9.677  68.321  1.00  0.00    -0.067 OA 
HETATM    4  C   UNL     3      -7.280   7.445  70.400  1.00  0.00    -0.068 C  
HETATM    5  H   UNL     3      -7.075   9.250  69.945  1.00  0.00     0.000 HD 
HETATM    6  H   UNL     2      -6.879  10.056  69.192  1.00  0.00     0.000 HD 
HETATM    7  O   UNL     3      -6.628   8.690  70.569  1.00  0.00    -0.035 OA 
ENDROOT
BRANCH   2   8
HETATM    8  C   UNL     2      -9.033   8.658  68.827  1.00  0.00    -0.138 C  
HETATM    9  H   UNL     2      -9.561   4.300  68.964  1.00  0.00     0.000 HD 
HETATM   10  H   UNL     2      -7.815   5.254  68.387  1.00  0.00     0.000 HD 
HETATM   11  C   UNL     2      -9.894   6.098  69.641  1.00  0.00    -0.161 C  
HETATM   12  O   UNL     2     -10.805   9.016  69.498  1.00  0.00    -0.229 OA 
HETATM   13  O   UNL     2     -11.794   6.764  71.244  1.00  0.00    -0.311 OA 
HETATM   14  O   UNL     2      -7.954   6.178  68.219  1.00  0.00    -0.105 OA 
HETATM   15  C   UNL     2     -11.345   7.182  70.124  1.00  0.00    -0.241 C  
HETATM   16  H   UNL     2     -12.048   5.898  71.539  1.00  0.00     0.000 HD 
HETATM   17  O   UNL     2     -10.297   4.849  69.209  1.00  0.00    -0.187 OA 
HETATM   18  C   UNL     2      -8.752   6.800  69.165  1.00  0.00    -0.131 C  
ENDBRANCH   2   8
BRANCH   2  19
HETATM   19  C   UNL     2      -8.269   9.046  66.538  1.00  0.00    -0.114 C  
HETATM   20  H   UNL     2      -9.563   8.680  65.100  1.00  0.00     0.000 HD 
HETATM   21  O   UNL     2      -9.576   9.060  65.971  1.00  0.00    -0.247 OA 
ENDBRANCH   2  19
BRANCH   4  22
HETATM   22  C   UNL     3      -9.118   7.465  70.410  1.00  0.00    -0.157 C  
HETATM   23  H   UNL     3     -11.956  10.476  71.088  1.00  0.00     0.000 HD 
HETATM   24  C   UNL     3     -11.297   8.184  72.530  1.00  0.00    -0.401 C  
HETATM   25  O   UNL     3      -9.133   6.342  71.906  1.00  0.00    -0.143 OA 
HETATM   26  O   UNL     3     -10.751   5.817  73.784  1.00  0.00    -0.270 OA 
HETATM   27  C   UNL     3     -10.772   8.779  71.206  1.00  0.00    -0.269 C  
HETATM   28  O   UNL     3     -12.361   8.414  73.182  1.00  0.00    -0.105 OA 
HETATM   29  O   UNL     3     -11.260   9.923  70.753  1.00  0.00    -0.303 OA 
HETATM   30  C   UNL     3     -10.332   6.708  73.044  1.00  0.00    -0.222 C  
ENDBRANCH   4  22
BRANCH   4  31
HETATM   31  C   UNL     3      -6.555   6.538  71.412  1.00  0.00    -0.054 C  
HETATM   32  O   UNL     3      -6.450   5.172  70.956  1.00  0.00    -0.025 OA 
HETATM   33  H   UNL     3      -6.004   4.613  71.580  1.00  0.00     0.000 HD 
ENDBRANCH   4  31
TORSDOF 4
ENDMDL
MODEL       98
REMARK 921   NORMALIZED FREE ENERGY PREDICTED BY IDOCK:   -3.26 KCAL/MOL
REMARK 922        TOTAL FREE ENERGY PREDICTED BY IDOCK:   30.31 KCAL/MOL
REMARK 923 INTER-LIGAND FREE ENERGY PREDICTED BY IDOCK:   -4.14 KCAL/MOL
REMARK 924 INTRA-LIGAND FREE ENERGY PREDICTED BY IDOCK:   34.45 KCAL/MOL
REMARK 927      BINDING AFFINITY PREDICTED BY RF-SCORE:    0.00 PKD
ROOT
HETATM    1 FE   UNL     1      -6.449   8.523  65.769  1.00  0.00    -0.047 Fe 
HETATM    2  C   UNL     2     -10.279   9.094  70.633  1.00  0.00    -0.246 C  
HETATM    3  O   UNL     2     -10.880   7.779  70.360  1.00  0.00    -0.237 OA 
HETATM    4  C   UNL     3      -9.573   7.646  67.576  1.00  0.00    -0.143 C  
HETATM    5  H   UNL     3     -11.045   7.972  68.687  1.00  0.00     0.000 HD 
HETATM    6  H   UNL     2     -11.531   7.976  69.697  1.00  0.00     0.000 HD 
HETATM    7  O   UNL     3     -10.928   7.425  67.920  1.00  0.00    -0.118 OA 
ENDROOT
BRANCH   2   8
HETATM    8  C   UNL     2      -9.498   9.559  69.408  1.00  0.00    -0.182 C  
HETATM    9  H   UNL     2      -5.610   8.666  67.569  1.00  0.00     0.000 HD 
HETATM   10  H   UNL     2      -6.801   7.272  68.533  1.00  0.00     0.000 HD 
HETATM   11  C   UNL     2      -7.306   9.627  67.634  1.00  0.00    -0.090 C  
HETATM   12  O   UNL     2      -9.465  11.410  68.867  1.00  0.00    -0.155 OA 
HETATM   13  O   UNL     2      -7.848  11.790  66.349  1.00  0.00    -0.364 OA 
HETATM   14  O   UNL     2      -7.488   7.684  69.042  1.00  0.00    -0.091 OA 
HETATM   15  C   UNL     2      -7.937  11.390  67.559  1.00  0.00    -0.127 C  
HETATM   16  H   UNL     2      -7.127  11.780  65.732  1.00  0.00     0.000 HD 
HETATM   17  O   UNL     2      -5.929   9.560  67.531  1.00  0.00    -0.051 OA 
HETATM   18  C   UNL     2      -8.115   8.730  68.384  1.00  0.00    -0.117 C  
ENDBRANCH   2   8
BRANCH   2  19
HETATM   19  C   UNL     2      -9.225   8.775  71.707  1.00  0.00    -0.262 C  
HETATM   20  H   UNL     2      -9.205   8.143  73.571  1.00  0.00     0.000 HD 
HETATM   21  O   UNL     2      -9.856   8.340  72.908  1.00  0.00    -0.276 OA 
ENDBRANCH   2  19
BRANCH   4  22
HETATM   22  C   UNL     3      -9.016   9.396  67.490  1.00  0.00    -0.130 C  
HETATM   23  H   UNL     3     -11.012  13.068  67.836  1.00  0.00     0.000 HD 
HETATM   24  C   UNL     3      -9.730  11.843  65.685  1.00  0.00    -0.227 C  
HETATM   25  O   UNL     3      -8.569   9.176  65.687  1.00  0.00    -0.139 OA 
HETATM   26  O   UNL     3      -8.280  10.689  63.675  1.00  0.00    -0.119 OA 
HETATM   27  C   UNL     3      -9.938  11.430  67.157  1.00  0.00    -0.192 C  
HETATM   28  O   UNL     3      -9.834  12.972  65.114  1.00  0.00    -0.184 OA 
HETATM   29  O   UNL     3     -10.624  12.212  67.976  1.00  0.00    -0.198 OA 
HETATM   30  C   UNL     3      -8.926  10.511  64.710  1.00  0.00    -0.205 C  
ENDBRANCH   4  22
BRANCH   4  31
HETATM   31  C   UNL     3      -9.384   6.759  66.333  1.00  0.00    -0.136 C  
HETATM   32  O   UNL     3      -8.004   6.400  66.112  1.00  0.00    -0.105 OA 
HETATM   33  H   UNL     3      -7.887   5.852  65.344  1.00  0.00     0.000 HD 
ENDBRANCH   4  31
TORSDOF 4
ENDMDL
MODEL       99
REMARK 921   NORMALIZED FREE ENERGY PREDICTED BY IDOCK:   -3.24 KCAL/MOL
REMARK 922        TOTAL FREE ENERGY PREDICTED BY IDOCK:   30.33 KCAL/MOL
REMARK 923 INTER-LIGAND FREE ENERGY PREDICTED BY IDOCK:   -4.41 KCAL/MOL
REMARK 924 INTRA-LIGAND FREE ENERGY PREDICTED BY IDOCK:   34.74 KCAL/MOL
REMARK 927      BINDING AFFINITY PREDICTED BY RF-SCORE:    0.00 PKD
ROOT
HETATM    1 FE   UNL     1      -7.950   9.267  69.268  1.00  0.00    -0.078 Fe 
HETATM    2  C   UNL     2      -9.355   3.517  67.365  1.00  0.00    -0.206 C  
HETATM    3  O   UNL     2     -10.172   4.043  66.260  1.00  0.00    -0.413 OA 
HETATM    4  C   UNL     3     -10.144   6.880  67.457  1.00  0.00    -0.174 C  
HETATM    5  H   UNL     3     -10.982   5.232  67.153  1.00  0.00     0.000 HD 
HETATM    6  H   UNL     2     -11.008   4.217  66.678  1.00  0.00     0.000 HD 
HETATM    7  O   UNL     3     -11.257   6.129  67.007  1.00  0.00    -0.290 OA 
ENDROOT
BRANCH   2   8
HETATM    8  C   UNL     2      -9.091   4.628  68.375  1.00  0.00    -0.154 C  
HETATM    9  H   UNL     2      -6.392   8.078  68.702  1.00  0.00     0.000 HD 
HETATM   10  H   UNL     2      -7.230   7.406  66.931  1.00  0.00     0.000 HD 
HETATM   11  C   UNL     2      -7.809   6.928  69.389  1.00  0.00    -0.113 C  
HETATM   12  O   UNL     2      -9.090   4.294  70.275  1.00  0.00    -0.085 OA 
HETATM   13  O   UNL     2      -8.598   6.826  71.836  1.00  0.00    -0.120 OA 
HETATM   14  O   UNL     2      -7.607   6.539  67.023  1.00  0.00    -0.092 OA 
HETATM   15  C   UNL     2      -8.231   5.982  70.951  1.00  0.00    -0.125 C  
HETATM   16  H   UNL     2      -8.192   7.624  72.155  1.00  0.00     0.000 HD 
HETATM   17  O   UNL     2      -6.606   7.599  69.494  1.00  0.00    -0.035 OA 
HETATM   18  C   UNL     2      -8.334   6.371  68.190  1.00  0.00    -0.116 C  
ENDBRANCH   2   8
BRANCH   2  19
HETATM   19  C   UNL     2      -8.003   3.235  66.688  1.00  0.00    -0.080 C  
HETATM   20  H   UNL     2      -6.131   2.987  67.244  1.00  0.00     0.000 HD 
HETATM   21  O   UNL     2      -6.966   3.161  67.662  1.00  0.00    -0.048 OA 
ENDBRANCH   2  19
BRANCH   4  22
HETATM   22  C   UNL     3      -9.460   6.437  69.105  1.00  0.00    -0.137 C  
HETATM   23  H   UNL     3     -10.607   3.677  72.046  1.00  0.00     0.000 HD 
HETATM   24  C   UNL     3     -10.569   6.464  72.025  1.00  0.00    -0.213 C  
HETATM   25  O   UNL     3      -9.881   8.142  69.750  1.00  0.00    -0.182 OA 
HETATM   26  O   UNL     3     -10.309   9.185  72.018  1.00  0.00    -0.307 OA 
HETATM   27  C   UNL     3     -10.161   5.400  70.984  1.00  0.00    -0.229 C  
HETATM   28  O   UNL     3     -10.765   6.373  73.276  1.00  0.00    -0.248 OA 
HETATM   29  O   UNL     3     -10.312   4.113  71.256  1.00  0.00    -0.065 OA 
HETATM   30  C   UNL     3     -10.453   8.165  71.342  1.00  0.00    -0.212 C  
ENDBRANCH   4  22
BRANCH   4  31
HETATM   31  C   UNL     3     -10.592   8.334  67.221  1.00  0.00    -0.265 C  
HETATM   32  O   UNL     3     -10.044   8.892  66.008  1.00  0.00    -0.421 OA 
HETATM   33  H   UNL     3     -10.320   9.789  65.862  1.00  0.00     0.000 HD 
ENDBRANCH   4  31
TORSDOF 4
ENDMDL
MODEL      100
REMARK 921   NORMALIZED FREE ENERGY PREDICTED BY IDOCK:   -3.20 KCAL/MOL
REMARK 922        TOTAL FREE ENERGY PREDICTED BY IDOCK:   30.38 KCAL/MOL
REMARK 923 INTER-LIGAND FREE ENERGY PREDICTED BY IDOCK:   -4.04 KCAL/MOL
REMARK 924 INTRA-LIGAND FREE ENERGY PREDICTED BY IDOCK:   34.42 KCAL/MOL
REMARK 927      BINDING AFFINITY PREDICTED BY RF-SCORE:    0.00 PKD
ROOT
HETATM    1 FE   UNL     1      -8.441   5.394  71.953  1.00  0.00    -0.109 Fe 
HETATM    2  C   UNL     2      -9.301   5.583  65.798  1.00  0.00    -0.091 C  
HETATM    3  O   UNL     2      -7.856   5.453  65.556  1.00  0.00    -0.092 OA 
HETATM    4  C   UNL     3      -7.206   6.031  68.509  1.00  0.00    -0.084 C  
HETATM    5  H   UNL     3      -7.351   6.571  66.722  1.00  0.00     0.000 HD 
HETATM    6  H   UNL     2      -7.545   6.347  65.641  1.00  0.00     0.000 HD 
HETATM    7  O   UNL     3      -6.645   6.629  67.355  1.00  0.00    -0.052 OA 
ENDROOT
BRANCH   2   8
HETATM    8  C   UNL     2      -9.539   5.970  67.254  1.00  0.00    -0.124 C  
HETATM    9  H   UNL     2      -9.623   3.914  71.135  1.00  0.00     0.000 HD 
HETATM   10  H   UNL     2      -8.346   3.431  69.577  1.00  0.00     0.000 HD 
HETATM   11  C   UNL     2      -9.790   5.510  70.026  1.00  0.00    -0.198 C  
HETATM   12  O   UNL     2     -10.904   7.236  67.759  1.00  0.00    -0.205 OA 
HETATM   13  O   UNL     2     -10.913   7.713  70.736  1.00  0.00    -0.242 OA 
HETATM   14  O   UNL     2      -8.614   3.834  68.761  1.00  0.00    -0.080 OA 
HETATM   15  C   UNL     2     -10.995   6.916  69.742  1.00  0.00    -0.270 C  
HETATM   16  H   UNL     2     -10.956   7.562  71.673  1.00  0.00     0.000 HD 
HETATM   17  O   UNL     2     -10.235   4.627  70.992  1.00  0.00    -0.202 OA 
HETATM   18  C   UNL     2      -9.001   5.158  68.897  1.00  0.00    -0.100 C  
ENDBRANCH   2   8
BRANCH   2  19
HETATM   19  C   UNL     2      -9.806   4.136  65.660  1.00  0.00    -0.205 C  
HETATM   20  H   UNL     2     -10.496   2.975  64.229  1.00  0.00     0.000 HD 
HETATM   21  O   UNL     2     -10.185   3.869  64.314  1.00  0.00    -0.209 OA 
ENDBRANCH   2  19
BRANCH   4  22
HETATM   22  C   UNL     3      -8.877   6.610  69.012  1.00  0.00    -0.128 C  
HETATM   23  H   UNL     3     -11.415   9.638  67.607  1.00  0.00     0.000 HD 
HETATM   24  C   UNL     3     -10.053   9.323  70.018  1.00  0.00    -0.212 C  
HETATM   25  O   UNL     3      -8.196   7.177  70.660  1.00  0.00    -0.115 OA 
HETATM   26  O   UNL     3      -8.864   8.855  72.436  1.00  0.00    -0.396 OA 
HETATM   27  C   UNL     3     -10.159   8.449  68.751  1.00  0.00    -0.196 C  
HETATM   28  O   UNL     3     -10.773  10.283  70.431  1.00  0.00    -0.292 OA 
HETATM   29  O   UNL     3     -10.875   8.864  67.717  1.00  0.00    -0.181 OA 
HETATM   30  C   UNL     3      -8.852   8.632  71.224  1.00  0.00    -0.207 C  
ENDBRANCH   4  22
BRANCH   4  31
HETATM   31  C   UNL     3      -6.062   6.126  69.535  1.00  0.00    -0.029 C  
HETATM   32  O   UNL     3      -6.161   5.125  70.570  1.00  0.00    -0.021 OA 
HETATM   33  H   UNL     3      -5.456   5.183  71.203  1.00  0.00     0.000 HD 
ENDBRANCH   4  31
TORSDOF 4
ENDMDL
MODEL      101
REMARK 921   NORMALIZED FREE ENERGY PREDICTED BY IDOCK:   -3.19 KCAL/MOL
REMARK 922        TOTAL FREE ENERGY PREDICTED BY IDOCK:   30.40 KCAL/MOL
REMARK 923 INTER-LIGAND FREE ENERGY PREDICTED BY IDOCK:   -4.57 KCAL/MOL
REMARK 924 INTRA-LIGAND FREE ENERGY PREDICTED BY IDOCK:   34.97 KCAL/MOL
REMARK 927      BINDING AFFINITY PREDICTED BY RF-SCORE:    0.00 PKD
ROOT
HETATM    1 FE   UNL     1     -11.836   5.927  67.532  1.00  0.00    -0.408 Fe 
HETATM    2  C   UNL     2      -6.007   7.088  69.357  1.00  0.00    -0.026 C  
HETATM    3  O   UNL     2      -5.757   5.657  69.593  1.00  0.00    -0.011 OA 
HETATM    4  C   UNL     3      -8.758   4.997  69.390  1.00  0.00    -0.091 C  
HETATM    5  H   UNL     3      -7.211   5.326  70.394  1.00  0.00     0.000 HD 
HETATM    6  H   UNL     2      -6.110   5.521  70.465  1.00  0.00     0.000 HD 
HETATM    7  O   UNL     3      -7.843   4.616  70.401  1.00  0.00    -0.053 OA 
ENDROOT
BRANCH   2   8
HETATM    8  C   UNL     2      -7.508   7.329  69.240  1.00  0.00    -0.096 C  
HETATM    9  H   UNL     2     -10.595   6.845  66.153  1.00  0.00     0.000 HD 
HETATM   10  H   UNL     2      -8.982   5.571  66.411  1.00  0.00     0.000 HD 
HETATM   11  C   UNL     2     -10.012   7.362  67.940  1.00  0.00    -0.165 C  
HETATM   12  O   UNL     2      -8.349   8.886  70.008  1.00  0.00    -0.115 OA 
HETATM   13  O   UNL     2     -11.332   8.852  69.571  1.00  0.00    -0.436 OA 
HETATM   14  O   UNL     2      -8.320   5.947  66.978  1.00  0.00    -0.105 OA 
HETATM   15  C   UNL     2     -10.144   8.825  69.104  1.00  0.00    -0.198 C  
HETATM   16  H   UNL     2     -12.180   8.823  69.143  1.00  0.00     0.000 HD 
HETATM   17  O   UNL     2     -10.662   7.587  66.742  1.00  0.00    -0.319 OA 
HETATM   18  C   UNL     2      -8.840   6.573  68.100  1.00  0.00    -0.115 C  
ENDBRANCH   2   8
BRANCH   2  19
HETATM   19  C   UNL     2      -5.436   7.308  67.945  1.00  0.00    -0.025 C  
HETATM   20  H   UNL     2      -4.792   6.195  66.455  1.00  0.00     0.000 HD 
HETATM   21  O   UNL     2      -5.144   6.059  67.327  1.00  0.00    -0.004 OA 
ENDBRANCH   2  19
BRANCH   4  22
HETATM   22  C   UNL     3      -9.387   6.724  69.450  1.00  0.00    -0.148 C  
HETATM   23  H   UNL     3      -8.699   9.944  72.046  1.00  0.00     0.000 HD 
HETATM   24  C   UNL     3     -10.973   8.413  71.545  1.00  0.00    -0.262 C  
HETATM   25  O   UNL     3     -11.114   6.093  69.794  1.00  0.00    -0.351 OA 
HETATM   26  O   UNL     3     -13.221   7.016  70.857  1.00  0.00    -0.202 OA 
HETATM   27  C   UNL     3      -9.545   8.394  70.961  1.00  0.00    -0.169 C  
HETATM   28  O   UNL     3     -11.592   9.304  72.204  1.00  0.00    -0.312 OA 
HETATM   29  O   UNL     3      -8.632   9.241  71.411  1.00  0.00    -0.326 OA 
HETATM   30  C   UNL     3     -11.989   7.023  70.905  1.00  0.00    -0.364 C  
ENDBRANCH   4  22
BRANCH   4  31
HETATM   31  C   UNL     3      -9.781   3.847  69.402  1.00  0.00    -0.102 C  
HETATM   32  O   UNL     3      -9.335   2.699  68.651  1.00  0.00    -0.172 OA 
HETATM   33  H   UNL     3      -9.966   1.990  68.658  1.00  0.00     0.000 HD 
ENDBRANCH   4  31
TORSDOF 4
ENDMDL
MODEL      102
REMARK 921   NORMALIZED FREE ENERGY PREDICTED BY IDOCK:   -3.16 KCAL/MOL
REMARK 922        TOTAL FREE ENERGY PREDICTED BY IDOCK:   30.43 KCAL/MOL
REMARK 923 INTER-LIGAND FREE ENERGY PREDICTED BY IDOCK:   -3.95 KCAL/MOL
REMARK 924 INTRA-LIGAND FREE ENERGY PREDICTED BY IDOCK:   34.38 KCAL/MOL
REMARK 927      BINDING AFFINITY PREDICTED BY RF-SCORE:    0.00 PKD
ROOT
HETATM    1 FE   UNL     1      -8.067   6.849  65.613  1.00  0.00    -0.087 Fe 
HETATM    2  C   UNL     2      -9.114   5.530  71.598  1.00  0.00    -0.142 C  
HETATM    3  O   UNL     2     -10.463   5.031  71.289  1.00  0.00    -0.208 OA 
HETATM    4  C   UNL     3     -10.373   6.241  68.460  1.00  0.00    -0.203 C  
HETATM    5  H   UNL     3     -10.915   6.290  70.252  1.00  0.00     0.000 HD 
HETATM    6  H   UNL     2     -10.984   5.825  71.269  1.00  0.00     0.000 HD 
HETATM    7  O   UNL     3     -11.392   6.366  69.434  1.00  0.00    -0.394 OA 
ENDROOT
BRANCH   2   8
HETATM    8  C   UNL     2      -8.590   6.341  70.418  1.00  0.00    -0.142 C  
HETATM    9  H   UNL     2      -6.842   5.491  66.479  1.00  0.00     0.000 HD 
HETATM   10  H   UNL     2      -8.321   4.354  67.377  1.00  0.00     0.000 HD 
HETATM   11  C   UNL     2      -7.446   6.720  67.867  1.00  0.00    -0.098 C  
HETATM   12  O   UNL     2      -7.546   7.943  70.670  1.00  0.00    -0.074 OA 
HETATM   13  O   UNL     2      -6.826   9.212  68.031  1.00  0.00    -0.067 OA 
HETATM   14  O   UNL     2      -8.419   4.562  68.298  1.00  0.00    -0.093 OA 
HETATM   15  C   UNL     2      -6.811   8.206  68.816  1.00  0.00    -0.066 C  
HETATM   16  H   UNL     2      -6.479   9.336  67.155  1.00  0.00     0.000 HD 
HETATM   17  O   UNL     2      -6.519   6.245  66.960  1.00  0.00    -0.046 OA 
HETATM   18  C   UNL     2      -8.393   5.922  68.565  1.00  0.00    -0.109 C  
ENDBRANCH   2   8
BRANCH   2  19
HETATM   19  C   UNL     2      -8.271   4.244  71.630  1.00  0.00    -0.092 C  
HETATM   20  H   UNL     2      -8.554   2.320  71.325  1.00  0.00     0.000 HD 
HETATM   21  O   UNL     2      -9.075   3.114  71.305  1.00  0.00    -0.090 OA 
ENDBRANCH   2  19
BRANCH   4  22
HETATM   22  C   UNL     3      -8.874   7.280  68.692  1.00  0.00    -0.129 C  
HETATM   23  H   UNL     3      -7.827  10.234  71.477  1.00  0.00     0.000 HD 
HETATM   24  C   UNL     3      -8.314  10.352  68.736  1.00  0.00    -0.134 C  
HETATM   25  O   UNL     3      -9.208   8.143  67.066  1.00  0.00    -0.141 OA 
HETATM   26  O   UNL     3      -8.596  10.366  66.016  1.00  0.00    -0.141 OA 
HETATM   27  C   UNL     3      -8.312   9.191  69.753  1.00  0.00    -0.136 C  
HETATM   28  O   UNL     3      -7.822  11.520  68.803  1.00  0.00    -0.140 OA 
HETATM   29  O   UNL     3      -8.064   9.430  71.031  1.00  0.00    -0.300 OA 
HETATM   30  C   UNL     3      -8.877   9.803  67.076  1.00  0.00    -0.135 C  
ENDBRANCH   4  22
BRANCH   4  31
HETATM   31  C   UNL     3     -11.148   6.364  67.135  1.00  0.00    -0.341 C  
HETATM   32  O   UNL     3     -10.475   5.714  66.036  1.00  0.00    -0.445 OA 
HETATM   33  H   UNL     3     -10.952   5.790  65.219  1.00  0.00     0.000 HD 
ENDBRANCH   4  31
TORSDOF 4
ENDMDL
MODEL      103
REMARK 921   NORMALIZED FREE ENERGY PREDICTED BY IDOCK:   -3.13 KCAL/MOL
REMARK 922        TOTAL FREE ENERGY PREDICTED BY IDOCK:   30.47 KCAL/MOL
REMARK 923 INTER-LIGAND FREE ENERGY PREDICTED BY IDOCK:   -4.16 KCAL/MOL
REMARK 924 INTRA-LIGAND FREE ENERGY PREDICTED BY IDOCK:   34.64 KCAL/MOL
REMARK 927      BINDING AFFINITY PREDICTED BY RF-SCORE:    0.00 PKD
ROOT
HETATM    1 FE   UNL     1      -9.126   7.856  69.355  1.00  0.00    -0.136 Fe 
HETATM    2  C   UNL     2      -6.316  10.458  64.458  1.00  0.00    -0.053 C  
HETATM    3  O   UNL     2      -5.143  10.812  65.273  1.00  0.00    -0.120 OA 
HETATM    4  C   UNL     3      -6.651  10.203  67.888  1.00  0.00    -0.066 C  
HETATM    5  H   UNL     3      -5.995  11.406  66.610  1.00  0.00     0.000 HD 
HETATM    6  H   UNL     2      -5.407  11.629  65.682  1.00  0.00     0.000 HD 
HETATM    7  O   UNL     3      -5.906  11.360  67.555  1.00  0.00    -0.049 OA 
ENDROOT
BRANCH   2   8
HETATM    8  C   UNL     2      -7.483  10.106  65.374  1.00  0.00    -0.144 C  
HETATM    9  H   UNL     2      -8.760   6.625  67.730  1.00  0.00     0.000 HD 
HETATM   10  H   UNL     2      -6.789   7.195  67.451  1.00  0.00     0.000 HD 
HETATM   11  C   UNL     2      -9.002   8.447  67.077  1.00  0.00    -0.142 C  
HETATM   12  O   UNL     2      -9.290  10.648  64.971  1.00  0.00    -0.189 OA 
HETATM   13  O   UNL     2     -11.207   9.773  67.128  1.00  0.00    -0.219 OA 
HETATM   14  O   UNL     2      -6.699   7.832  66.753  1.00  0.00    -0.063 OA 
HETATM   15  C   UNL     2     -10.322   9.491  66.252  1.00  0.00    -0.156 C  
HETATM   16  H   UNL     2     -11.694   9.226  67.733  1.00  0.00     0.000 HD 
HETATM   17  O   UNL     2      -9.430   7.154  67.312  1.00  0.00    -0.132 OA 
HETATM   18  C   UNL     2      -7.664   8.825  66.779  1.00  0.00    -0.094 C  
ENDBRANCH   2   8
BRANCH   2  19
HETATM   19  C   UNL     2      -5.888   9.137  63.796  1.00  0.00    -0.075 C  
HETATM   20  H   UNL     2      -6.517   7.984  62.330  1.00  0.00     0.000 HD 
HETATM   21  O   UNL     2      -6.781   8.800  62.739  1.00  0.00    -0.092 OA 
ENDBRANCH   2  19
BRANCH   4  22
HETATM   22  C   UNL     3      -8.336  10.068  67.165  1.00  0.00    -0.121 C  
HETATM   23  H   UNL     3     -10.672  12.640  64.817  1.00  0.00     0.000 HD 
HETATM   24  C   UNL     3     -10.978  11.714  67.428  1.00  0.00    -0.261 C  
HETATM   25  O   UNL     3      -9.082  10.054  68.881  1.00  0.00    -0.142 OA 
HETATM   26  O   UNL     3     -11.333  10.607  69.903  1.00  0.00    -0.266 OA 
HETATM   27  C   UNL     3      -9.917  11.451  66.338  1.00  0.00    -0.214 C  
HETATM   28  O   UNL     3     -12.151  12.194  67.350  1.00  0.00    -0.553 OA 
HETATM   29  O   UNL     3     -10.007  12.058  65.165  1.00  0.00    -0.252 OA 
HETATM   30  C   UNL     3     -10.530  10.919  69.022  1.00  0.00    -0.219 C  
ENDBRANCH   4  22
BRANCH   4  31
HETATM   31  C   UNL     3      -6.506  10.130  69.418  1.00  0.00    -0.050 C  
HETATM   32  O   UNL     3      -6.939  11.339  70.076  1.00  0.00    -0.356 OA 
HETATM   33  H   UNL     3      -6.849  11.294  71.020  1.00  0.00     0.000 HD 
ENDBRANCH   4  31
TORSDOF 4
ENDMDL
MODEL      104
REMARK 921   NORMALIZED FREE ENERGY PREDICTED BY IDOCK:   -3.09 KCAL/MOL
REMARK 922        TOTAL FREE ENERGY PREDICTED BY IDOCK:   30.51 KCAL/MOL
REMARK 923 INTER-LIGAND FREE ENERGY PREDICTED BY IDOCK:   -4.31 KCAL/MOL
REMARK 924 INTRA-LIGAND FREE ENERGY PREDICTED BY IDOCK:   34.82 KCAL/MOL
REMARK 927      BINDING AFFINITY PREDICTED BY RF-SCORE:    0.00 PKD
ROOT
HETATM    1 FE   UNL     1      -9.416   9.110  66.378  1.00  0.00    -0.142 Fe 
HETATM    2  C   UNL     2     -10.415   7.444  72.285  1.00  0.00    -0.223 C  
HETATM    3  O   UNL     2      -9.841   8.707  72.776  1.00  0.00    -0.213 OA 
HETATM    4  C   UNL     3      -8.668   9.368  70.007  1.00  0.00    -0.210 C  
HETATM    5  H   UNL     3      -8.489   8.727  71.758  1.00  0.00     0.000 HD 
HETATM    6  H   UNL     2      -8.907   8.529  72.778  1.00  0.00     0.000 HD 
HETATM    7  O   UNL     3      -8.014   9.384  71.262  1.00  0.00    -0.328 OA 
ENDROOT
BRANCH   2   8
HETATM    8  C   UNL     2     -10.026   7.244  70.824  1.00  0.00    -0.187 C  
HETATM    9  H   UNL     2     -11.284   8.844  66.932  1.00  0.00     0.000 HD 
HETATM   10  H   UNL     2     -11.218   9.942  68.687  1.00  0.00     0.000 HD 
HETATM   11  C   UNL     2     -10.180   7.680  68.041  1.00  0.00    -0.202 C  
HETATM   12  O   UNL     2      -9.621   5.498  70.111  1.00  0.00    -0.156 OA 
HETATM   13  O   UNL     2      -8.835   5.653  67.204  1.00  0.00    -0.109 OA 
HETATM   14  O   UNL     2     -11.128   9.385  69.451  1.00  0.00    -0.189 OA 
HETATM   15  C   UNL     2      -9.677   5.878  68.137  1.00  0.00    -0.127 C  
HETATM   16  H   UNL     2      -8.862   5.833  66.271  1.00  0.00     0.000 HD 
HETATM   17  O   UNL     2     -11.029   7.930  66.980  1.00  0.00    -0.219 OA 
HETATM   18  C   UNL     2     -10.206   8.364  69.288  1.00  0.00    -0.208 C  
ENDBRANCH   2   8
BRANCH   2  19
HETATM   19  C   UNL     2     -11.926   7.732  72.281  1.00  0.00    -0.309 C  
HETATM   20  H   UNL     2     -13.582   6.761  71.845  1.00  0.00     0.000 HD 
HETATM   21  O   UNL     2     -12.648   6.584  71.847  1.00  0.00    -0.341 OA 
ENDBRANCH   2  19
BRANCH   4  22
HETATM   22  C   UNL     3      -8.937   7.721  69.235  1.00  0.00    -0.139 C  
HETATM   23  H   UNL     3      -7.833   3.824  70.317  1.00  0.00     0.000 HD 
HETATM   24  C   UNL     3      -7.063   5.451  68.190  1.00  0.00    -0.067 C  
HETATM   25  O   UNL     3      -7.868   8.217  67.781  1.00  0.00    -0.110 OA 
HETATM   26  O   UNL     3      -6.509   7.013  66.015  1.00  0.00    -0.048 OA 
HETATM   27  C   UNL     3      -8.049   5.649  69.361  1.00  0.00    -0.100 C  
HETATM   28  O   UNL     3      -6.544   4.398  67.707  1.00  0.00    -0.044 OA 
HETATM   29  O   UNL     3      -8.206   4.695  70.265  1.00  0.00    -0.073 OA 
HETATM   30  C   UNL     3      -6.873   6.982  67.192  1.00  0.00    -0.065 C  
ENDBRANCH   4  22
BRANCH   4  31
HETATM   31  C   UNL     3      -7.898  10.433  69.205  1.00  0.00    -0.134 C  
HETATM   32  O   UNL     3      -8.659  11.645  69.019  1.00  0.00    -0.368 OA 
HETATM   33  H   UNL     3      -8.184  12.302  68.524  1.00  0.00     0.000 HD 
ENDBRANCH   4  31
TORSDOF 4
ENDMDL
MODEL      105
REMARK 921   NORMALIZED FREE ENERGY PREDICTED BY IDOCK:   -3.08 KCAL/MOL
REMARK 922        TOTAL FREE ENERGY PREDICTED BY IDOCK:   30.53 KCAL/MOL
REMARK 923 INTER-LIGAND FREE ENERGY PREDICTED BY IDOCK:   -3.98 KCAL/MOL
REMARK 924 INTRA-LIGAND FREE ENERGY PREDICTED BY IDOCK:   34.51 KCAL/MOL
REMARK 927      BINDING AFFINITY PREDICTED BY RF-SCORE:    0.00 PKD
ROOT
HETATM    1 FE   UNL     1      -6.373  13.044  66.490  1.00  0.00    -0.271 Fe 
HETATM    2  C   UNL     2     -10.405   8.571  68.037  1.00  0.00    -0.217 C  
HETATM    3  O   UNL     2     -11.530   9.518  67.987  1.00  0.00    -0.432 OA 
HETATM    4  C   UNL     3      -9.624  11.934  67.901  1.00  0.00    -0.193 C  
HETATM    5  H   UNL     3     -10.773  10.780  68.825  1.00  0.00     0.000 HD 
HETATM    6  H   UNL     2     -11.501   9.928  68.844  1.00  0.00     0.000 HD 
HETATM    7  O   UNL     3     -10.737  11.726  68.752  1.00  0.00    -0.211 OA 
ENDROOT
BRANCH   2   8
HETATM    8  C   UNL     2      -9.092   9.345  68.084  1.00  0.00    -0.129 C  
HETATM    9  H   UNL     2      -6.468  11.369  65.201  1.00  0.00     0.000 HD 
HETATM   10  H   UNL     2      -8.535  11.320  65.075  1.00  0.00     0.000 HD 
HETATM   11  C   UNL     2      -6.924  10.795  67.008  1.00  0.00    -0.100 C  
HETATM   12  O   UNL     2      -7.628   8.793  69.212  1.00  0.00    -0.088 OA 
HETATM   13  O   UNL     2      -5.299  10.697  69.000  1.00  0.00    -0.042 OA 
HETATM   14  O   UNL     2      -8.911  10.670  65.655  1.00  0.00    -0.174 OA 
HETATM   15  C   UNL     2      -6.131   9.900  68.451  1.00  0.00    -0.046 C  
HETATM   16  H   UNL     2      -4.592  11.220  68.641  1.00  0.00     0.000 HD 
HETATM   17  O   UNL     2      -6.065  10.916  65.932  1.00  0.00    -0.133 OA 
HETATM   18  C   UNL     2      -8.336  10.654  66.916  1.00  0.00    -0.125 C  
ENDBRANCH   2   8
BRANCH   2  19
HETATM   19  C   UNL     2     -10.452   7.909  66.649  1.00  0.00    -0.123 C  
HETATM   20  H   UNL     2     -10.240   6.100  65.902  1.00  0.00     0.000 HD 
HETATM   21  O   UNL     2     -10.211   6.509  66.759  1.00  0.00    -0.192 OA 
ENDBRANCH   2  19
BRANCH   4  22
HETATM   22  C   UNL     3      -8.078  11.034  68.326  1.00  0.00    -0.128 C  
HETATM   23  H   UNL     3      -6.985   8.545  71.517  1.00  0.00     0.000 HD 
HETATM   24  C   UNL     3      -6.105  11.074  70.747  1.00  0.00     0.045 C  
HETATM   25  O   UNL     3      -7.183  12.661  68.559  1.00  0.00    -0.102 OA 
HETATM   26  O   UNL     3      -5.136  13.458  69.821  1.00  0.00    -0.081 OA 
HETATM   27  C   UNL     3      -7.137  10.094  70.150  1.00  0.00    -0.157 C  
HETATM   28  O   UNL     3      -5.170  10.890  71.585  1.00  0.00    -0.246 OA 
HETATM   29  O   UNL     3      -7.381   8.940  70.750  1.00  0.00    -0.068 OA 
HETATM   30  C   UNL     3      -6.090  12.678  69.851  1.00  0.00    -0.125 C  
ENDBRANCH   4  22
BRANCH   4  31
HETATM   31  C   UNL     3      -9.565  13.468  67.783  1.00  0.00    -0.219 C  
HETATM   32  O   UNL     3      -8.987  13.906  66.535  1.00  0.00    -0.422 OA 
HETATM   33  H   UNL     3      -8.951  14.853  66.462  1.00  0.00     0.000 HD 
ENDBRANCH   4  31
TORSDOF 4
ENDMDL
MODEL      106
REMARK 921   NORMALIZED FREE ENERGY PREDICTED BY IDOCK:   -3.06 KCAL/MOL
REMARK 922        TOTAL FREE ENERGY PREDICTED BY IDOCK:   30.55 KCAL/MOL
REMARK 923 INTER-LIGAND FREE ENERGY PREDICTED BY IDOCK:   -4.02 KCAL/MOL
REMARK 924 INTRA-LIGAND FREE ENERGY PREDICTED BY IDOCK:   34.56 KCAL/MOL
REMARK 927      BINDING AFFINITY PREDICTED BY RF-SCORE:    0.00 PKD
ROOT
HETATM    1 FE   UNL     1     -11.043  11.854  68.133  1.00  0.00    -0.181 Fe 
HETATM    2  C   UNL     2      -8.267   6.411  66.978  1.00  0.00    -0.113 C  
HETATM    3  O   UNL     2      -8.576   5.926  68.332  1.00  0.00    -0.114 OA 
HETATM    4  C   UNL     3      -9.355   8.750  69.277  1.00  0.00    -0.149 C  
HETATM    5  H   UNL     3      -8.135   7.334  69.161  1.00  0.00     0.000 HD 
HETATM    6  H   UNL     2      -7.871   6.289  68.854  1.00  0.00     0.000 HD 
HETATM    7  O   UNL     3      -8.474   7.831  69.896  1.00  0.00    -0.129 OA 
ENDROOT
BRANCH   2   8
HETATM    8  C   UNL     2      -8.449   7.925  66.928  1.00  0.00    -0.128 C  
HETATM    9  H   UNL     2     -11.815  10.732  66.628  1.00  0.00     0.000 HD 
HETATM   10  H   UNL     2     -11.871   8.937  67.659  1.00  0.00     0.000 HD 
HETATM   11  C   UNL     2      -9.910  10.332  66.757  1.00  0.00    -0.197 C  
HETATM   12  O   UNL     2      -7.257   9.058  65.921  1.00  0.00    -0.090 OA 
HETATM   13  O   UNL     2      -7.999  11.967  66.211  1.00  0.00    -0.381 OA 
HETATM   14  O   UNL     2     -11.136   8.377  67.439  1.00  0.00     0.027 OA 
HETATM   15  C   UNL     2      -8.310  10.772  65.887  1.00  0.00    -0.162 C  
HETATM   16  H   UNL     2      -8.497  12.776  66.195  1.00  0.00     0.000 HD 
HETATM   17  O   UNL     2     -11.003  10.955  66.186  1.00  0.00    -0.162 OA 
HETATM   18  C   UNL     2      -9.927   9.050  67.372  1.00  0.00    -0.209 C  
ENDBRANCH   2   8
BRANCH   2  19
HETATM   19  C   UNL     2      -9.410   5.823  66.132  1.00  0.00    -0.144 C  
HETATM   20  H   UNL     2     -11.073   4.818  66.446  1.00  0.00     0.000 HD 
HETATM   21  O   UNL     2     -10.367   5.181  66.968  1.00  0.00    -0.218 OA 
ENDBRANCH   2  19
BRANCH   4  22
HETATM   22  C   UNL     3      -8.703   9.675  67.828  1.00  0.00    -0.122 C  
HETATM   23  H   UNL     3      -4.924   9.897  66.024  1.00  0.00     0.000 HD 
HETATM   24  C   UNL     3      -6.439  11.785  67.406  1.00  0.00    -0.116 C  
HETATM   25  O   UNL     3      -8.987  11.294  68.721  1.00  0.00    -0.170 OA 
HETATM   26  O   UNL     3      -8.058  13.647  68.584  1.00  0.00    -0.139 OA 
HETATM   27  C   UNL     3      -6.695  10.314  67.018  1.00  0.00    -0.079 C  
HETATM   28  O   UNL     3      -5.600  12.629  66.965  1.00  0.00    -0.338 OA 
HETATM   29  O   UNL     3      -5.769   9.629  66.365  1.00  0.00    -0.051 OA 
HETATM   30  C   UNL     3      -7.779  12.452  68.471  1.00  0.00    -0.120 C  
ENDBRANCH   4  22
BRANCH   4  31
HETATM   31  C   UNL     3      -9.904   9.555  70.469  1.00  0.00    -0.269 C  
HETATM   32  O   UNL     3     -11.335   9.732  70.407  1.00  0.00    -0.262 OA 
HETATM   33  H   UNL     3     -11.674  10.229  71.143  1.00  0.00     0.000 HD 
ENDBRANCH   4  31
TORSDOF 4
ENDMDL
MODEL      107
REMARK 921   NORMALIZED FREE ENERGY PREDICTED BY IDOCK:   -3.06 KCAL/MOL
REMARK 922        TOTAL FREE ENERGY PREDICTED BY IDOCK:   30.55 KCAL/MOL
REMARK 923 INTER-LIGAND FREE ENERGY PREDICTED BY IDOCK:   -3.84 KCAL/MOL
REMARK 924 INTRA-LIGAND FREE ENERGY PREDICTED BY IDOCK:   34.40 KCAL/MOL
REMARK 927      BINDING AFFINITY PREDICTED BY RF-SCORE:    0.00 PKD
ROOT
HETATM    1 FE   UNL     1      -7.011   3.886  68.191  1.00  0.00    -0.043 Fe 
HETATM    2  C   UNL     2     -11.432   7.235  71.003  1.00  0.00    -0.287 C  
HETATM    3  O   UNL     2     -12.453   6.740  70.067  1.00  0.00    -0.546 OA 
HETATM    4  C   UNL     3     -10.310   5.593  68.177  1.00  0.00    -0.197 C  
HETATM    5  H   UNL     3     -11.540   6.922  68.653  1.00  0.00     0.000 HD 
HETATM    6  H   UNL     2     -12.352   7.316  69.318  1.00  0.00     0.000 HD 
HETATM    7  O   UNL     3     -11.408   6.425  67.854  1.00  0.00    -0.263 OA 
ENDROOT
BRANCH   2   8
HETATM    8  C   UNL     2     -10.044   6.946  70.439  1.00  0.00    -0.201 C  
HETATM    9  H   UNL     2      -7.363   3.477  70.165  1.00  0.00     0.000 HD 
HETATM   10  H   UNL     2      -9.428   3.380  70.026  1.00  0.00     0.000 HD 
HETATM   11  C   UNL     2      -7.791   5.353  69.851  1.00  0.00    -0.081 C  
HETATM   12  O   UNL     2      -8.593   8.205  70.617  1.00  0.00    -0.124 OA 
HETATM   13  O   UNL     2      -6.091   7.196  69.270  1.00  0.00    -0.028 OA 
HETATM   14  O   UNL     2      -9.841   4.184  70.316  1.00  0.00    -0.203 OA 
HETATM   15  C   UNL     2      -7.027   7.043  70.124  1.00  0.00    -0.065 C  
HETATM   16  H   UNL     2      -5.352   6.647  69.037  1.00  0.00     0.000 HD 
HETATM   17  O   UNL     2      -6.976   4.333  70.303  1.00  0.00    -0.036 OA 
HETATM   18  C   UNL     2      -9.212   5.329  69.855  1.00  0.00    -0.137 C  
ENDBRANCH   2   8
BRANCH   2  19
HETATM   19  C   UNL     2     -11.595   6.302  72.215  1.00  0.00    -0.309 C  
HETATM   20  H   UNL     2     -11.048   6.279  74.106  1.00  0.00     0.000 HD 
HETATM   21  O   UNL     2     -10.947   6.855  73.357  1.00  0.00    -0.282 OA 
ENDBRANCH   2  19
BRANCH   4  22
HETATM   22  C   UNL     3      -8.852   6.407  68.947  1.00  0.00    -0.125 C  
HETATM   23  H   UNL     3      -7.903  10.404  69.785  1.00  0.00     0.000 HD 
HETATM   24  C   UNL     3      -6.791   8.561  68.015  1.00  0.00    -0.070 C  
HETATM   25  O   UNL     3      -7.781   5.872  67.509  1.00  0.00    -0.095 OA 
HETATM   26  O   UNL     3      -5.613   6.650  66.454  1.00  0.00    -0.016 OA 
HETATM   27  C   UNL     3      -7.944   8.472  69.037  1.00  0.00    -0.113 C  
HETATM   28  O   UNL     3      -5.847   9.401  67.894  1.00  0.00    -0.044 OA 
HETATM   29  O   UNL     3      -8.285   9.536  69.747  1.00  0.00    -0.117 OA 
HETATM   30  C   UNL     3      -6.642   7.024  67.020  1.00  0.00    -0.055 C  
ENDBRANCH   4  22
BRANCH   4  31
HETATM   31  C   UNL     3     -10.096   4.788  66.882  1.00  0.00    -0.210 C  
HETATM   32  O   UNL     3      -9.457   3.516  67.119  1.00  0.00    -0.198 OA 
HETATM   33  H   UNL     3      -9.325   3.019  66.320  1.00  0.00     0.000 HD 
ENDBRANCH   4  31
TORSDOF 4
ENDMDL
MODEL      108
REMARK 921   NORMALIZED FREE ENERGY PREDICTED BY IDOCK:   -2.99 KCAL/MOL
REMARK 922        TOTAL FREE ENERGY PREDICTED BY IDOCK:   30.64 KCAL/MOL
REMARK 923 INTER-LIGAND FREE ENERGY PREDICTED BY IDOCK:   -4.07 KCAL/MOL
REMARK 924 INTRA-LIGAND FREE ENERGY PREDICTED BY IDOCK:   34.71 KCAL/MOL
REMARK 927      BINDING AFFINITY PREDICTED BY RF-SCORE:    0.00 PKD
ROOT
HETATM    1 FE   UNL     1      -7.629  13.645  69.755  1.00  0.00    -0.308 Fe 
HETATM    2  C   UNL     2     -10.518  12.382  64.396  1.00  0.00    -0.344 C  
HETATM    3  O   UNL     2      -9.798  13.466  63.711  1.00  0.00    -0.543 OA 
HETATM    4  C   UNL     3      -8.822  14.644  66.383  1.00  0.00    -0.078 C  
HETATM    5  H   UNL     3      -9.991  14.636  64.920  1.00  0.00     0.000 HD 
HETATM    6  H   UNL     2     -10.316  14.234  63.925  1.00  0.00     0.000 HD 
HETATM    7  O   UNL     3      -9.452  15.315  65.307  1.00  0.00    -0.139 OA 
ENDROOT
BRANCH   2   8
HETATM    8  C   UNL     2     -10.390  12.562  65.905  1.00  0.00    -0.284 C  
HETATM    9  H   UNL     2      -7.368  11.721  68.980  1.00  0.00     0.000 HD 
HETATM   10  H   UNL     2      -6.939  12.320  67.045  1.00  0.00     0.000 HD 
HETATM   11  C   UNL     2      -9.112  12.384  68.414  1.00  0.00    -0.141 C  
HETATM   12  O   UNL     2     -11.870  12.229  67.097  1.00  0.00    -0.511 OA 
HETATM   13  O   UNL     2     -11.125  12.806  69.961  1.00  0.00    -0.437 OA 
HETATM   14  O   UNL     2      -7.695  12.249  66.475  1.00  0.00     0.096 OA 
HETATM   15  C   UNL     2     -10.919  12.179  68.868  1.00  0.00    -0.224 C  
HETATM   16  H   UNL     2     -10.676  12.782  70.798  1.00  0.00     0.000 HD 
HETATM   17  O   UNL     2      -8.284  11.617  69.211  1.00  0.00     0.140 OA 
HETATM   18  C   UNL     2      -8.869  12.706  67.051  1.00  0.00    -0.212 C  
ENDBRANCH   2   8
BRANCH   2  19
HETATM   19  C   UNL     2      -9.679  11.139  64.049  1.00  0.00    -0.283 C  
HETATM   20  H   UNL     2      -8.598  10.501  62.533  1.00  0.00     0.000 HD 
HETATM   21  O   UNL     2      -9.116  11.268  62.748  1.00  0.00    -0.319 OA 
ENDBRANCH   2  19
BRANCH   4  22
HETATM   22  C   UNL     3      -9.906  13.654  67.490  1.00  0.00    -0.227 C  
HETATM   23  H   UNL     3     -14.054  13.070  67.679  1.00  0.00     0.000 HD 
HETATM   24  C   UNL     3     -12.271  14.320  69.419  1.00  0.00    -0.278 C  
HETATM   25  O   UNL     3      -9.432  14.737  68.939  1.00  0.00    -0.203 OA 
HETATM   26  O   UNL     3     -10.448  15.343  71.180  1.00  0.00    -0.014 OA 
HETATM   27  C   UNL     3     -12.086  13.587  68.073  1.00  0.00    -0.262 C  
HETATM   28  O   UNL     3     -13.234  14.312  70.246  1.00  0.00    -0.084 OA 
HETATM   29  O   UNL     3     -13.137  13.098  67.434  1.00  0.00     1.217 OA 
HETATM   30  C   UNL     3     -10.703  15.076  70.004  1.00  0.00    -0.192 C  
ENDBRANCH   4  22
BRANCH   4  31
HETATM   31  C   UNL     3      -7.949  15.745  67.011  1.00  0.00    -0.237 C  
HETATM   32  O   UNL     3      -8.571  17.046  66.952  1.00  0.00    -0.203 OA 
HETATM   33  H   UNL     3      -8.032  17.726  67.340  1.00  0.00     0.000 HD 
ENDBRANCH   4  31
TORSDOF 4
ENDMDL
MODEL      109
REMARK 921   NORMALIZED FREE ENERGY PREDICTED BY IDOCK:   -2.95 KCAL/MOL
REMARK 922        TOTAL FREE ENERGY PREDICTED BY IDOCK:   30.69 KCAL/MOL
REMARK 923 INTER-LIGAND FREE ENERGY PREDICTED BY IDOCK:   -3.74 KCAL/MOL
REMARK 924 INTRA-LIGAND FREE ENERGY PREDICTED BY IDOCK:   34.43 KCAL/MOL
REMARK 927      BINDING AFFINITY PREDICTED BY RF-SCORE:    0.00 PKD
ROOT
HETATM    1 FE   UNL     1      -9.208   7.880  65.202  1.00  0.00    -0.308 Fe 
HETATM    2  C   UNL     2      -7.782  13.219  68.052  1.00  0.00    -0.147 C  
HETATM    3  O   UNL     2      -6.766  13.532  67.035  1.00  0.00    -0.427 OA 
HETATM    4  C   UNL     3      -6.858  10.666  65.914  1.00  0.00    -0.115 C  
HETATM    5  H   UNL     3      -6.062  11.994  66.968  1.00  0.00     0.000 HD 
HETATM    6  H   UNL     2      -6.005  13.050  67.339  1.00  0.00     0.000 HD 
HETATM    7  O   UNL     3      -5.722  11.425  66.288  1.00  0.00    -0.147 OA 
ENDROOT
BRANCH   2   8
HETATM    8  C   UNL     2      -8.158  11.744  67.956  1.00  0.00    -0.145 C  
HETATM    9  H   UNL     2     -10.704   9.255  65.384  1.00  0.00     0.000 HD 
HETATM   10  H   UNL     2      -9.614  10.890  64.728  1.00  0.00     0.000 HD 
HETATM   11  C   UNL     2      -9.481   9.495  66.883  1.00  0.00    -0.158 C  
HETATM   12  O   UNL     2      -8.496  10.678  69.527  1.00  0.00    -0.104 OA 
HETATM   13  O   UNL     2      -9.121   7.818  68.802  1.00  0.00    -0.141 OA 
HETATM   14  O   UNL     2      -9.301  11.420  65.451  1.00  0.00    -0.215 OA 
HETATM   15  C   UNL     2      -9.373   9.066  68.704  1.00  0.00    -0.136 C  
HETATM   16  H   UNL     2      -9.535   7.057  68.413  1.00  0.00     0.000 HD 
HETATM   17  O   UNL     2     -10.650   9.037  66.307  1.00  0.00    -0.083 OA 
HETATM   18  C   UNL     2      -8.789  10.677  66.503  1.00  0.00    -0.151 C  
ENDBRANCH   2   8
BRANCH   2  19
HETATM   19  C   UNL     2      -9.013  13.999  67.560  1.00  0.00    -0.195 C  
HETATM   20  H   UNL     2     -10.813  14.433  68.228  1.00  0.00     0.000 HD 
HETATM   21  O   UNL     2     -10.052  13.951  68.532  1.00  0.00    -0.232 OA 
ENDBRANCH   2  19
BRANCH   4  22
HETATM   22  C   UNL     3      -7.831   9.908  67.278  1.00  0.00    -0.102 C  
HETATM   23  H   UNL     3      -7.358   9.819  71.443  1.00  0.00     0.000 HD 
HETATM   24  C   UNL     3      -7.220   7.813  69.513  1.00  0.00    -0.079 C  
HETATM   25  O   UNL     3      -7.418   8.200  66.636  1.00  0.00    -0.086 OA 
HETATM   26  O   UNL     3      -7.307   5.860  67.601  1.00  0.00    -0.075 OA 
HETATM   27  C   UNL     3      -7.514   9.326  69.436  1.00  0.00    -0.078 C  
HETATM   28  O   UNL     3      -7.239   7.010  70.495  1.00  0.00    -0.066 OA 
HETATM   29  O   UNL     3      -7.491  10.064  70.535  1.00  0.00    -0.269 OA 
HETATM   30  C   UNL     3      -7.116   7.053  67.844  1.00  0.00    -0.086 C  
ENDBRANCH   4  22
BRANCH   4  31
HETATM   31  C   UNL     3      -6.307   9.744  64.811  1.00  0.00    -0.097 C  
HETATM   32  O   UNL     3      -7.336   9.276  63.914  1.00  0.00    -0.098 OA 
HETATM   33  H   UNL     3      -6.996   8.708  63.234  1.00  0.00     0.000 HD 
ENDBRANCH   4  31
TORSDOF 4
ENDMDL
MODEL      110
REMARK 921   NORMALIZED FREE ENERGY PREDICTED BY IDOCK:   -2.95 KCAL/MOL
REMARK 922        TOTAL FREE ENERGY PREDICTED BY IDOCK:   30.69 KCAL/MOL
REMARK 923 INTER-LIGAND FREE ENERGY PREDICTED BY IDOCK:   -3.64 KCAL/MOL
REMARK 924 INTRA-LIGAND FREE ENERGY PREDICTED BY IDOCK:   34.33 KCAL/MOL
REMARK 927      BINDING AFFINITY PREDICTED BY RF-SCORE:    0.00 PKD
ROOT
HETATM    1 FE   UNL     1     -11.534   8.022  67.190  1.00  0.00    -0.486 Fe 
HETATM    2  C   UNL     2      -5.741   9.292  69.057  1.00  0.00    -0.036 C  
HETATM    3  O   UNL     2      -5.507  10.137  67.875  1.00  0.00    -0.038 OA 
HETATM    4  C   UNL     3      -8.043   9.076  66.489  1.00  0.00    -0.111 C  
HETATM    5  H   UNL     3      -6.186   9.086  66.734  1.00  0.00     0.000 HD 
HETATM    6  H   UNL     2      -5.261   9.506  67.208  1.00  0.00     0.000 HD 
HETATM    7  O   UNL     3      -6.732   9.174  65.962  1.00  0.00    -0.074 OA 
ENDROOT
BRANCH   2   8
HETATM    8  C   UNL     2      -6.976   8.428  68.826  1.00  0.00    -0.063 C  
HETATM    9  H   UNL     2     -11.332   8.958  69.025  1.00  0.00     0.000 HD 
HETATM   10  H   UNL     2     -10.000  10.413  68.395  1.00  0.00     0.000 HD 
HETATM   11  C   UNL     2      -9.741   7.876  68.712  1.00  0.00    -0.158 C  
HETATM   12  O   UNL     2      -7.052   6.590  69.406  1.00  0.00    -0.071 OA 
HETATM   13  O   UNL     2      -9.672   5.304  68.644  1.00  0.00    -0.128 OA 
HETATM   14  O   UNL     2      -9.103  10.194  68.618  1.00  0.00    -0.132 OA 
HETATM   15  C   UNL     2      -9.024   6.227  69.243  1.00  0.00    -0.125 C  
HETATM   16  H   UNL     2     -10.603   5.133  68.567  1.00  0.00     0.000 HD 
HETATM   17  O   UNL     2     -10.969   8.122  69.294  1.00  0.00    -0.111 OA 
HETATM   18  C   UNL     2      -8.780   8.869  68.377  1.00  0.00    -0.134 C  
ENDBRANCH   2   8
BRANCH   2  19
HETATM   19  C   UNL     2      -6.139  10.313  70.136  1.00  0.00    -0.088 C  
HETATM   20  H   UNL     2      -6.970  10.283  71.920  1.00  0.00     0.000 HD 
HETATM   21  O   UNL     2      -6.724   9.652  71.253  1.00  0.00    -0.293 OA 
ENDBRANCH   2  19
BRANCH   4  22
HETATM   22  C   UNL     3      -8.372   7.675  67.633  1.00  0.00    -0.118 C  
HETATM   23  H   UNL     3      -6.072   4.414  68.921  1.00  0.00     0.000 HD 
HETATM   24  C   UNL     3      -8.373   4.564  67.355  1.00  0.00    -0.104 C  
HETATM   25  O   UNL     3      -9.670   7.010  66.462  1.00  0.00    -0.177 OA 
HETATM   26  O   UNL     3     -10.742   4.760  66.005  1.00  0.00    -0.319 OA 
HETATM   27  C   UNL     3      -7.515   5.632  68.066  1.00  0.00    -0.074 C  
HETATM   28  O   UNL     3      -8.439   3.306  67.516  1.00  0.00    -0.085 OA 
HETATM   29  O   UNL     3      -6.433   5.273  68.739  1.00  0.00    -0.036 OA 
HETATM   30  C   UNL     3      -9.695   5.323  66.331  1.00  0.00    -0.169 C  
ENDBRANCH   4  22
BRANCH   4  31
HETATM   31  C   UNL     3      -8.928   9.218  65.237  1.00  0.00    -0.213 C  
HETATM   32  O   UNL     3     -10.272   9.636  65.552  1.00  0.00    -0.291 OA 
HETATM   33  H   UNL     3     -10.818   9.723  64.780  1.00  0.00     0.000 HD 
ENDBRANCH   4  31
TORSDOF 4
ENDMDL
MODEL      111
REMARK 921   NORMALIZED FREE ENERGY PREDICTED BY IDOCK:   -2.94 KCAL/MOL
REMARK 922        TOTAL FREE ENERGY PREDICTED BY IDOCK:   30.70 KCAL/MOL
REMARK 923 INTER-LIGAND FREE ENERGY PREDICTED BY IDOCK:   -4.13 KCAL/MOL
REMARK 924 INTRA-LIGAND FREE ENERGY PREDICTED BY IDOCK:   34.83 KCAL/MOL
REMARK 927      BINDING AFFINITY PREDICTED BY RF-SCORE:    0.00 PKD
ROOT
HETATM    1 FE   UNL     1     -10.265  10.096  71.249  1.00  0.00    -0.250 Fe 
HETATM    2  C   UNL     2      -8.720   5.517  67.336  1.00  0.00    -0.107 C  
HETATM    3  O   UNL     2     -10.033   4.877  67.510  1.00  0.00    -0.170 OA 
HETATM    4  C   UNL     3     -10.685   6.644  69.945  1.00  0.00    -0.250 C  
HETATM    5  H   UNL     3     -10.113   5.027  69.194  1.00  0.00     0.000 HD 
HETATM    6  H   UNL     2      -9.919   4.371  68.306  1.00  0.00     0.000 HD 
HETATM    7  O   UNL     3     -10.785   5.236  69.832  1.00  0.00    -0.291 OA 
ENDROOT
BRANCH   2   8
HETATM    8  C   UNL     2      -8.501   6.537  68.450  1.00  0.00    -0.120 C  
HETATM    9  H   UNL     2      -9.913  10.586  69.400  1.00  0.00     0.000 HD 
HETATM   10  H   UNL     2     -11.063   9.126  68.485  1.00  0.00     0.000 HD 
HETATM   11  C   UNL     2      -8.848   8.998  69.784  1.00  0.00    -0.153 C  
HETATM   12  O   UNL     2      -6.762   6.829  69.231  1.00  0.00    -0.049 OA 
HETATM   13  O   UNL     2      -6.880   8.882  71.437  1.00  0.00    -0.081 OA 
HETATM   14  O   UNL     2     -10.534   8.401  68.174  1.00  0.00    -0.212 OA 
HETATM   15  C   UNL     2      -7.081   8.551  70.221  1.00  0.00    -0.043 C  
HETATM   16  H   UNL     2      -7.031   9.695  71.904  1.00  0.00     0.000 HD 
HETATM   17  O   UNL     2      -9.018  10.360  69.622  1.00  0.00    -0.153 OA 
HETATM   18  C   UNL     2      -9.564   7.994  69.076  1.00  0.00    -0.156 C  
ENDBRANCH   2   8
BRANCH   2  19
HETATM   19  C   UNL     2      -8.904   6.337  66.047  1.00  0.00    -0.151 C  
HETATM   20  H   UNL     2      -8.453   8.142  65.404  1.00  0.00     0.000 HD 
HETATM   21  O   UNL     2      -8.339   7.636  66.200  1.00  0.00    -0.119 OA 
ENDBRANCH   2  19
BRANCH   4  22
HETATM   22  C   UNL     3      -9.001   7.337  70.195  1.00  0.00    -0.148 C  
HETATM   23  H   UNL     3      -5.218   5.595  70.676  1.00  0.00     0.000 HD 
HETATM   24  C   UNL     3      -6.821   7.068  72.416  1.00  0.00    -0.061 C  
HETATM   25  O   UNL     3      -9.516   8.014  71.862  1.00  0.00    -0.157 OA 
HETATM   26  O   UNL     3      -8.344   8.694  74.002  1.00  0.00    -0.325 OA 
HETATM   27  C   UNL     3      -6.994   6.627  70.947  1.00  0.00    -0.067 C  
HETATM   28  O   UNL     3      -5.788   7.131  73.150  1.00  0.00    -0.048 OA 
HETATM   29  O   UNL     3      -6.062   5.894  70.360  1.00  0.00    -0.027 OA 
HETATM   30  C   UNL     3      -8.327   7.899  73.061  1.00  0.00    -0.165 C  
ENDBRANCH   4  22
BRANCH   4  31
HETATM   31  C   UNL     3     -11.774   6.983  70.979  1.00  0.00    -0.333 C  
HETATM   32  O   UNL     3     -12.442   8.230  70.693  1.00  0.00    -0.490 OA 
HETATM   33  H   UNL     3     -13.114   8.439  71.331  1.00  0.00     0.000 HD 
ENDBRANCH   4  31
TORSDOF 4
ENDMDL
MODEL      112
REMARK 921   NORMALIZED FREE ENERGY PREDICTED BY IDOCK:   -2.93 KCAL/MOL
REMARK 922        TOTAL FREE ENERGY PREDICTED BY IDOCK:   30.71 KCAL/MOL
REMARK 923 INTER-LIGAND FREE ENERGY PREDICTED BY IDOCK:   -3.94 KCAL/MOL
REMARK 924 INTRA-LIGAND FREE ENERGY PREDICTED BY IDOCK:   34.65 KCAL/MOL
REMARK 927      BINDING AFFINITY PREDICTED BY RF-SCORE:    0.00 PKD
ROOT
HETATM    1 FE   UNL     1      -9.043   4.831  72.133  1.00  0.00    -0.115 Fe 
HETATM    2  C   UNL     2      -7.875   7.383  66.584  1.00  0.00    -0.109 C  
HETATM    3  O   UNL     2      -6.500   7.716  66.987  1.00  0.00    -0.051 OA 
HETATM    4  C   UNL     3      -7.117   7.134  69.946  1.00  0.00    -0.073 C  
HETATM    5  H   UNL     3      -6.877   8.324  68.521  1.00  0.00     0.000 HD 
HETATM    6  H   UNL     2      -6.608   8.536  67.453  1.00  0.00     0.000 HD 
HETATM    7  O   UNL     3      -6.495   8.277  69.389  1.00  0.00    -0.037 OA 
ENDROOT
BRANCH   2   8
HETATM    8  C   UNL     2      -8.701   7.051  67.823  1.00  0.00    -0.121 C  
HETATM    9  H   UNL     2      -9.229   3.594  70.482  1.00  0.00     0.000 HD 
HETATM   10  H   UNL     2      -7.437   4.128  69.592  1.00  0.00     0.000 HD 
HETATM   11  C   UNL     2      -9.633   5.420  69.928  1.00  0.00    -0.168 C  
HETATM   12  O   UNL     2     -10.533   7.625  68.007  1.00  0.00    -0.204 OA 
HETATM   13  O   UNL     2     -11.687   6.785  70.664  1.00  0.00    -0.349 OA 
HETATM   14  O   UNL     2      -7.560   4.763  68.897  1.00  0.00    -0.067 OA 
HETATM   15  C   UNL     2     -11.128   6.487  69.555  1.00  0.00    -0.365 C  
HETATM   16  H   UNL     2     -11.968   6.247  71.395  1.00  0.00     0.000 HD 
HETATM   17  O   UNL     2      -9.987   4.135  70.293  1.00  0.00    -0.201 OA 
HETATM   18  C   UNL     2      -8.451   5.774  69.221  1.00  0.00    -0.108 C  
ENDBRANCH   2   8
BRANCH   2  19
HETATM   19  C   UNL     2      -7.701   6.054  65.829  1.00  0.00    -0.097 C  
HETATM   20  H   UNL     2      -7.866   5.411  63.975  1.00  0.00     0.000 HD 
HETATM   21  O   UNL     2      -7.974   6.232  64.442  1.00  0.00    -0.114 OA 
ENDBRANCH   2  19
BRANCH   4  22
HETATM   22  C   UNL     3      -8.946   7.029  69.793  1.00  0.00    -0.141 C  
HETATM   23  H   UNL     3     -11.866   9.672  68.354  1.00  0.00     0.000 HD 
HETATM   24  C   UNL     3     -11.344   8.690  70.909  1.00  0.00    -0.272 C  
HETATM   25  O   UNL     3      -9.110   6.982  71.656  1.00  0.00    -0.139 OA 
HETATM   26  O   UNL     3     -10.914   7.531  73.348  1.00  0.00    -0.380 OA 
HETATM   27  C   UNL     3     -10.687   8.443  69.535  1.00  0.00    -0.175 C  
HETATM   28  O   UNL     3     -12.474   9.181  71.216  1.00  0.00    -0.308 OA 
HETATM   29  O   UNL     3     -11.134   9.077  68.462  1.00  0.00     0.016 OA 
HETATM   30  C   UNL     3     -10.426   7.855  72.264  1.00  0.00    -0.262 C  
ENDBRANCH   4  22
BRANCH   4  31
HETATM   31  C   UNL     3      -6.498   7.058  71.354  1.00  0.00    -0.041 C  
HETATM   32  O   UNL     3      -6.530   8.325  72.043  1.00  0.00    -0.055 OA 
HETATM   33  H   UNL     3      -6.148   8.278  72.911  1.00  0.00     0.000 HD 
ENDBRANCH   4  31
TORSDOF 4
ENDMDL
MODEL      113
REMARK 921   NORMALIZED FREE ENERGY PREDICTED BY IDOCK:   -2.93 KCAL/MOL
REMARK 922        TOTAL FREE ENERGY PREDICTED BY IDOCK:   30.71 KCAL/MOL
REMARK 923 INTER-LIGAND FREE ENERGY PREDICTED BY IDOCK:   -3.93 KCAL/MOL
REMARK 924 INTRA-LIGAND FREE ENERGY PREDICTED BY IDOCK:   34.65 KCAL/MOL
REMARK 927      BINDING AFFINITY PREDICTED BY RF-SCORE:    0.00 PKD
ROOT
HETATM    1 FE   UNL     1      -7.433   3.597  70.722  1.00  0.00    -0.036 Fe 
HETATM    2  C   UNL     2      -9.858   8.662  68.054  1.00  0.00    -0.169 C  
HETATM    3  O   UNL     2      -8.517   9.189  67.753  1.00  0.00    -0.116 OA 
HETATM    4  C   UNL     3      -7.180   7.132  69.612  1.00  0.00    -0.076 C  
HETATM    5  H   UNL     3      -7.823   8.855  69.260  1.00  0.00     0.000 HD 
HETATM    6  H   UNL     2      -8.269   9.614  68.566  1.00  0.00     0.000 HD 
HETATM    7  O   UNL     3      -6.986   8.534  69.573  1.00  0.00    -0.047 OA 
ENDROOT
BRANCH   2   8
HETATM    8  C   UNL     2      -9.744   7.547  69.088  1.00  0.00    -0.166 C  
HETATM    9  H   UNL     2      -8.642   3.294  69.096  1.00  0.00     0.000 HD 
HETATM   10  H   UNL     2      -7.774   4.730  67.882  1.00  0.00     0.000 HD 
HETATM   11  C   UNL     2      -9.229   4.924  69.992  1.00  0.00    -0.127 C  
HETATM   12  O   UNL     2     -11.038   7.338  70.503  1.00  0.00    -0.254 OA 
HETATM   13  O   UNL     2     -10.320   5.041  72.319  1.00  0.00    -0.197 OA 
HETATM   14  O   UNL     2      -8.277   5.535  67.867  1.00  0.00    -0.100 OA 
HETATM   15  C   UNL     2     -10.586   5.490  71.154  1.00  0.00    -0.233 C  
HETATM   16  H   UNL     2     -10.106   4.168  72.627  1.00  0.00     0.000 HD 
HETATM   17  O   UNL     2      -9.330   3.581  69.685  1.00  0.00    -0.146 OA 
HETATM   18  C   UNL     2      -8.731   5.928  69.116  1.00  0.00    -0.118 C  
ENDBRANCH   2   8
BRANCH   2  19
HETATM   19  C   UNL     2     -10.260   7.975  66.738  1.00  0.00    -0.297 C  
HETATM   20  H   UNL     2     -11.354   6.434  66.186  1.00  0.00     0.000 HD 
HETATM   21  O   UNL     2     -11.105   6.859  66.999  1.00  0.00    -0.389 OA 
ENDBRANCH   2  19
BRANCH   4  22
HETATM   22  C   UNL     3      -8.707   6.531  70.442  1.00  0.00    -0.147 C  
HETATM   23  H   UNL     3     -11.741   8.445  72.613  1.00  0.00     0.000 HD 
HETATM   24  C   UNL     3      -9.792   6.603  73.370  1.00  0.00    -0.195 C  
HETATM   25  O   UNL     3      -7.675   5.564  71.666  1.00  0.00    -0.101 OA 
HETATM   26  O   UNL     3      -7.995   4.642  74.003  1.00  0.00    -0.099 OA 
HETATM   27  C   UNL     3     -10.150   7.258  72.019  1.00  0.00    -0.184 C  
HETATM   28  O   UNL     3     -10.454   6.501  74.448  1.00  0.00    -0.313 OA 
HETATM   29  O   UNL     3     -11.134   8.140  71.949  1.00  0.00    -0.253 OA 
HETATM   30  C   UNL     3      -8.275   5.575  73.248  1.00  0.00    -0.114 C  
ENDBRANCH   4  22
BRANCH   4  31
HETATM   31  C   UNL     3      -5.823   6.611  70.118  1.00  0.00    -0.023 C  
HETATM   32  O   UNL     3      -5.443   7.191  71.384  1.00  0.00    -0.031 OA 
HETATM   33  H   UNL     3      -4.605   6.870  71.696  1.00  0.00     0.000 HD 
ENDBRANCH   4  31
TORSDOF 4
ENDMDL
MODEL      114
REMARK 921   NORMALIZED FREE ENERGY PREDICTED BY IDOCK:   -2.90 KCAL/MOL
REMARK 922        TOTAL FREE ENERGY PREDICTED BY IDOCK:   30.75 KCAL/MOL
REMARK 923 INTER-LIGAND FREE ENERGY PREDICTED BY IDOCK:   -4.00 KCAL/MOL
REMARK 924 INTRA-LIGAND FREE ENERGY PREDICTED BY IDOCK:   34.75 KCAL/MOL
REMARK 927      BINDING AFFINITY PREDICTED BY RF-SCORE:    0.00 PKD
ROOT
HETATM    1 FE   UNL     1      -8.694   6.142  73.604  1.00  0.00    -0.120 Fe 
HETATM    2  C   UNL     2      -9.707   7.574  67.639  1.00  0.00    -0.147 C  
HETATM    3  O   UNL     2     -10.955   8.274  67.982  1.00  0.00    -0.466 OA 
HETATM    4  C   UNL     3     -10.965   7.080  70.819  1.00  0.00    -0.255 C  
HETATM    5  H   UNL     3     -11.561   7.104  69.044  1.00  0.00     0.000 HD 
HETATM    6  H   UNL     2     -11.590   7.569  68.024  1.00  0.00     0.000 HD 
HETATM    7  O   UNL     3     -12.020   7.106  69.876  1.00  0.00    -0.005 OA 
ENDROOT
BRANCH   2   8
HETATM    8  C   UNL     2      -9.278   6.699  68.812  1.00  0.00    -0.129 C  
HETATM    9  H   UNL     2      -7.329   7.297  72.703  1.00  0.00     0.000 HD 
HETATM   10  H   UNL     2      -8.649   8.634  71.833  1.00  0.00     0.000 HD 
HETATM   11  C   UNL     2      -8.139   6.164  71.337  1.00  0.00    -0.118 C  
HETATM   12  O   UNL     2      -8.483   4.961  68.545  1.00  0.00    -0.094 OA 
HETATM   13  O   UNL     2      -7.890   3.608  71.174  1.00  0.00    -0.057 OA 
HETATM   14  O   UNL     2      -8.799   8.440  70.915  1.00  0.00    -0.139 OA 
HETATM   15  C   UNL     2      -7.749   4.600  70.382  1.00  0.00    -0.054 C  
HETATM   16  H   UNL     2      -7.543   3.438  72.041  1.00  0.00     0.000 HD 
HETATM   17  O   UNL     2      -7.130   6.503  72.219  1.00  0.00    -0.075 OA 
HETATM   18  C   UNL     2      -8.977   7.090  70.656  1.00  0.00    -0.154 C  
ENDBRANCH   2   8
BRANCH   2  19
HETATM   19  C   UNL     2      -8.679   8.717  67.570  1.00  0.00    -0.135 C  
HETATM   20  H   UNL     2      -8.691  10.682  67.677  1.00  0.00     0.000 HD 
HETATM   21  O   UNL     2      -9.326   9.976  67.720  1.00  0.00    -0.140 OA 
ENDBRANCH   2  19
BRANCH   4  22
HETATM   22  C   UNL     3      -9.649   5.823  70.554  1.00  0.00    -0.214 C  
HETATM   23  H   UNL     3      -9.180   2.688  67.811  1.00  0.00     0.000 HD 
HETATM   24  C   UNL     3      -9.555   2.701  70.572  1.00  0.00    -0.079 C  
HETATM   25  O   UNL     3     -10.034   5.054  72.215  1.00  0.00    -0.170 OA 
HETATM   26  O   UNL     3      -9.713   2.787  73.300  1.00  0.00    -0.095 OA 
HETATM   27  C   UNL     3      -9.426   3.827  69.524  1.00  0.00    -0.187 C  
HETATM   28  O   UNL     3      -9.245   1.472  70.516  1.00  0.00    -0.074 OA 
HETATM   29  O   UNL     3      -9.274   3.527  68.244  1.00  0.00    -0.140 OA 
HETATM   30  C   UNL     3      -9.955   3.364  72.238  1.00  0.00    -0.163 C  
ENDBRANCH   4  22
BRANCH   4  31
HETATM   31  C   UNL     3     -11.709   7.083  72.167  1.00  0.00    -0.283 C  
HETATM   32  O   UNL     3     -12.988   6.418  72.096  1.00  0.00    -0.512 OA 
HETATM   33  H   UNL     3     -13.447   6.420  72.927  1.00  0.00     0.000 HD 
ENDBRANCH   4  31
TORSDOF 4
ENDMDL
MODEL      115
REMARK 921   NORMALIZED FREE ENERGY PREDICTED BY IDOCK:   -2.88 KCAL/MOL
REMARK 922        TOTAL FREE ENERGY PREDICTED BY IDOCK:   30.77 KCAL/MOL
REMARK 923 INTER-LIGAND FREE ENERGY PREDICTED BY IDOCK:   -3.67 KCAL/MOL
REMARK 924 INTRA-LIGAND FREE ENERGY PREDICTED BY IDOCK:   34.44 KCAL/MOL
REMARK 927      BINDING AFFINITY PREDICTED BY RF-SCORE:    0.00 PKD
ROOT
HETATM    1 FE   UNL     1     -11.599   5.648  69.830  1.00  0.00    -0.341 Fe 
HETATM    2  C   UNL     2      -6.809   9.350  68.410  1.00  0.00    -0.063 C  
HETATM    3  O   UNL     2      -7.228   9.412  67.001  1.00  0.00    -0.085 OA 
HETATM    4  C   UNL     3      -9.203   7.081  67.380  1.00  0.00    -0.126 C  
HETATM    5  H   UNL     3      -7.554   7.762  66.811  1.00  0.00     0.000 HD 
HETATM    6  H   UNL     2      -6.855   8.620  66.633  1.00  0.00     0.000 HD 
HETATM    7  O   UNL     3      -8.218   7.241  66.376  1.00  0.00    -0.110 OA 
ENDROOT
BRANCH   2   8
HETATM    8  C   UNL     2      -7.524   8.193  69.102  1.00  0.00    -0.087 C  
HETATM    9  H   UNL     2     -11.533   7.422  70.722  1.00  0.00     0.000 HD 
HETATM   10  H   UNL     2     -11.147   8.560  69.035  1.00  0.00     0.000 HD 
HETATM   11  C   UNL     2      -9.696   6.889  70.342  1.00  0.00    -0.172 C  
HETATM   12  O   UNL     2      -6.645   7.107  70.431  1.00  0.00    -0.045 OA 
HETATM   13  O   UNL     2      -8.457   4.913  71.430  1.00  0.00    -0.112 OA 
HETATM   14  O   UNL     2     -10.228   8.788  68.963  1.00  0.00    -0.197 OA 
HETATM   15  C   UNL     2      -8.222   6.153  71.236  1.00  0.00    -0.123 C  
HETATM   16  H   UNL     2      -9.203   4.462  71.810  1.00  0.00     0.000 HD 
HETATM   17  O   UNL     2     -10.786   7.049  71.176  1.00  0.00    -0.232 OA 
HETATM   18  C   UNL     2      -9.372   7.736  69.247  1.00  0.00    -0.148 C  
ENDBRANCH   2   8
BRANCH   2  19
HETATM   19  C   UNL     2      -7.414  10.633  69.006  1.00  0.00    -0.117 C  
HETATM   20  H   UNL     2      -7.455  11.536  70.755  1.00  0.00     0.000 HD 
HETATM   21  O   UNL     2      -7.081  10.743  70.387  1.00  0.00    -0.202 OA 
ENDBRANCH   2  19
BRANCH   4  22
HETATM   22  C   UNL     3      -8.617   6.538  69.036  1.00  0.00    -0.125 C  
HETATM   23  H   UNL     3      -4.854   5.461  70.542  1.00  0.00     0.000 HD 
HETATM   24  C   UNL     3      -7.185   3.988  70.133  1.00  0.00    -0.042 C  
HETATM   25  O   UNL     3      -9.626   4.969  68.890  1.00  0.00    -0.130 OA 
HETATM   26  O   UNL     3      -9.558   2.650  69.907  1.00  0.00    -0.111 OA 
HETATM   27  C   UNL     3      -6.828   5.473  69.911  1.00  0.00    -0.060 C  
HETATM   28  O   UNL     3      -6.614   3.089  70.825  1.00  0.00    -0.030 OA 
HETATM   29  O   UNL     3      -5.606   5.909  70.174  1.00  0.00    -0.012 OA 
HETATM   30  C   UNL     3      -8.866   3.590  69.511  1.00  0.00    -0.090 C  
ENDBRANCH   4  22
BRANCH   4  31
HETATM   31  C   UNL     3     -10.279   6.236  66.675  1.00  0.00    -0.164 C  
HETATM   32  O   UNL     3     -11.603   6.474  67.198  1.00  0.00    -0.743 OA 
HETATM   33  H   UNL     3     -12.267   5.952  66.763  1.00  0.00     0.000 HD 
ENDBRANCH   4  31
TORSDOF 4
ENDMDL
MODEL      116
REMARK 921   NORMALIZED FREE ENERGY PREDICTED BY IDOCK:   -2.85 KCAL/MOL
REMARK 922        TOTAL FREE ENERGY PREDICTED BY IDOCK:   30.81 KCAL/MOL
REMARK 923 INTER-LIGAND FREE ENERGY PREDICTED BY IDOCK:   -3.62 KCAL/MOL
REMARK 924 INTRA-LIGAND FREE ENERGY PREDICTED BY IDOCK:   34.43 KCAL/MOL
REMARK 927      BINDING AFFINITY PREDICTED BY RF-SCORE:    0.00 PKD
ROOT
HETATM    1 FE   UNL     1      -5.788   7.818  69.112  1.00  0.00    -0.024 Fe 
HETATM    2  C   UNL     2     -10.135   4.441  66.221  1.00  0.00    -0.225 C  
HETATM    3  O   UNL     2      -9.942   5.195  64.972  1.00  0.00    -0.364 OA 
HETATM    4  C   UNL     3      -8.303   7.364  66.417  1.00  0.00    -0.127 C  
HETATM    5  H   UNL     3      -9.901   6.738  65.669  1.00  0.00     0.000 HD 
HETATM    6  H   UNL     2     -10.483   5.965  65.103  1.00  0.00     0.000 HD 
HETATM    7  O   UNL     3      -9.400   7.535  65.539  1.00  0.00     0.173 OA 
ENDROOT
BRANCH   2   8
HETATM    8  C   UNL     2      -9.500   5.205  67.378  1.00  0.00    -0.144 C  
HETATM    9  H   UNL     2      -5.461   5.751  69.017  1.00  0.00     0.000 HD 
HETATM   10  H   UNL     2      -5.894   5.554  67.001  1.00  0.00     0.000 HD 
HETATM   11  C   UNL     2      -7.384   6.074  69.029  1.00  0.00    -0.085 C  
HETATM   12  O   UNL     2     -10.347   5.316  69.108  1.00  0.00    -0.220 OA 
HETATM   13  O   UNL     2      -8.731   6.999  71.018  1.00  0.00    -0.137 OA 
HETATM   14  O   UNL     2      -6.778   5.238  66.856  1.00  0.00    -0.058 OA 
HETATM   15  C   UNL     2      -8.823   6.000  70.228  1.00  0.00    -0.144 C  
HETATM   16  H   UNL     2      -8.011   7.322  71.546  1.00  0.00     0.000 HD 
HETATM   17  O   UNL     2      -6.191   5.713  69.624  1.00  0.00    -0.026 OA 
HETATM   18  C   UNL     2      -7.723   5.842  67.668  1.00  0.00    -0.097 C  
ENDBRANCH   2   8
BRANCH   2  19
HETATM   19  C   UNL     2      -9.258   3.195  66.009  1.00  0.00    -0.134 C  
HETATM   20  H   UNL     2      -7.990   2.530  64.659  1.00  0.00     0.000 HD 
HETATM   21  O   UNL     2      -8.532   3.300  64.789  1.00  0.00    -0.096 OA 
ENDBRANCH   2  19
BRANCH   4  22
HETATM   22  C   UNL     3      -8.691   6.850  68.139  1.00  0.00    -0.126 C  
HETATM   23  H   UNL     3     -12.281   6.336  70.244  1.00  0.00     0.000 HD 
HETATM   24  C   UNL     3     -10.199   8.165  70.538  1.00  0.00    -0.198 C  
HETATM   25  O   UNL     3      -7.880   8.402  68.797  1.00  0.00    -0.110 OA 
HETATM   26  O   UNL     3      -8.033   9.792  70.909  1.00  0.00    -0.279 OA 
HETATM   27  C   UNL     3     -10.431   6.984  69.572  1.00  0.00    -0.220 C  
HETATM   28  O   UNL     3     -10.750   8.457  71.644  1.00  0.00    -0.231 OA 
HETATM   29  O   UNL     3     -11.550   6.280  69.641  1.00  0.00    -0.430 OA 
HETATM   30  C   UNL     3      -8.676   9.101  70.116  1.00  0.00    -0.181 C  
ENDBRANCH   4  22
BRANCH   4  31
HETATM   31  C   UNL     3      -7.492   8.656  66.208  1.00  0.00    -0.090 C  
HETATM   32  O   UNL     3      -6.075   8.459  66.400  1.00  0.00    -0.050 OA 
HETATM   33  H   UNL     3      -5.575   9.256  66.271  1.00  0.00     0.000 HD 
ENDBRANCH   4  31
TORSDOF 4
ENDMDL
MODEL      117
REMARK 921   NORMALIZED FREE ENERGY PREDICTED BY IDOCK:   -2.85 KCAL/MOL
REMARK 922        TOTAL FREE ENERGY PREDICTED BY IDOCK:   30.81 KCAL/MOL
REMARK 923 INTER-LIGAND FREE ENERGY PREDICTED BY IDOCK:   -4.01 KCAL/MOL
REMARK 924 INTRA-LIGAND FREE ENERGY PREDICTED BY IDOCK:   34.82 KCAL/MOL
REMARK 927      BINDING AFFINITY PREDICTED BY RF-SCORE:    0.00 PKD
ROOT
HETATM    1 FE   UNL     1      -6.758   3.406  68.989  1.00  0.00    -0.032 Fe 
HETATM    2  C   UNL     2     -10.377   8.178  70.661  1.00  0.00    -0.199 C  
HETATM    3  O   UNL     2     -10.823   7.464  71.867  1.00  0.00    -0.224 OA 
HETATM    4  C   UNL     3      -9.653   4.804  70.848  1.00  0.00    -0.177 C  
HETATM    5  H   UNL     3     -11.096   5.965  71.128  1.00  0.00     0.000 HD 
HETATM    6  H   UNL     2     -11.527   6.914  71.540  1.00  0.00     0.000 HD 
HETATM    7  O   UNL     3     -10.952   5.054  71.354  1.00  0.00    -0.028 OA 
ENDROOT
BRANCH   2   8
HETATM    8  C   UNL     2      -9.722   7.191  69.700  1.00  0.00    -0.158 C  
HETATM    9  H   UNL     2      -5.812   5.228  69.306  1.00  0.00     0.000 HD 
HETATM   10  H   UNL     2      -6.736   5.653  71.110  1.00  0.00     0.000 HD 
HETATM   11  C   UNL     2      -7.633   5.578  68.702  1.00  0.00    -0.080 C  
HETATM   12  O   UNL     2      -9.997   7.296  67.793  1.00  0.00    -0.152 OA 
HETATM   13  O   UNL     2      -8.551   5.077  66.351  1.00  0.00    -0.111 OA 
HETATM   14  O   UNL     2      -7.460   6.258  71.004  1.00  0.00    -0.082 OA 
HETATM   15  C   UNL     2      -8.533   6.083  67.137  1.00  0.00    -0.104 C  
HETATM   16  H   UNL     2      -7.860   4.504  66.042  1.00  0.00     0.000 HD 
HETATM   17  O   UNL     2      -6.268   5.483  68.512  1.00  0.00    -0.027 OA 
HETATM   18  C   UNL     2      -8.265   5.974  69.913  1.00  0.00    -0.118 C  
ENDBRANCH   2   8
BRANCH   2  19
HETATM   19  C   UNL     2      -9.238   9.067  71.190  1.00  0.00    -0.256 C  
HETATM   20  H   UNL     2      -8.229   9.282  72.866  1.00  0.00     0.000 HD 
HETATM   21  O   UNL     2      -8.932   8.732  72.539  1.00  0.00    -0.386 OA 
ENDBRANCH   2  19
BRANCH   4  22
HETATM   22  C   UNL     3      -9.322   5.336  69.120  1.00  0.00    -0.166 C  
HETATM   23  H   UNL     3     -11.741   6.932  66.090  1.00  0.00     0.000 HD 
HETATM   24  C   UNL     3     -10.409   4.494  66.315  1.00  0.00    -0.191 C  
HETATM   25  O   UNL     3      -8.927   3.571  68.642  1.00  0.00    -0.106 OA 
HETATM   26  O   UNL     3      -8.912   2.214  66.502  1.00  0.00    -0.128 OA 
HETATM   27  C   UNL     3     -10.502   5.730  67.235  1.00  0.00    -0.266 C  
HETATM   28  O   UNL     3     -10.676   4.353  65.082  1.00  0.00    -0.255 OA 
HETATM   29  O   UNL     3     -11.245   6.766  66.882  1.00  0.00    -0.375 OA 
HETATM   30  C   UNL     3      -9.487   3.119  67.110  1.00  0.00    -0.109 C  
ENDBRANCH   4  22
BRANCH   4  31
HETATM   31  C   UNL     3      -9.420   3.327  71.214  1.00  0.00    -0.152 C  
HETATM   32  O   UNL     3     -10.367   2.841  72.189  1.00  0.00    -0.130 OA 
HETATM   33  H   UNL     3     -10.223   1.930  72.415  1.00  0.00     0.000 HD 
ENDBRANCH   4  31
TORSDOF 4
ENDMDL
MODEL      118
REMARK 921   NORMALIZED FREE ENERGY PREDICTED BY IDOCK:   -2.84 KCAL/MOL
REMARK 922        TOTAL FREE ENERGY PREDICTED BY IDOCK:   30.83 KCAL/MOL
REMARK 923 INTER-LIGAND FREE ENERGY PREDICTED BY IDOCK:   -3.79 KCAL/MOL
REMARK 924 INTRA-LIGAND FREE ENERGY PREDICTED BY IDOCK:   34.62 KCAL/MOL
REMARK 927      BINDING AFFINITY PREDICTED BY RF-SCORE:    0.00 PKD
ROOT
HETATM    1 FE   UNL     1      -9.140   3.534  69.655  1.00  0.00    -0.071 Fe 
HETATM    2  C   UNL     2      -7.139   9.333  70.670  1.00  0.00    -0.111 C  
HETATM    3  O   UNL     2      -8.345   9.651  71.450  1.00  0.00    -0.243 OA 
HETATM    4  C   UNL     3      -9.769   7.100  70.478  1.00  0.00    -0.176 C  
HETATM    5  H   UNL     3      -9.464   8.946  70.393  1.00  0.00     0.000 HD 
HETATM    6  H   UNL     2      -8.978   9.879  70.779  1.00  0.00     0.000 HD 
HETATM    7  O   UNL     3     -10.257   8.429  70.480  1.00  0.00    -0.191 OA 
ENDROOT
BRANCH   2   8
HETATM    8  C   UNL     2      -7.375   8.056  69.868  1.00  0.00    -0.066 C  
HETATM    9  H   UNL     2      -7.339   3.735  70.654  1.00  0.00     0.000 HD 
HETATM   10  H   UNL     2      -7.983   5.169  72.003  1.00  0.00     0.000 HD 
HETATM   11  C   UNL     2      -7.556   5.269  69.470  1.00  0.00    -0.069 C  
HETATM   12  O   UNL     2      -6.724   7.856  68.063  1.00  0.00    -0.063 OA 
HETATM   13  O   UNL     2      -7.519   5.190  66.899  1.00  0.00    -0.085 OA 
HETATM   14  O   UNL     2      -7.723   6.044  71.743  1.00  0.00    -0.098 OA 
HETATM   15  C   UNL     2      -6.937   5.873  67.808  1.00  0.00    -0.069 C  
HETATM   16  H   UNL     2      -7.619   4.254  66.778  1.00  0.00     0.000 HD 
HETATM   17  O   UNL     2      -7.025   4.040  69.811  1.00  0.00    -0.041 OA 
HETATM   18  C   UNL     2      -7.899   6.297  70.392  1.00  0.00    -0.107 C  
ENDBRANCH   2   8
BRANCH   2  19
HETATM   19  C   UNL     2      -6.114   8.963  71.756  1.00  0.00    -0.073 C  
HETATM   20  H   UNL     2      -6.094   8.746  73.712  1.00  0.00     0.000 HD 
HETATM   21  O   UNL     2      -6.727   8.974  73.041  1.00  0.00    -0.324 OA 
ENDBRANCH   2  19
BRANCH   4  22
HETATM   22  C   UNL     3      -8.582   6.656  69.147  1.00  0.00    -0.130 C  
HETATM   23  H   UNL     3      -7.066   8.734  65.835  1.00  0.00     0.000 HD 
HETATM   24  C   UNL     3      -8.728   6.505  66.031  1.00  0.00    -0.148 C  
HETATM   25  O   UNL     3      -9.775   5.370  68.497  1.00  0.00    -0.123 OA 
HETATM   26  O   UNL     3     -10.180   4.202  66.285  1.00  0.00    -0.178 OA 
HETATM   27  C   UNL     3      -8.029   7.389  67.085  1.00  0.00    -0.114 C  
HETATM   28  O   UNL     3      -8.517   6.368  64.786  1.00  0.00    -0.082 OA 
HETATM   29  O   UNL     3      -7.299   8.425  66.703  1.00  0.00    -0.080 OA 
HETATM   30  C   UNL     3      -9.836   5.264  66.809  1.00  0.00    -0.176 C  
ENDBRANCH   4  22
BRANCH   4  31
HETATM   31  C   UNL     3     -11.054   6.263  70.618  1.00  0.00    -0.327 C  
HETATM   32  O   UNL     3     -12.133   6.761  69.799  1.00  0.00    -0.648 OA 
HETATM   33  H   UNL     3     -12.925   6.245  69.886  1.00  0.00     0.000 HD 
ENDBRANCH   4  31
TORSDOF 4
ENDMDL
MODEL      119
REMARK 921   NORMALIZED FREE ENERGY PREDICTED BY IDOCK:   -2.84 KCAL/MOL
REMARK 922        TOTAL FREE ENERGY PREDICTED BY IDOCK:   30.83 KCAL/MOL
REMARK 923 INTER-LIGAND FREE ENERGY PREDICTED BY IDOCK:   -3.78 KCAL/MOL
REMARK 924 INTRA-LIGAND FREE ENERGY PREDICTED BY IDOCK:   34.61 KCAL/MOL
REMARK 927      BINDING AFFINITY PREDICTED BY RF-SCORE:    0.00 PKD
ROOT
HETATM    1 FE   UNL     1     -10.747   8.029  72.092  1.00  0.00    -0.197 Fe 
HETATM    2  C   UNL     2      -8.585   2.723  69.677  1.00  0.00    -0.067 C  
HETATM    3  O   UNL     2      -9.552   1.933  70.455  1.00  0.00    -0.118 OA 
HETATM    4  C   UNL     3     -10.255   4.350  72.227  1.00  0.00    -0.188 C  
HETATM    5  H   UNL     3      -9.341   2.743  71.927  1.00  0.00     0.000 HD 
HETATM    6  H   UNL     2      -9.122   1.842  71.298  1.00  0.00     0.000 HD 
HETATM    7  O   UNL     3      -9.904   3.039  72.632  1.00  0.00    -0.126 OA 
ENDROOT
BRANCH   2   8
HETATM    8  C   UNL     2      -8.499   4.132  70.255  1.00  0.00    -0.095 C  
HETATM    9  H   UNL     2     -10.888   7.814  70.073  1.00  0.00     0.000 HD 
HETATM   10  H   UNL     2     -11.680   5.900  70.084  1.00  0.00     0.000 HD 
HETATM   11  C   UNL     2      -9.343   6.790  70.680  1.00  0.00    -0.162 C  
HETATM   12  O   UNL     2      -6.824   5.081  70.371  1.00  0.00    -0.041 OA 
HETATM   13  O   UNL     2      -7.181   7.786  71.657  1.00  0.00    -0.061 OA 
HETATM   14  O   UNL     2     -11.017   5.241  69.914  1.00  0.00    -0.165 OA 
HETATM   15  C   UNL     2      -7.477   6.947  70.740  1.00  0.00    -0.082 C  
HETATM   16  H   UNL     2      -7.489   8.667  71.831  1.00  0.00     0.000 HD 
HETATM   17  O   UNL     2      -9.942   7.894  70.103  1.00  0.00    -0.188 OA 
HETATM   18  C   UNL     2      -9.831   5.457  70.596  1.00  0.00    -0.191 C  
ENDBRANCH   2   8
BRANCH   2  19
HETATM   19  C   UNL     2      -9.281   2.871  68.313  1.00  0.00    -0.193 C  
HETATM   20  H   UNL     2      -9.797   1.699  66.818  1.00  0.00     0.000 HD 
HETATM   21  O   UNL     2      -9.368   1.608  67.660  1.00  0.00    -0.142 OA 
ENDBRANCH   2  19
BRANCH   4  22
HETATM   22  C   UNL     3      -8.879   5.447  71.692  1.00  0.00    -0.143 C  
HETATM   23  H   UNL     3      -4.707   5.035  71.694  1.00  0.00     0.000 HD 
HETATM   24  C   UNL     3      -6.409   6.727  73.111  1.00  0.00    -0.062 C  
HETATM   25  O   UNL     3      -9.317   6.670  73.038  1.00  0.00    -0.135 OA 
HETATM   26  O   UNL     3      -8.111   8.499  74.311  1.00  0.00    -0.337 OA 
HETATM   27  C   UNL     3      -6.658   5.638  72.046  1.00  0.00    -0.058 C  
HETATM   28  O   UNL     3      -5.352   7.352  73.432  1.00  0.00    -0.044 OA 
HETATM   29  O   UNL     3      -5.641   4.954  71.546  1.00  0.00    -0.007 OA 
HETATM   30  C   UNL     3      -7.982   7.390  73.789  1.00  0.00    -0.119 C  
ENDBRANCH   4  22
BRANCH   4  31
HETATM   31  C   UNL     3     -11.167   4.830  73.371  1.00  0.00    -0.343 C  
HETATM   32  O   UNL     3     -12.345   5.513  72.892  1.00  0.00    -0.519 OA 
HETATM   33  H   UNL     3     -12.907   5.809  73.597  1.00  0.00     0.000 HD 
ENDBRANCH   4  31
TORSDOF 4
ENDMDL
MODEL      120
REMARK 921   NORMALIZED FREE ENERGY PREDICTED BY IDOCK:   -2.74 KCAL/MOL
REMARK 922        TOTAL FREE ENERGY PREDICTED BY IDOCK:   30.95 KCAL/MOL
REMARK 923 INTER-LIGAND FREE ENERGY PREDICTED BY IDOCK:   -3.69 KCAL/MOL
REMARK 924 INTRA-LIGAND FREE ENERGY PREDICTED BY IDOCK:   34.64 KCAL/MOL
REMARK 927      BINDING AFFINITY PREDICTED BY RF-SCORE:    0.00 PKD
ROOT
HETATM    1 FE   UNL     1      -9.097   9.368  66.971  1.00  0.00    -0.123 Fe 
HETATM    2  C   UNL     2      -9.066   5.651  71.955  1.00  0.00    -0.137 C  
HETATM    3  O   UNL     2      -7.718   6.106  72.330  1.00  0.00    -0.098 OA 
HETATM    4  C   UNL     3      -7.298   7.448  69.592  1.00  0.00    -0.091 C  
HETATM    5  H   UNL     3      -7.037   6.026  70.782  1.00  0.00     0.000 HD 
HETATM    6  H   UNL     2      -7.153   5.560  71.795  1.00  0.00     0.000 HD 
HETATM    7  O   UNL     3      -6.435   6.554  70.271  1.00  0.00    -0.038 OA 
ENDROOT
BRANCH   2   8
HETATM    8  C   UNL     2      -9.352   6.048  70.510  1.00  0.00    -0.177 C  
HETATM    9  H   UNL     2     -10.539   9.697  68.372  1.00  0.00     0.000 HD 
HETATM   10  H   UNL     2      -9.290   9.658  70.024  1.00  0.00     0.000 HD 
HETATM   11  C   UNL     2     -10.071   7.805  68.423  1.00  0.00    -0.192 C  
HETATM   12  O   UNL     2     -10.315   4.886  69.309  1.00  0.00    -0.187 OA 
HETATM   13  O   UNL     2     -10.545   6.097  66.557  1.00  0.00    -0.425 OA 
HETATM   14  O   UNL     2      -9.318   8.820  70.470  1.00  0.00    -0.163 OA 
HETATM   15  C   UNL     2     -10.744   6.164  67.816  1.00  0.00    -0.303 C  
HETATM   16  H   UNL     2     -10.747   6.701  65.852  1.00  0.00     0.000 HD 
HETATM   17  O   UNL     2     -10.881   8.865  68.064  1.00  0.00    -0.148 OA 
HETATM   18  C   UNL     2      -9.295   7.733  69.612  1.00  0.00    -0.153 C  
ENDBRANCH   2   8
BRANCH   2  19
HETATM   19  C   UNL     2      -9.980   6.535  72.821  1.00  0.00    -0.172 C  
HETATM   20  H   UNL     2     -11.867   6.550  73.384  1.00  0.00     0.000 HD 
HETATM   21  O   UNL     2     -11.302   6.004  72.849  1.00  0.00    -0.256 OA 
ENDBRANCH   2  19
BRANCH   4  22
HETATM   22  C   UNL     3      -8.750   6.709  68.738  1.00  0.00    -0.128 C  
HETATM   23  H   UNL     3     -10.035   2.762  68.147  1.00  0.00     0.000 HD 
HETATM   24  C   UNL     3      -9.123   4.706  66.371  1.00  0.00    -0.120 C  
HETATM   25  O   UNL     3      -8.117   7.339  67.094  1.00  0.00    -0.111 OA 
HETATM   26  O   UNL     3      -8.424   6.719  64.657  1.00  0.00    -0.019 OA 
HETATM   27  C   UNL     3      -9.353   4.703  67.897  1.00  0.00    -0.134 C  
HETATM   28  O   UNL     3      -9.549   3.928  65.463  1.00  0.00    -0.167 OA 
HETATM   29  O   UNL     3      -9.781   3.606  68.501  1.00  0.00    -0.127 OA 
HETATM   30  C   UNL     3      -8.345   6.270  65.802  1.00  0.00    -0.145 C  
ENDBRANCH   4  22
BRANCH   4  31
HETATM   31  C   UNL     3      -6.323   8.303  68.762  1.00  0.00    -0.049 C  
HETATM   32  O   UNL     3      -5.383   7.504  68.014  1.00  0.00    -0.024 OA 
HETATM   33  H   UNL     3      -4.781   8.032  67.502  1.00  0.00     0.000 HD 
ENDBRANCH   4  31
TORSDOF 4
ENDMDL
MODEL      121
REMARK 921   NORMALIZED FREE ENERGY PREDICTED BY IDOCK:   -2.71 KCAL/MOL
REMARK 922        TOTAL FREE ENERGY PREDICTED BY IDOCK:   30.99 KCAL/MOL
REMARK 923 INTER-LIGAND FREE ENERGY PREDICTED BY IDOCK:   -3.81 KCAL/MOL
REMARK 924 INTRA-LIGAND FREE ENERGY PREDICTED BY IDOCK:   34.80 KCAL/MOL
REMARK 927      BINDING AFFINITY PREDICTED BY RF-SCORE:    0.00 PKD
ROOT
HETATM    1 FE   UNL     1      -7.001   4.976  71.137  1.00  0.00    -0.034 Fe 
HETATM    2  C   UNL     2     -10.328   8.465  67.211  1.00  0.00    -0.299 C  
HETATM    3  O   UNL     2     -11.234   8.883  68.293  1.00  0.00    -0.418 OA 
HETATM    4  C   UNL     3     -10.143   6.711  70.182  1.00  0.00    -0.178 C  
HETATM    5  H   UNL     3     -11.437   7.355  68.991  1.00  0.00     0.000 HD 
HETATM    6  H   UNL     2     -11.855   8.165  68.340  1.00  0.00     0.000 HD 
HETATM    7  O   UNL     3     -11.493   7.007  69.873  1.00  0.00    -0.248 OA 
ENDROOT
BRANCH   2   8
HETATM    8  C   UNL     2      -9.525   7.249  67.662  1.00  0.00    -0.149 C  
HETATM    9  H   UNL     2      -5.991   6.500  70.161  1.00  0.00     0.000 HD 
HETATM   10  H   UNL     2      -7.397   7.977  70.527  1.00  0.00     0.000 HD 
HETATM   11  C   UNL     2      -7.450   5.899  69.015  1.00  0.00    -0.085 C  
HETATM   12  O   UNL     2      -9.140   5.786  66.466  1.00  0.00    -0.132 OA 
HETATM   13  O   UNL     2      -7.597   3.603  67.862  1.00  0.00    -0.065 OA 
HETATM   14  O   UNL     2      -7.961   8.123  69.778  1.00  0.00    -0.106 OA 
HETATM   15  C   UNL     2      -7.710   4.823  67.502  1.00  0.00    -0.090 C  
HETATM   16  H   UNL     2      -6.922   3.148  68.352  1.00  0.00     0.000 HD 
HETATM   17  O   UNL     2      -6.123   5.954  69.394  1.00  0.00    -0.026 OA 
HETATM   18  C   UNL     2      -8.390   6.955  69.169  1.00  0.00    -0.125 C  
ENDBRANCH   2   8
BRANCH   2  19
HETATM   19  C   UNL     2      -9.323   9.627  67.135  1.00  0.00    -0.139 C  
HETATM   20  H   UNL     2      -8.975  11.304  68.105  1.00  0.00     0.000 HD 
HETATM   21  O   UNL     2      -9.595  10.586  68.152  1.00  0.00    -0.149 OA 
ENDBRANCH   2  19
BRANCH   4  22
HETATM   22  C   UNL     3      -9.197   5.756  68.927  1.00  0.00    -0.127 C  
HETATM   23  H   UNL     3     -10.258   3.934  65.303  1.00  0.00     0.000 HD 
HETATM   24  C   UNL     3      -9.411   2.876  67.737  1.00  0.00    -0.199 C  
HETATM   25  O   UNL     3      -8.907   4.389  70.171  1.00  0.00    -0.075 OA 
HETATM   26  O   UNL     3      -8.376   1.914  70.078  1.00  0.00    -0.044 OA 
HETATM   27  C   UNL     3      -9.633   4.320  67.241  1.00  0.00    -0.189 C  
HETATM   28  O   UNL     3      -9.277   1.787  67.099  1.00  0.00    -0.116 OA 
HETATM   29  O   UNL     3     -10.075   4.538  66.012  1.00  0.00    -0.223 OA 
HETATM   30  C   UNL     3      -8.992   2.827  69.525  1.00  0.00    -0.108 C  
ENDBRANCH   4  22
BRANCH   4  31
HETATM   31  C   UNL     3     -10.233   6.147  71.612  1.00  0.00    -0.198 C  
HETATM   32  O   UNL     3     -11.590   5.863  72.012  1.00  0.00    -0.288 OA 
HETATM   33  H   UNL     3     -11.646   5.515  72.894  1.00  0.00     0.000 HD 
ENDBRANCH   4  31
TORSDOF 4
ENDMDL
MODEL      122
REMARK 921   NORMALIZED FREE ENERGY PREDICTED BY IDOCK:   -2.70 KCAL/MOL
REMARK 922        TOTAL FREE ENERGY PREDICTED BY IDOCK:   31.00 KCAL/MOL
REMARK 923 INTER-LIGAND FREE ENERGY PREDICTED BY IDOCK:   -3.45 KCAL/MOL
REMARK 924 INTRA-LIGAND FREE ENERGY PREDICTED BY IDOCK:   34.46 KCAL/MOL
REMARK 927      BINDING AFFINITY PREDICTED BY RF-SCORE:    0.00 PKD
ROOT
HETATM    1 FE   UNL     1     -10.415   3.110  71.738  1.00  0.00    -0.171 Fe 
HETATM    2  C   UNL     2      -9.418   8.936  69.806  1.00  0.00    -0.170 C  
HETATM    3  O   UNL     2      -9.116   8.470  68.444  1.00  0.00    -0.139 OA 
HETATM    4  C   UNL     3      -8.896   5.546  69.382  1.00  0.00    -0.106 C  
HETATM    5  H   UNL     3      -8.119   7.176  68.885  1.00  0.00     0.000 HD 
HETATM    6  H   UNL     2      -8.200   8.226  68.501  1.00  0.00     0.000 HD 
HETATM    7  O   UNL     3      -7.983   6.284  68.590  1.00  0.00    -0.103 OA 
ENDROOT
BRANCH   2   8
HETATM    8  C   UNL     2      -9.362   7.755  70.770  1.00  0.00    -0.162 C  
HETATM    9  H   UNL     2     -12.012   4.452  71.937  1.00  0.00     0.000 HD 
HETATM   10  H   UNL     2     -11.881   5.232  70.023  1.00  0.00     0.000 HD 
HETATM   11  C   UNL     2     -10.343   5.451  72.071  1.00  0.00    -0.213 C  
HETATM   12  O   UNL     2      -8.588   7.916  72.530  1.00  0.00    -0.124 OA 
HETATM   13  O   UNL     2      -8.652   5.285  74.003  1.00  0.00    -0.115 OA 
HETATM   14  O   UNL     2     -11.423   6.063  70.009  1.00  0.00    -0.372 OA 
HETATM   15  C   UNL     2      -9.259   6.226  73.389  1.00  0.00    -0.131 C  
HETATM   16  H   UNL     2      -8.969   4.487  74.409  1.00  0.00     0.000 HD 
HETATM   17  O   UNL     2     -11.463   4.844  72.606  1.00  0.00    -0.144 OA 
HETATM   18  C   UNL     2     -10.284   6.082  70.798  1.00  0.00    -0.204 C  
ENDBRANCH   2   8
BRANCH   2  19
HETATM   19  C   UNL     2     -10.902   9.332  69.714  1.00  0.00    -0.224 C  
HETATM   20  H   UNL     2     -12.053  10.351  68.486  1.00  0.00     0.000 HD 
HETATM   21  O   UNL     2     -11.137  10.107  68.543  1.00  0.00    -0.245 OA 
ENDBRANCH   2  19
BRANCH   4  22
HETATM   22  C   UNL     3      -8.877   5.877  71.190  1.00  0.00    -0.138 C  
HETATM   23  H   UNL     3      -6.474   8.277  73.649  1.00  0.00     0.000 HD 
HETATM   24  C   UNL     3      -6.773   5.512  73.470  1.00  0.00    -0.078 C  
HETATM   25  O   UNL     3      -8.406   4.097  71.521  1.00  0.00    -0.087 OA 
HETATM   26  O   UNL     3      -7.265   2.823  73.390  1.00  0.00    -0.038 OA 
HETATM   27  C   UNL     3      -7.438   6.690  72.727  1.00  0.00    -0.092 C  
HETATM   28  O   UNL     3      -6.120   5.474  74.557  1.00  0.00    -0.059 OA 
HETATM   29  O   UNL     3      -7.080   7.934  73.003  1.00  0.00    -0.078 OA 
HETATM   30  C   UNL     3      -7.289   3.891  72.776  1.00  0.00    -0.063 C  
ENDBRANCH   4  22
BRANCH   4  31
HETATM   31  C   UNL     3      -8.677   4.100  68.902  1.00  0.00    -0.092 C  
HETATM   32  O   UNL     3      -9.774   3.229  69.247  1.00  0.00    -0.107 OA 
HETATM   33  H   UNL     3      -9.639   2.336  68.951  1.00  0.00     0.000 HD 
ENDBRANCH   4  31
TORSDOF 4
ENDMDL
MODEL      123
REMARK 921   NORMALIZED FREE ENERGY PREDICTED BY IDOCK:   -2.67 KCAL/MOL
REMARK 922        TOTAL FREE ENERGY PREDICTED BY IDOCK:   31.03 KCAL/MOL
REMARK 923 INTER-LIGAND FREE ENERGY PREDICTED BY IDOCK:   -4.13 KCAL/MOL
REMARK 924 INTRA-LIGAND FREE ENERGY PREDICTED BY IDOCK:   35.17 KCAL/MOL
REMARK 927      BINDING AFFINITY PREDICTED BY RF-SCORE:    0.00 PKD
ROOT
HETATM    1 FE   UNL     1      -7.936  12.601  69.573  1.00  0.00    -0.320 Fe 
HETATM    2  C   UNL     2     -10.076  10.788  64.024  1.00  0.00    -0.345 C  
HETATM    3  O   UNL     2     -11.455  10.734  64.534  1.00  0.00     0.223 OA 
HETATM    4  C   UNL     3     -10.494  10.945  67.451  1.00  0.00    -0.224 C  
HETATM    5  H   UNL     3     -11.106   9.946  65.990  1.00  0.00     0.000 HD 
HETATM    6  H   UNL     2     -11.498   9.878  64.942  1.00  0.00     0.000 HD 
HETATM    7  O   UNL     3     -11.398  10.010  66.891  1.00  0.00     0.018 OA 
ENDROOT
BRANCH   2   8
HETATM    8  C   UNL     2      -9.103  10.837  65.198  1.00  0.00    -0.225 C  
HETATM    9  H   UNL     2      -7.636  13.879  68.008  1.00  0.00     0.000 HD 
HETATM   10  H   UNL     2      -9.566  13.804  67.260  1.00  0.00     0.000 HD 
HETATM   11  C   UNL     2      -7.678  12.061  67.303  1.00  0.00    -0.168 C  
HETATM   12  O   UNL     2      -7.428   9.881  65.170  1.00  0.00    -0.120 OA 
HETATM   13  O   UNL     2      -5.914  10.242  67.753  1.00  0.00    -0.045 OA 
HETATM   14  O   UNL     2      -9.637  13.216  66.518  1.00  0.00    -0.260 OA 
HETATM   15  C   UNL     2      -6.482  10.740  66.723  1.00  0.00    -0.096 C  
HETATM   16  H   UNL     2      -5.467  10.648  68.486  1.00  0.00     0.000 HD 
HETATM   17  O   UNL     2      -7.029  13.209  67.714  1.00  0.00    -0.112 OA 
HETATM   18  C   UNL     2      -8.961  12.019  66.691  1.00  0.00    -0.204 C  
ENDBRANCH   2   8
BRANCH   2  19
HETATM   19  C   UNL     2     -10.006  12.175  63.363  1.00  0.00    -0.275 C  
HETATM   20  H   UNL     2     -10.912  13.912  63.547  1.00  0.00     0.000 HD 
HETATM   21  O   UNL     2     -10.955  13.056  63.955  1.00  0.00    -0.387 OA 
ENDBRANCH   2  19
BRANCH   4  22
HETATM   22  C   UNL     3      -8.706  10.659  67.134  1.00  0.00    -0.130 C  
HETATM   23  H   UNL     3      -6.564   7.496  65.405  1.00  0.00     0.000 HD 
HETATM   24  C   UNL     3      -6.640   8.485  68.009  1.00  0.00    -0.058 C  
HETATM   25  O   UNL     3      -8.378  10.610  68.975  1.00  0.00    -0.144 OA 
HETATM   26  O   UNL     3      -6.599   9.631  70.491  1.00  0.00    -0.082 OA 
HETATM   27  C   UNL     3      -7.343   8.911  66.703  1.00  0.00    -0.085 C  
HETATM   28  O   UNL     3      -5.622   7.753  68.207  1.00  0.00    -0.030 OA 
HETATM   29  O   UNL     3      -7.138   8.231  65.586  1.00  0.00    -0.069 OA 
HETATM   30  C   UNL     3      -7.236   9.454  69.451  1.00  0.00    -0.066 C  
ENDBRANCH   4  22
BRANCH   4  31
HETATM   31  C   UNL     3     -10.969  11.050  68.912  1.00  0.00    -0.227 C  
HETATM   32  O   UNL     3     -12.393  10.865  69.047  1.00  0.00    -0.705 OA 
HETATM   33  H   UNL     3     -12.686  10.930  69.948  1.00  0.00     0.000 HD 
ENDBRANCH   4  31
TORSDOF 4
ENDMDL
MODEL      124
REMARK 921   NORMALIZED FREE ENERGY PREDICTED BY IDOCK:   -2.65 KCAL/MOL
REMARK 922        TOTAL FREE ENERGY PREDICTED BY IDOCK:   31.06 KCAL/MOL
REMARK 923 INTER-LIGAND FREE ENERGY PREDICTED BY IDOCK:   -3.72 KCAL/MOL
REMARK 924 INTRA-LIGAND FREE ENERGY PREDICTED BY IDOCK:   34.77 KCAL/MOL
REMARK 927      BINDING AFFINITY PREDICTED BY RF-SCORE:    0.00 PKD
ROOT
HETATM    1 FE   UNL     1     -11.354  10.249  64.382  1.00  0.00    -0.141 Fe 
HETATM    2  C   UNL     2      -6.710  12.216  68.019  1.00  0.00    -0.073 C  
HETATM    3  O   UNL     2      -7.151  11.341  69.117  1.00  0.00    -0.107 OA 
HETATM    4  C   UNL     3      -9.846  10.792  67.732  1.00  0.00    -0.166 C  
HETATM    5  H   UNL     3      -8.804  11.689  69.005  1.00  0.00     0.000 HD 
HETATM    6  H   UNL     2      -7.832  11.854  69.537  1.00  0.00     0.000 HD 
HETATM    7  O   UNL     3      -9.614  11.196  69.069  1.00  0.00    -0.175 OA 
ENDROOT
BRANCH   2   8
HETATM    8  C   UNL     2      -7.830  12.344  66.991  1.00  0.00    -0.086 C  
HETATM    9  H   UNL     2      -9.318  10.014  63.578  1.00  0.00     0.000 HD 
HETATM   10  H   UNL     2      -8.540   9.191  65.312  1.00  0.00     0.000 HD 
HETATM   11  C   UNL     2      -9.376  11.559  64.766  1.00  0.00    -0.042 C  
HETATM   12  O   UNL     2      -8.281  14.038  66.186  1.00  0.00     0.851 OA 
HETATM   13  O   UNL     2     -10.607  13.768  64.287  1.00  0.00    -0.571 OA 
HETATM   14  O   UNL     2      -8.083   9.836  65.837  1.00  0.00    -0.111 OA 
HETATM   15  C   UNL     2      -9.432  13.429  64.654  1.00  0.00     0.825 C  
HETATM   16  H   UNL     2     -11.151  13.480  63.563  1.00  0.00     0.000 HD 
HETATM   17  O   UNL     2      -9.346  10.962  63.520  1.00  0.00    -0.225 OA 
HETATM   18  C   UNL     2      -8.750  11.046  65.935  1.00  0.00    -0.178 C  
ENDBRANCH   2   8
BRANCH   2  19
HETATM   19  C   UNL     2      -5.609  11.386  67.338  1.00  0.00    -0.060 C  
HETATM   20  H   UNL     2      -4.674  11.366  65.606  1.00  0.00     0.000 HD 
HETATM   21  O   UNL     2      -5.354  11.879  66.027  1.00  0.00    -0.186 OA 
ENDBRANCH   2  19
BRANCH   4  22
HETATM   22  C   UNL     3      -9.720  12.095  66.441  1.00  0.00    -0.243 C  
HETATM   23  H   UNL     3      -9.228  16.256  66.594  1.00  0.00     0.000 HD 
HETATM   24  C   UNL     3     -11.353  14.666  65.746  1.00  0.00    -0.340 C  
HETATM   25  O   UNL     3     -11.487  11.764  65.921  1.00  0.00    -0.314 OA 
HETATM   26  O   UNL     3     -13.317  13.054  64.735  1.00  0.00    -0.555 OA 
HETATM   27  C   UNL     3      -9.950  14.337  66.298  1.00  0.00    -0.306 C  
HETATM   28  O   UNL     3     -11.826  15.738  65.259  1.00  0.00     0.174 OA 
HETATM   29  O   UNL     3      -9.131  15.314  66.654  1.00  0.00    -0.241 OA 
HETATM   30  C   UNL     3     -12.367  13.152  65.514  1.00  0.00    -0.474 C  
ENDBRANCH   4  22
BRANCH   4  31
HETATM   31  C   UNL     3     -11.158   9.994  67.837  1.00  0.00    -0.195 C  
HETATM   32  O   UNL     3     -12.128  10.632  68.695  1.00  0.00    -0.777 OA 
HETATM   33  H   UNL     3     -12.937  10.139  68.760  1.00  0.00     0.000 HD 
ENDBRANCH   4  31
TORSDOF 4
ENDMDL
MODEL      125
REMARK 921   NORMALIZED FREE ENERGY PREDICTED BY IDOCK:   -2.63 KCAL/MOL
REMARK 922        TOTAL FREE ENERGY PREDICTED BY IDOCK:   31.09 KCAL/MOL
REMARK 923 INTER-LIGAND FREE ENERGY PREDICTED BY IDOCK:   -3.76 KCAL/MOL
REMARK 924 INTRA-LIGAND FREE ENERGY PREDICTED BY IDOCK:   34.85 KCAL/MOL
REMARK 927      BINDING AFFINITY PREDICTED BY RF-SCORE:    0.00 PKD
ROOT
HETATM    1 FE   UNL     1      -9.065  18.249  66.012  1.00  0.00    -0.278 Fe 
HETATM    2  C   UNL     2     -11.290  13.385  69.181  1.00  0.00    -0.280 C  
HETATM    3  O   UNL     2     -12.324  14.221  69.810  1.00  0.00    -0.352 OA 
HETATM    4  C   UNL     3     -10.943  16.809  68.874  1.00  0.00    -0.259 C  
HETATM    5  H   UNL     3     -11.323  15.532  70.191  1.00  0.00     0.000 HD 
HETATM    6  H   UNL     2     -11.863  14.615  70.542  1.00  0.00     0.000 HD 
HETATM    7  O   UNL     3     -11.398  16.479  70.173  1.00  0.00    -0.267 OA 
ENDROOT
BRANCH   2   8
HETATM    8  C   UNL     2     -10.218  14.279  68.565  1.00  0.00    -0.245 C  
HETATM    9  H   UNL     2      -9.789  16.722  64.940  1.00  0.00     0.000 HD 
HETATM   10  H   UNL     2     -11.558  16.479  65.990  1.00  0.00     0.000 HD 
HETATM   11  C   UNL     2      -9.113  15.997  66.619  1.00  0.00    -0.252 C  
HETATM   12  O   UNL     2      -8.349  13.805  68.613  1.00  0.00    -0.145 OA 
HETATM   13  O   UNL     2      -6.642  15.936  67.334  1.00  0.00    -0.165 OA 
HETATM   14  O   UNL     2     -11.508  15.761  66.609  1.00  0.00    -0.005 OA 
HETATM   15  C   UNL     2      -7.601  15.097  67.265  1.00  0.00    -0.203 C  
HETATM   16  H   UNL     2      -6.289  16.546  66.697  1.00  0.00     0.000 HD 
HETATM   17  O   UNL     2      -9.023  16.266  65.267  1.00  0.00     0.017 OA 
HETATM   18  C   UNL     2     -10.320  15.724  67.321  1.00  0.00    -0.290 C  
ENDBRANCH   2   8
BRANCH   2  19
HETATM   19  C   UNL     2     -12.036  12.747  67.997  1.00  0.00    -0.264 C  
HETATM   20  H   UNL     2     -12.580  10.942  67.432  1.00  0.00     0.000 HD 
HETATM   21  O   UNL     2     -12.119  11.335  68.164  1.00  0.00    -0.635 OA 
ENDBRANCH   2  19
BRANCH   4  22
HETATM   22  C   UNL     3      -9.356  16.052  68.336  1.00  0.00    -0.207 C  
HETATM   23  H   UNL     3      -6.534  13.619  70.260  1.00  0.00     0.000 HD 
HETATM   24  C   UNL     3      -6.393  16.235  69.307  1.00  0.00    -0.177 C  
HETATM   25  O   UNL     3      -8.594  17.751  68.157  1.00  0.00    -0.247 OA 
HETATM   26  O   UNL     3      -6.252  18.715  68.166  1.00  0.00    -0.197 OA 
HETATM   27  C   UNL     3      -7.512  15.172  69.297  1.00  0.00    -0.193 C  
HETATM   28  O   UNL     3      -5.142  16.125  69.493  1.00  0.00    -0.110 OA 
HETATM   29  O   UNL     3      -7.310  13.989  69.856  1.00  0.00     0.200 OA 
HETATM   30  C   UNL     3      -6.979  17.848  68.653  1.00  0.00    -0.252 C  
ENDBRANCH   4  22
BRANCH   4  31
HETATM   31  C   UNL     3     -11.065  18.343  68.846  1.00  0.00     1.320 C  
HETATM   32  O   UNL     3     -10.191  18.986  69.798  1.00  0.00    -0.280 OA 
HETATM   33  H   UNL     3     -10.267  19.933  69.781  1.00  0.00     0.000 HD 
ENDBRANCH   4  31
TORSDOF 4
ENDMDL
MODEL      126
REMARK 921   NORMALIZED FREE ENERGY PREDICTED BY IDOCK:   -2.63 KCAL/MOL
REMARK 922        TOTAL FREE ENERGY PREDICTED BY IDOCK:   31.09 KCAL/MOL
REMARK 923 INTER-LIGAND FREE ENERGY PREDICTED BY IDOCK:   -3.53 KCAL/MOL
REMARK 924 INTRA-LIGAND FREE ENERGY PREDICTED BY IDOCK:   34.62 KCAL/MOL
REMARK 927      BINDING AFFINITY PREDICTED BY RF-SCORE:    0.00 PKD
ROOT
HETATM    1 FE   UNL     1      -6.897   9.182  70.759  1.00  0.00    -0.039 Fe 
HETATM    2  C   UNL     2     -10.777   4.462  71.906  1.00  0.00     0.154 C  
HETATM    3  O   UNL     2      -9.652   3.529  72.069  1.00  0.00    -0.123 OA 
HETATM    4  C   UNL     3      -7.669   5.551  70.863  1.00  0.00    -0.092 C  
HETATM    5  H   UNL     3      -8.765   4.039  70.721  1.00  0.00     0.000 HD 
HETATM    6  H   UNL     2      -9.451   3.278  71.175  1.00  0.00     0.000 HD 
HETATM    7  O   UNL     3      -7.849   4.189  70.520  1.00  0.00    -0.051 OA 
ENDROOT
BRANCH   2   8
HETATM    8  C   UNL     2     -10.288   5.732  71.219  1.00  0.00    -0.281 C  
HETATM    9  H   UNL     2      -8.098   9.358  72.383  1.00  0.00     0.000 HD 
HETATM   10  H   UNL     2      -7.744   7.471  73.161  1.00  0.00     0.000 HD 
HETATM   11  C   UNL     2      -9.023   8.249  71.071  1.00  0.00    -0.154 C  
HETATM   12  O   UNL     2     -11.361   6.655  69.908  1.00  0.00    -0.335 OA 
HETATM   13  O   UNL     2      -9.913   9.055  68.796  1.00  0.00    -0.171 OA 
HETATM   14  O   UNL     2      -8.443   6.863  72.951  1.00  0.00    -0.115 OA 
HETATM   15  C   UNL     2     -10.382   8.408  69.791  1.00  0.00    -0.216 C  
HETATM   16  H   UNL     2      -9.451   9.883  68.741  1.00  0.00     0.000 HD 
HETATM   17  O   UNL     2      -8.787   9.439  71.734  1.00  0.00    -0.203 OA 
HETATM   18  C   UNL     2      -8.882   6.954  71.640  1.00  0.00    -0.128 C  
ENDBRANCH   2   8
BRANCH   2  19
HETATM   19  C   UNL     2     -11.102   4.867  73.355  1.00  0.00    -0.342 C  
HETATM   20  H   UNL     2     -10.351   4.554  75.147  1.00  0.00     0.000 HD 
HETATM   21  O   UNL     2     -10.150   4.304  74.252  1.00  0.00    -0.153 OA 
ENDBRANCH   2  19
BRANCH   4  22
HETATM   22  C   UNL     3      -8.909   6.740  70.208  1.00  0.00    -0.152 C  
HETATM   23  H   UNL     3     -12.142   6.358  67.566  1.00  0.00     0.000 HD 
HETATM   24  C   UNL     3      -9.721   7.722  67.357  1.00  0.00    -0.163 C  
HETATM   25  O   UNL     3      -7.559   7.666  69.303  1.00  0.00    -0.091 OA 
HETATM   26  O   UNL     3      -7.426   9.208  67.297  1.00  0.00    -0.087 OA 
HETATM   27  C   UNL     3     -10.352   6.868  68.477  1.00  0.00    -0.186 C  
HETATM   28  O   UNL     3     -10.239   8.276  66.339  1.00  0.00    -0.253 OA 
HETATM   29  O   UNL     3     -11.535   6.304  68.294  1.00  0.00    -0.177 OA 
HETATM   30  C   UNL     3      -8.003   8.227  67.769  1.00  0.00    -0.122 C  
ENDBRANCH   4  22
BRANCH   4  31
HETATM   31  C   UNL     3      -6.184   5.793  70.537  1.00  0.00    -0.031 C  
HETATM   32  O   UNL     3      -5.854   5.462  69.172  1.00  0.00    -0.020 OA 
HETATM   33  H   UNL     3      -4.937   5.611  68.971  1.00  0.00     0.000 HD 
ENDBRANCH   4  31
TORSDOF 4
ENDMDL
MODEL      127
REMARK 921   NORMALIZED FREE ENERGY PREDICTED BY IDOCK:   -2.62 KCAL/MOL
REMARK 922        TOTAL FREE ENERGY PREDICTED BY IDOCK:   31.10 KCAL/MOL
REMARK 923 INTER-LIGAND FREE ENERGY PREDICTED BY IDOCK:   -3.62 KCAL/MOL
REMARK 924 INTRA-LIGAND FREE ENERGY PREDICTED BY IDOCK:   34.72 KCAL/MOL
REMARK 927      BINDING AFFINITY PREDICTED BY RF-SCORE:    0.00 PKD
ROOT
HETATM    1 FE   UNL     1      -5.929   7.760  70.232  1.00  0.00    -0.027 Fe 
HETATM    2  C   UNL     2      -8.632   9.870  65.045  1.00  0.00    -0.161 C  
HETATM    3  O   UNL     2      -8.427  11.265  65.462  1.00  0.00    -0.364 OA 
HETATM    4  C   UNL     3      -7.709  10.408  68.331  1.00  0.00    -0.098 C  
HETATM    5  H   UNL     3      -8.923  11.074  67.069  1.00  0.00     0.000 HD 
HETATM    6  H   UNL     2      -9.168  11.428  66.034  1.00  0.00     0.000 HD 
HETATM    7  O   UNL     3      -8.638  11.394  67.917  1.00  0.00    -0.131 OA 
ENDROOT
BRANCH   2   8
HETATM    8  C   UNL     2      -8.441   8.948  66.245  1.00  0.00    -0.129 C  
HETATM    9  H   UNL     2      -5.052   7.270  68.480  1.00  0.00     0.000 HD 
HETATM   10  H   UNL     2      -5.084   9.163  67.641  1.00  0.00     0.000 HD 
HETATM   11  C   UNL     2      -6.962   7.485  68.151  1.00  0.00    -0.072 C  
HETATM   12  O   UNL     2      -9.546   7.390  66.514  1.00  0.00    -0.189 OA 
HETATM   13  O   UNL     2      -8.818   5.955  69.065  1.00  0.00    -0.119 OA 
HETATM   14  O   UNL     2      -5.801   9.268  67.028  1.00  0.00    -0.044 OA 
HETATM   15  C   UNL     2      -8.488   6.420  67.922  1.00  0.00    -0.118 C  
HETATM   16  H   UNL     2      -8.318   5.496  69.730  1.00  0.00     0.000 HD 
HETATM   17  O   UNL     2      -5.825   6.730  68.365  1.00  0.00    -0.016 OA 
HETATM   18  C   UNL     2      -6.999   8.737  67.478  1.00  0.00    -0.075 C  
ENDBRANCH   2   8
BRANCH   2  19
HETATM   19  C   UNL     2      -7.432   9.607  64.118  1.00  0.00    -0.128 C  
HETATM   20  H   UNL     2      -6.526   8.047  63.331  1.00  0.00     0.000 HD 
HETATM   21  O   UNL     2      -7.268   8.209  63.903  1.00  0.00    -0.084 OA 
ENDBRANCH   2  19
BRANCH   4  22
HETATM   22  C   UNL     3      -8.249   8.655  68.198  1.00  0.00    -0.115 C  
HETATM   23  H   UNL     3     -11.817   6.832  66.964  1.00  0.00     0.000 HD 
HETATM   24  C   UNL     3     -10.560   6.966  69.448  1.00  0.00    -0.229 C  
HETATM   25  O   UNL     3      -8.146   8.473  70.057  1.00  0.00    -0.104 OA 
HETATM   26  O   UNL     3      -9.176   6.956  71.805  1.00  0.00    -0.143 OA 
HETATM   27  C   UNL     3     -10.188   7.509  68.051  1.00  0.00    -0.195 C  
HETATM   28  O   UNL     3     -11.389   6.072  69.800  1.00  0.00    -0.409 OA 
HETATM   29  O   UNL     3     -11.001   7.314  67.025  1.00  0.00    -0.358 OA 
HETATM   30  C   UNL     3      -9.379   7.533  70.736  1.00  0.00    -0.162 C  
ENDBRANCH   4  22
BRANCH   4  31
HETATM   31  C   UNL     3      -7.248  10.927  69.705  1.00  0.00    -0.095 C  
HETATM   32  O   UNL     3      -5.825  11.165  69.758  1.00  0.00    -0.059 OA 
HETATM   33  H   UNL     3      -5.540  11.485  70.606  1.00  0.00     0.000 HD 
ENDBRANCH   4  31
TORSDOF 4
ENDMDL
MODEL      128
REMARK 921   NORMALIZED FREE ENERGY PREDICTED BY IDOCK:   -2.62 KCAL/MOL
REMARK 922        TOTAL FREE ENERGY PREDICTED BY IDOCK:   31.10 KCAL/MOL
REMARK 923 INTER-LIGAND FREE ENERGY PREDICTED BY IDOCK:   -3.76 KCAL/MOL
REMARK 924 INTRA-LIGAND FREE ENERGY PREDICTED BY IDOCK:   34.86 KCAL/MOL
REMARK 927      BINDING AFFINITY PREDICTED BY RF-SCORE:    0.00 PKD
ROOT
HETATM    1 FE   UNL     1     -12.035   6.205  69.392  1.00  0.00    -0.394 Fe 
HETATM    2  C   UNL     2      -7.395   8.744  66.123  1.00  0.00    -0.086 C  
HETATM    3  O   UNL     2      -7.763   7.968  64.929  1.00  0.00    -0.102 OA 
HETATM    4  C   UNL     3      -9.627   6.144  66.565  1.00  0.00    -0.151 C  
HETATM    5  H   UNL     3      -7.995   6.485  65.711  1.00  0.00     0.000 HD 
HETATM    6  H   UNL     2      -7.336   7.133  65.078  1.00  0.00     0.000 HD 
HETATM    7  O   UNL     3      -8.614   5.768  65.650  1.00  0.00    -0.143 OA 
ENDROOT
BRANCH   2   8
HETATM    8  C   UNL     2      -8.073   8.142  67.349  1.00  0.00    -0.122 C  
HETATM    9  H   UNL     2     -12.072   8.247  69.165  1.00  0.00     0.000 HD 
HETATM   10  H   UNL     2     -11.707   8.266  67.127  1.00  0.00     0.000 HD 
HETATM   11  C   UNL     2     -10.211   7.665  69.128  1.00  0.00    -0.203 C  
HETATM   12  O   UNL     2      -7.172   8.016  69.050  1.00  0.00    -0.074 OA 
HETATM   13  O   UNL     2      -8.912   6.681  71.120  1.00  0.00    -0.144 OA 
HETATM   14  O   UNL     2     -10.797   8.450  66.930  1.00  0.00    -0.211 OA 
HETATM   15  C   UNL     2      -8.722   7.611  70.266  1.00  0.00    -0.144 C  
HETATM   16  H   UNL     2      -9.644   6.490  71.694  1.00  0.00     0.000 HD 
HETATM   17  O   UNL     2     -11.317   8.219  69.743  1.00  0.00    -0.052 OA 
HETATM   18  C   UNL     2      -9.905   7.770  67.744  1.00  0.00    -0.161 C  
ENDBRANCH   2   8
BRANCH   2  19
HETATM   19  C   UNL     2      -8.087  10.097  65.882  1.00  0.00    -0.136 C  
HETATM   20  H   UNL     2      -8.852  11.079  64.358  1.00  0.00     0.000 HD 
HETATM   21  O   UNL     2      -8.424  10.244  64.507  1.00  0.00    -0.168 OA 
ENDBRANCH   2  19
BRANCH   4  22
HETATM   22  C   UNL     3      -9.075   6.676  68.236  1.00  0.00    -0.123 C  
HETATM   23  H   UNL     3      -5.342   6.750  70.143  1.00  0.00     0.000 HD 
HETATM   24  C   UNL     3      -7.651   5.268  70.633  1.00  0.00    -0.076 C  
HETATM   25  O   UNL     3     -10.069   5.296  69.015  1.00  0.00    -0.180 OA 
HETATM   26  O   UNL     3     -10.008   4.001  71.192  1.00  0.00    -0.188 OA 
HETATM   27  C   UNL     3      -7.300   6.354  69.593  1.00  0.00    -0.080 C  
HETATM   28  O   UNL     3      -7.090   4.950  71.727  1.00  0.00    -0.057 OA 
HETATM   29  O   UNL     3      -6.088   6.886  69.572  1.00  0.00    -0.031 OA 
HETATM   30  C   UNL     3      -9.314   4.550  70.334  1.00  0.00    -0.146 C  
ENDBRANCH   4  22
BRANCH   4  31
HETATM   31  C   UNL     3     -10.630   4.980  66.465  1.00  0.00    -0.231 C  
HETATM   32  O   UNL     3     -10.266   4.020  65.451  1.00  0.00    -0.352 OA 
HETATM   33  H   UNL     3     -10.885   3.302  65.389  1.00  0.00     0.000 HD 
ENDBRANCH   4  31
TORSDOF 4
ENDMDL
MODEL      129
REMARK 921   NORMALIZED FREE ENERGY PREDICTED BY IDOCK:   -2.60 KCAL/MOL
REMARK 922        TOTAL FREE ENERGY PREDICTED BY IDOCK:   31.12 KCAL/MOL
REMARK 923 INTER-LIGAND FREE ENERGY PREDICTED BY IDOCK:   -3.34 KCAL/MOL
REMARK 924 INTRA-LIGAND FREE ENERGY PREDICTED BY IDOCK:   34.46 KCAL/MOL
REMARK 927      BINDING AFFINITY PREDICTED BY RF-SCORE:    0.00 PKD
ROOT
HETATM    1 FE   UNL     1      -6.274  10.330  66.100  1.00  0.00    -0.057 Fe 
HETATM    2  C   UNL     2     -11.594  13.078  67.775  1.00  0.00    -0.340 C  
HETATM    3  O   UNL     2     -10.868  14.245  68.299  1.00  0.00    -0.236 OA 
HETATM    4  C   UNL     3      -8.177  12.756  68.171  1.00  0.00    -0.167 C  
HETATM    5  H   UNL     3      -9.663  13.385  69.120  1.00  0.00     0.000 HD 
HETATM    6  H   UNL     2     -10.620  13.967  69.173  1.00  0.00     0.000 HD 
HETATM    7  O   UNL     3      -8.728  13.478  69.257  1.00  0.00     0.430 OA 
ENDROOT
BRANCH   2   8
HETATM    8  C   UNL     2     -10.621  11.919  67.582  1.00  0.00    -0.241 C  
HETATM    9  H   UNL     2      -7.518  10.801  64.680  1.00  0.00     0.000 HD 
HETATM   10  H   UNL     2      -7.923  12.743  65.276  1.00  0.00     0.000 HD 
HETATM   11  C   UNL     2      -8.577  10.470  66.284  1.00  0.00    -0.147 C  
HETATM   12  O   UNL     2     -11.138  10.092  67.915  1.00  0.00    -0.275 OA 
HETATM   13  O   UNL     2      -8.836   8.198  67.463  1.00  0.00    -0.133 OA 
HETATM   14  O   UNL     2      -8.751  12.807  65.737  1.00  0.00     0.461 OA 
HETATM   15  C   UNL     2      -9.622   9.107  67.033  1.00  0.00    -0.170 C  
HETATM   16  H   UNL     2      -8.120   7.733  67.046  1.00  0.00     0.000 HD 
HETATM   17  O   UNL     2      -8.048  10.109  65.060  1.00  0.00    -0.140 OA 
HETATM   18  C   UNL     2      -8.956  11.790  66.655  1.00  0.00    -0.195 C  
ENDBRANCH   2   8
BRANCH   2  19
HETATM   19  C   UNL     2     -11.996  13.529  66.360  1.00  0.00    -0.414 C  
HETATM   20  H   UNL     2     -11.745  15.114  65.221  1.00  0.00     0.000 HD 
HETATM   21  O   UNL     2     -11.496  14.836  66.095  1.00  0.00    -0.347 OA 
ENDBRANCH   2  19
BRANCH   4  22
HETATM   22  C   UNL     3      -8.849  11.072  67.870  1.00  0.00    -0.134 C  
HETATM   23  H   UNL     3     -11.587   8.659  69.936  1.00  0.00     0.000 HD 
HETATM   24  C   UNL     3      -8.853   8.389  69.469  1.00  0.00    -0.145 C  
HETATM   25  O   UNL     3      -7.150  10.335  68.134  1.00  0.00    -0.080 OA 
HETATM   26  O   UNL     3      -6.220   8.074  68.800  1.00  0.00    -0.038 OA 
HETATM   27  C   UNL     3      -9.890   9.451  69.048  1.00  0.00    -0.169 C  
HETATM   28  O   UNL     3      -9.002   7.203  69.898  1.00  0.00    -0.142 OA 
HETATM   29  O   UNL     3     -11.149   9.341  69.440  1.00  0.00    -0.170 OA 
HETATM   30  C   UNL     3      -7.149   8.865  68.974  1.00  0.00    -0.064 C  
ENDBRANCH   4  22
BRANCH   4  31
HETATM   31  C   UNL     3      -6.660  12.907  68.392  1.00  0.00    -0.085 C  
HETATM   32  O   UNL     3      -5.903  12.745  67.174  1.00  0.00    -0.345 OA 
HETATM   33  H   UNL     3      -4.968  12.838  67.311  1.00  0.00     0.000 HD 
ENDBRANCH   4  31
TORSDOF 4
ENDMDL
MODEL      130
REMARK 921   NORMALIZED FREE ENERGY PREDICTED BY IDOCK:   -2.49 KCAL/MOL
REMARK 922        TOTAL FREE ENERGY PREDICTED BY IDOCK:   31.25 KCAL/MOL
REMARK 923 INTER-LIGAND FREE ENERGY PREDICTED BY IDOCK:   -3.13 KCAL/MOL
REMARK 924 INTRA-LIGAND FREE ENERGY PREDICTED BY IDOCK:   34.38 KCAL/MOL
REMARK 927      BINDING AFFINITY PREDICTED BY RF-SCORE:    0.00 PKD
ROOT
HETATM    1 FE   UNL     1     -10.932   5.454  68.400  1.00  0.00    -0.207 Fe 
HETATM    2  C   UNL     2      -7.362   7.067  73.229  1.00  0.00    -0.073 C  
HETATM    3  O   UNL     2      -8.063   8.353  73.363  1.00  0.00    -0.309 OA 
HETATM    4  C   UNL     3      -9.417   8.018  70.619  1.00  0.00    -0.162 C  
HETATM    5  H   UNL     3      -8.086   8.747  71.717  1.00  0.00     0.000 HD 
HETATM    6  H   UNL     2      -7.622   8.903  72.725  1.00  0.00     0.000 HD 
HETATM    7  O   UNL     3      -8.708   9.138  71.115  1.00  0.00    -0.214 OA 
ENDROOT
BRANCH   2   8
HETATM    8  C   UNL     2      -7.677   6.457  71.867  1.00  0.00    -0.096 C  
HETATM    9  H   UNL     2     -10.978   4.184  70.067  1.00  0.00     0.000 HD 
HETATM   10  H   UNL     2     -11.215   5.684  71.476  1.00  0.00     0.000 HD 
HETATM   11  C   UNL     2      -9.225   5.036  69.984  1.00  0.00    -0.131 C  
HETATM   12  O   UNL     2      -6.328   5.560  70.819  1.00  0.00    -0.029 OA 
HETATM   13  O   UNL     2      -7.439   4.607  68.182  1.00  0.00    -0.065 OA 
HETATM   14  O   UNL     2     -10.395   5.908  71.897  1.00  0.00    -0.199 OA 
HETATM   15  C   UNL     2      -7.474   4.622  69.459  1.00  0.00    -0.052 C  
HETATM   16  H   UNL     2      -7.980   4.164  67.540  1.00  0.00     0.000 HD 
HETATM   17  O   UNL     2     -10.090   3.974  69.800  1.00  0.00    -0.083 OA 
HETATM   18  C   UNL     2      -9.328   6.006  71.019  1.00  0.00    -0.161 C  
ENDBRANCH   2   8
BRANCH   2  19
HETATM   19  C   UNL     2      -8.076   6.177  74.262  1.00  0.00    -0.108 C  
HETATM   20  H   UNL     2      -8.229   4.254  74.655  1.00  0.00     0.000 HD 
HETATM   21  O   UNL     2      -7.789   4.804  74.017  1.00  0.00    -0.099 OA 
ENDBRANCH   2  19
BRANCH   4  22
HETATM   22  C   UNL     3      -8.410   6.597  70.028  1.00  0.00    -0.135 C  
HETATM   23  H   UNL     3      -4.286   5.982  69.589  1.00  0.00     0.000 HD 
HETATM   24  C   UNL     3      -6.346   6.174  67.722  1.00  0.00    -0.040 C  
HETATM   25  O   UNL     3      -9.128   6.789  68.311  1.00  0.00    -0.126 OA 
HETATM   26  O   UNL     3      -8.434   6.160  65.957  1.00  0.00    -0.129 OA 
HETATM   27  C   UNL     3      -6.317   6.233  69.264  1.00  0.00    -0.035 C  
HETATM   28  O   UNL     3      -5.492   5.740  66.889  1.00  0.00    -0.011 OA 
HETATM   29  O   UNL     3      -5.166   6.135  69.910  1.00  0.00    -0.011 OA 
HETATM   30  C   UNL     3      -8.021   6.531  67.058  1.00  0.00    -0.112 C  
ENDBRANCH   4  22
BRANCH   4  31
HETATM   31  C   UNL     3     -10.424   8.654  69.643  1.00  0.00    -0.220 C  
HETATM   32  O   UNL     3     -11.484   7.748  69.272  1.00  0.00    -0.321 OA 
HETATM   33  H   UNL     3     -12.105   8.140  68.670  1.00  0.00     0.000 HD 
ENDBRANCH   4  31
TORSDOF 4
ENDMDL
MODEL      131
REMARK 921   NORMALIZED FREE ENERGY PREDICTED BY IDOCK:   -2.43 KCAL/MOL
REMARK 922        TOTAL FREE ENERGY PREDICTED BY IDOCK:   31.33 KCAL/MOL
REMARK 923 INTER-LIGAND FREE ENERGY PREDICTED BY IDOCK:   -3.31 KCAL/MOL
REMARK 924 INTRA-LIGAND FREE ENERGY PREDICTED BY IDOCK:   34.63 KCAL/MOL
REMARK 927      BINDING AFFINITY PREDICTED BY RF-SCORE:    0.00 PKD
ROOT
HETATM    1 FE   UNL     1     -10.520   3.259  67.792  1.00  0.00    -0.100 Fe 
HETATM    2  C   UNL     2      -8.355   7.556  71.731  1.00  0.00    -0.107 C  
HETATM    3  O   UNL     2      -9.393   8.512  71.315  1.00  0.00    -0.167 OA 
HETATM    4  C   UNL     3     -10.143   6.792  68.874  1.00  0.00    -0.164 C  
HETATM    5  H   UNL     3      -9.258   8.250  69.648  1.00  0.00     0.000 HD 
HETATM    6  H   UNL     2      -9.023   8.900  70.530  1.00  0.00     0.000 HD 
HETATM    7  O   UNL     3      -9.858   8.179  68.915  1.00  0.00    -0.168 OA 
ENDROOT
BRANCH   2   8
HETATM    8  C   UNL     2      -8.267   6.427  70.710  1.00  0.00    -0.125 C  
HETATM    9  H   UNL     2     -10.496   2.750  69.810  1.00  0.00     0.000 HD 
HETATM   10  H   UNL     2     -11.355   4.505  70.495  1.00  0.00     0.000 HD 
HETATM   11  C   UNL     2      -9.047   4.012  69.477  1.00  0.00    -0.126 C  
HETATM   12  O   UNL     2      -6.575   5.677  70.168  1.00  0.00    -0.039 OA 
HETATM   13  O   UNL     2      -6.941   3.534  68.078  1.00  0.00    -0.049 OA 
HETATM   14  O   UNL     2     -10.705   5.111  70.830  1.00  0.00    -0.179 OA 
HETATM   15  C   UNL     2      -7.188   4.001  69.240  1.00  0.00    -0.050 C  
HETATM   16  H   UNL     2      -7.230   2.743  67.640  1.00  0.00     0.000 HD 
HETATM   17  O   UNL     2      -9.553   2.744  69.690  1.00  0.00    -0.113 OA 
HETATM   18  C   UNL     2      -9.574   5.208  70.036  1.00  0.00    -0.181 C  
ENDBRANCH   2   8
BRANCH   2  19
HETATM   19  C   UNL     2      -8.954   6.928  73.001  1.00  0.00    -0.126 C  
HETATM   20  H   UNL     2     -10.437   7.304  74.240  1.00  0.00     0.000 HD 
HETATM   21  O   UNL     2     -10.067   7.692  73.455  1.00  0.00    -0.325 OA 
ENDBRANCH   2  19
BRANCH   4  22
HETATM   22  C   UNL     3      -8.704   5.649  68.937  1.00  0.00    -0.107 C  
HETATM   23  H   UNL     3      -4.554   6.247  68.917  1.00  0.00     0.000 HD 
HETATM   24  C   UNL     3      -6.272   5.072  67.064  1.00  0.00    -0.032 C  
HETATM   25  O   UNL     3      -9.172   4.952  67.265  1.00  0.00    -0.117 OA 
HETATM   26  O   UNL     3      -7.975   3.747  65.386  1.00  0.00    -0.092 OA 
HETATM   27  C   UNL     3      -6.500   5.706  68.453  1.00  0.00    -0.046 C  
HETATM   28  O   UNL     3      -5.213   4.653  66.504  1.00  0.00    -0.008 OA 
HETATM   29  O   UNL     3      -5.481   6.224  69.121  1.00  0.00    -0.011 OA 
HETATM   30  C   UNL     3      -7.856   4.609  66.258  1.00  0.00    -0.099 C  
ENDBRANCH   4  22
BRANCH   4  31
HETATM   31  C   UNL     3     -11.115   6.677  67.686  1.00  0.00    -0.271 C  
HETATM   32  O   UNL     3     -10.562   7.209  66.464  1.00  0.00    -0.508 OA 
HETATM   33  H   UNL     3     -11.162   7.138  65.730  1.00  0.00     0.000 HD 
ENDBRANCH   4  31
TORSDOF 4
ENDMDL
MODEL      132
REMARK 921   NORMALIZED FREE ENERGY PREDICTED BY IDOCK:   -2.40 KCAL/MOL
REMARK 922        TOTAL FREE ENERGY PREDICTED BY IDOCK:   31.37 KCAL/MOL
REMARK 923 INTER-LIGAND FREE ENERGY PREDICTED BY IDOCK:   -3.28 KCAL/MOL
REMARK 924 INTRA-LIGAND FREE ENERGY PREDICTED BY IDOCK:   34.65 KCAL/MOL
REMARK 927      BINDING AFFINITY PREDICTED BY RF-SCORE:    0.00 PKD
ROOT
HETATM    1 FE   UNL     1      -6.952   6.976  71.883  1.00  0.00    -0.057 Fe 
HETATM    2  C   UNL     2      -7.219   8.685  65.910  1.00  0.00    -0.077 C  
HETATM    3  O   UNL     2      -6.155   9.681  66.110  1.00  0.00    -0.061 OA 
HETATM    4  C   UNL     3      -6.373   9.448  69.172  1.00  0.00    -0.042 C  
HETATM    5  H   UNL     3      -6.746  10.324  67.560  1.00  0.00     0.000 HD 
HETATM    6  H   UNL     2      -6.627  10.432  66.450  1.00  0.00     0.000 HD 
HETATM    7  O   UNL     3      -6.371  10.622  68.380  1.00  0.00    -0.053 OA 
ENDROOT
BRANCH   2   8
HETATM    8  C   UNL     2      -7.770   8.251  67.265  1.00  0.00    -0.101 C  
HETATM    9  H   UNL     2      -6.575   5.490  70.466  1.00  0.00     0.000 HD 
HETATM   10  H   UNL     2      -5.255   6.603  69.322  1.00  0.00     0.000 HD 
HETATM   11  C   UNL     2      -7.793   6.796  69.682  1.00  0.00    -0.115 C  
HETATM   12  O   UNL     2      -9.655   7.956  67.548  1.00  0.00    -0.144 OA 
HETATM   13  O   UNL     2     -10.230   7.192  70.408  1.00  0.00    -0.192 OA 
HETATM   14  O   UNL     2      -5.675   6.972  68.554  1.00  0.00    -0.017 OA 
HETATM   15  C   UNL     2      -9.620   6.980  69.307  1.00  0.00    -0.154 C  
HETATM   16  H   UNL     2     -10.213   6.731  71.239  1.00  0.00     0.000 HD 
HETATM   17  O   UNL     2      -7.502   5.583  70.276  1.00  0.00    -0.072 OA 
HETATM   18  C   UNL     2      -6.926   7.509  68.810  1.00  0.00    -0.078 C  
ENDBRANCH   2   8
BRANCH   2  19
HETATM   19  C   UNL     2      -6.455   7.469  65.359  1.00  0.00    -0.041 C  
HETATM   20  H   UNL     2      -6.892   5.752  64.503  1.00  0.00     0.000 HD 
HETATM   21  O   UNL     2      -7.364   6.503  64.843  1.00  0.00    -0.067 OA 
ENDBRANCH   2  19
BRANCH   4  22
HETATM   22  C   UNL     3      -7.941   8.489  69.228  1.00  0.00    -0.111 C  
HETATM   23  H   UNL     3     -11.802   9.207  67.760  1.00  0.00     0.000 HD 
HETATM   24  C   UNL     3     -10.804   9.023  70.356  1.00  0.00    -0.246 C  
HETATM   25  O   UNL     3      -8.008   8.688  71.087  1.00  0.00    -0.112 OA 
HETATM   26  O   UNL     3      -9.807   8.623  72.870  1.00  0.00    -0.161 OA 
HETATM   27  C   UNL     3     -10.149   8.878  68.966  1.00  0.00    -0.197 C  
HETATM   28  O   UNL     3     -12.022   8.983  70.711  1.00  0.00    -0.264 OA 
HETATM   29  O   UNL     3     -10.873   9.044  67.870  1.00  0.00    -0.178 OA 
HETATM   30  C   UNL     3      -9.562   8.947  71.706  1.00  0.00    -0.282 C  
ENDBRANCH   4  22
BRANCH   4  31
HETATM   31  C   UNL     3      -5.765   9.931  70.502  1.00  0.00    -0.062 C  
HETATM   32  O   UNL     3      -6.436  11.095  71.028  1.00  0.00    -0.399 OA 
HETATM   33  H   UNL     3      -6.061  11.393  71.849  1.00  0.00     0.000 HD 
ENDBRANCH   4  31
TORSDOF 4
ENDMDL
MODEL      133
REMARK 921   NORMALIZED FREE ENERGY PREDICTED BY IDOCK:   -2.28 KCAL/MOL
REMARK 922        TOTAL FREE ENERGY PREDICTED BY IDOCK:   31.51 KCAL/MOL
REMARK 923 INTER-LIGAND FREE ENERGY PREDICTED BY IDOCK:   -3.19 KCAL/MOL
REMARK 924 INTRA-LIGAND FREE ENERGY PREDICTED BY IDOCK:   34.70 KCAL/MOL
REMARK 927      BINDING AFFINITY PREDICTED BY RF-SCORE:    0.00 PKD
ROOT
HETATM    1 FE   UNL     1      -6.244   6.098  66.972  1.00  0.00    -0.021 Fe 
HETATM    2  C   UNL     2      -9.252   4.462  72.162  1.00  0.00    -0.127 C  
HETATM    3  O   UNL     2      -9.518   3.118  71.627  1.00  0.00    -0.120 OA 
HETATM    4  C   UNL     3      -8.689   3.973  68.788  1.00  0.00    -0.098 C  
HETATM    5  H   UNL     3      -9.996   3.605  70.078  1.00  0.00     0.000 HD 
HETATM    6  H   UNL     2     -10.296   3.250  71.098  1.00  0.00     0.000 HD 
HETATM    7  O   UNL     3      -9.864   3.293  69.191  1.00  0.00     0.003 OA 
ENDROOT
BRANCH   2   8
HETATM    8  C   UNL     2      -8.829   5.387  71.025  1.00  0.00    -0.149 C  
HETATM    9  H   UNL     2      -5.153   6.199  68.762  1.00  0.00     0.000 HD 
HETATM   10  H   UNL     2      -5.713   4.332  69.462  1.00  0.00     0.000 HD 
HETATM   11  C   UNL     2      -7.035   6.515  69.163  1.00  0.00    -0.075 C  
HETATM   12  O   UNL     2      -9.441   7.213  70.920  1.00  0.00    -0.160 OA 
HETATM   13  O   UNL     2      -8.388   8.585  68.450  1.00  0.00    -0.121 OA 
HETATM   14  O   UNL     2      -6.415   4.387  70.099  1.00  0.00    -0.030 OA 
HETATM   15  C   UNL     2      -8.180   7.951  69.539  1.00  0.00    -0.130 C  
HETATM   16  H   UNL     2      -7.792   8.933  67.797  1.00  0.00     0.000 HD 
HETATM   17  O   UNL     2      -5.733   6.927  68.952  1.00  0.00    -0.017 OA 
HETATM   18  C   UNL     2      -7.418   5.275  69.744  1.00  0.00    -0.065 C  
ENDBRANCH   2   8
BRANCH   2  19
HETATM   19  C   UNL     2      -7.992   4.249  73.019  1.00  0.00    -0.090 C  
HETATM   20  H   UNL     2      -6.707   2.799  73.366  1.00  0.00     0.000 HD 
HETATM   21  O   UNL     2      -7.485   2.930  72.837  1.00  0.00    -0.046 OA 
ENDBRANCH   2  19
BRANCH   4  22
HETATM   22  C   UNL     3      -8.638   5.786  69.090  1.00  0.00    -0.110 C  
HETATM   23  H   UNL     3     -11.447   8.538  70.545  1.00  0.00     0.000 HD 
HETATM   24  C   UNL     3     -10.266   8.236  68.039  1.00  0.00    -0.214 C  
HETATM   25  O   UNL     3      -8.456   6.097  67.254  1.00  0.00    -0.106 OA 
HETATM   26  O   UNL     3      -8.919   8.019  65.670  1.00  0.00    -0.146 OA 
HETATM   27  C   UNL     3     -10.107   7.476  69.373  1.00  0.00    -0.190 C  
HETATM   28  O   UNL     3     -10.759   9.377  67.784  1.00  0.00    -0.265 OA 
HETATM   29  O   UNL     3     -10.830   7.826  70.426  1.00  0.00    -0.237 OA 
HETATM   30  C   UNL     3      -9.312   7.442  66.685  1.00  0.00    -0.170 C  
ENDBRANCH   4  22
BRANCH   4  31
HETATM   31  C   UNL     3      -8.475   3.467  67.350  1.00  0.00    -0.097 C  
HETATM   32  O   UNL     3      -9.716   3.156  66.681  1.00  0.00    -0.412 OA 
HETATM   33  H   UNL     3      -9.584   2.844  65.794  1.00  0.00     0.000 HD 
ENDBRANCH   4  31
TORSDOF 4
ENDMDL
MODEL      134
REMARK 921   NORMALIZED FREE ENERGY PREDICTED BY IDOCK:   -2.28 KCAL/MOL
REMARK 922        TOTAL FREE ENERGY PREDICTED BY IDOCK:   31.52 KCAL/MOL
REMARK 923 INTER-LIGAND FREE ENERGY PREDICTED BY IDOCK:   -3.10 KCAL/MOL
REMARK 924 INTRA-LIGAND FREE ENERGY PREDICTED BY IDOCK:   34.62 KCAL/MOL
REMARK 927      BINDING AFFINITY PREDICTED BY RF-SCORE:    0.00 PKD
ROOT
HETATM    1 FE   UNL     1      -7.703  10.706  69.791  1.00  0.00    -0.109 Fe 
HETATM    2  C   UNL     2      -6.719   4.783  68.176  1.00  0.00    -0.054 C  
HETATM    3  O   UNL     2      -6.541   5.159  66.765  1.00  0.00    -0.049 OA 
HETATM    4  C   UNL     3      -7.669   7.979  67.270  1.00  0.00    -0.101 C  
HETATM    5  H   UNL     3      -7.859   6.216  66.667  1.00  0.00     0.000 HD 
HETATM    6  H   UNL     2      -7.433   5.204  66.442  1.00  0.00     0.000 HD 
HETATM    7  O   UNL     3      -8.035   7.056  66.260  1.00  0.00    -0.106 OA 
ENDROOT
BRANCH   2   8
HETATM    8  C   UNL     2      -7.376   5.934  68.929  1.00  0.00    -0.084 C  
HETATM    9  H   UNL     2      -6.101   9.767  70.656  1.00  0.00     0.000 HD 
HETATM   10  H   UNL     2      -5.333   8.950  68.915  1.00  0.00     0.000 HD 
HETATM   11  C   UNL     2      -7.454   8.418  70.265  1.00  0.00    -0.063 C  
HETATM   12  O   UNL     2      -8.711   5.628  70.288  1.00  0.00    -0.127 OA 
HETATM   13  O   UNL     2      -9.749   8.226  71.413  1.00  0.00    -0.163 OA 
HETATM   14  O   UNL     2      -5.572   8.036  68.816  1.00  0.00    -0.030 OA 
HETATM   15  C   UNL     2      -8.776   7.438  71.162  1.00  0.00    -0.137 C  
HETATM   16  H   UNL     2      -9.780   9.081  71.826  1.00  0.00     0.000 HD 
HETATM   17  O   UNL     2      -6.772   9.270  71.111  1.00  0.00    -0.092 OA 
HETATM   18  C   UNL     2      -6.896   7.772  69.128  1.00  0.00    -0.049 C  
ENDBRANCH   2   8
BRANCH   2  19
HETATM   19  C   UNL     2      -5.273   4.710  68.698  1.00  0.00    -0.004 C  
HETATM   20  H   UNL     2      -4.359   4.779  70.440  1.00  0.00     0.000 HD 
HETATM   21  O   UNL     2      -5.252   4.823  70.117  1.00  0.00     0.000 OA 
ENDBRANCH   2  19
BRANCH   4  22
HETATM   22  C   UNL     3      -8.337   7.670  68.955  1.00  0.00    -0.129 C  
HETATM   23  H   UNL     3     -11.036   4.861  70.506  1.00  0.00     0.000 HD 
HETATM   24  C   UNL     3     -11.197   7.628  70.211  1.00  0.00    -0.216 C  
HETATM   25  O   UNL     3      -9.215   9.322  68.920  1.00  0.00    -0.140 OA 
HETATM   26  O   UNL     3     -11.209  10.359  70.089  1.00  0.00    -0.279 OA 
HETATM   27  C   UNL     3     -10.092   6.599  69.888  1.00  0.00    -0.176 C  
HETATM   28  O   UNL     3     -12.220   7.544  70.957  1.00  0.00    -0.309 OA 
HETATM   29  O   UNL     3     -10.298   5.311  70.114  1.00  0.00    -0.261 OA 
HETATM   30  C   UNL     3     -10.753   9.312  69.627  1.00  0.00    -0.230 C  
ENDBRANCH   4  22
BRANCH   4  31
HETATM   31  C   UNL     3      -7.954   9.340  66.610  1.00  0.00    -0.108 C  
HETATM   32  O   UNL     3      -6.815  10.225  66.650  1.00  0.00    -0.083 OA 
HETATM   33  H   UNL     3      -6.991  11.065  66.243  1.00  0.00     0.000 HD 
ENDBRANCH   4  31
TORSDOF 4
ENDMDL
MODEL      135
REMARK 921   NORMALIZED FREE ENERGY PREDICTED BY IDOCK:   -2.12 KCAL/MOL
REMARK 922        TOTAL FREE ENERGY PREDICTED BY IDOCK:   31.71 KCAL/MOL
REMARK 923 INTER-LIGAND FREE ENERGY PREDICTED BY IDOCK:   -3.26 KCAL/MOL
REMARK 924 INTRA-LIGAND FREE ENERGY PREDICTED BY IDOCK:   34.97 KCAL/MOL
REMARK 927      BINDING AFFINITY PREDICTED BY RF-SCORE:    0.00 PKD
ROOT
HETATM    1 FE   UNL     1     -10.647   8.169  71.795  1.00  0.00    -0.200 Fe 
HETATM    2  C   UNL     2      -7.792   5.767  66.822  1.00  0.00    -0.101 C  
HETATM    3  O   UNL     2      -8.032   4.397  67.301  1.00  0.00    -0.099 OA 
HETATM    4  C   UNL     3      -8.838   5.407  70.095  1.00  0.00    -0.127 C  
HETATM    5  H   UNL     3      -7.590   4.664  68.913  1.00  0.00     0.000 HD 
HETATM    6  H   UNL     2      -7.314   4.255  67.907  1.00  0.00     0.000 HD 
HETATM    7  O   UNL     3      -7.909   4.391  69.765  1.00  0.00    -0.057 OA 
ENDROOT
BRANCH   2   8
HETATM    8  C   UNL     2      -8.013   6.751  67.966  1.00  0.00    -0.114 C  
HETATM    9  H   UNL     2     -11.455   8.578  69.993  1.00  0.00     0.000 HD 
HETATM   10  H   UNL     2     -11.419   6.644  69.252  1.00  0.00     0.000 HD 
HETATM   11  C   UNL     2      -9.537   8.325  69.742  1.00  0.00    -0.171 C  
HETATM   12  O   UNL     2      -6.897   8.308  68.196  1.00  0.00    -0.066 OA 
HETATM   13  O   UNL     2      -7.694   9.879  70.643  1.00  0.00    -0.335 OA 
HETATM   14  O   UNL     2     -10.682   6.500  68.671  1.00  0.00    -0.219 OA 
HETATM   15  C   UNL     2      -7.992   9.360  69.515  1.00  0.00    -0.098 C  
HETATM   16  H   UNL     2      -8.211  10.376  71.266  1.00  0.00     0.000 HD 
HETATM   17  O   UNL     2     -10.671   9.103  69.878  1.00  0.00    -0.222 OA 
HETATM   18  C   UNL     2      -9.494   7.040  69.136  1.00  0.00    -0.143 C  
ENDBRANCH   2   8
BRANCH   2  19
HETATM   19  C   UNL     2      -8.955   5.997  65.841  1.00  0.00    -0.133 C  
HETATM   20  H   UNL     2      -9.660   5.152  64.209  1.00  0.00     0.000 HD 
HETATM   21  O   UNL     2      -8.941   5.010  64.814  1.00  0.00    -0.151 OA 
ENDBRANCH   2  19
BRANCH   4  22
HETATM   22  C   UNL     3      -8.270   7.144  69.894  1.00  0.00    -0.133 C  
HETATM   23  H   UNL     3      -4.641   8.860  68.682  1.00  0.00     0.000 HD 
HETATM   24  C   UNL     3      -5.973   8.863  71.130  1.00  0.00    -0.050 C  
HETATM   25  O   UNL     3      -8.425   7.419  71.738  1.00  0.00    -0.107 OA 
HETATM   26  O   UNL     3      -7.426   9.007  73.441  1.00  0.00    -0.287 OA 
HETATM   27  C   UNL     3      -6.311   8.258  69.751  1.00  0.00    -0.036 C  
HETATM   28  O   UNL     3      -5.142   9.762  71.463  1.00  0.00    -0.058 OA 
HETATM   29  O   UNL     3      -5.465   8.391  68.742  1.00  0.00    -0.034 OA 
HETATM   30  C   UNL     3      -7.199   8.375  72.407  1.00  0.00    -0.083 C  
ENDBRANCH   4  22
BRANCH   4  31
HETATM   31  C   UNL     3      -9.355   4.964  71.476  1.00  0.00    -0.149 C  
HETATM   32  O   UNL     3      -8.661   3.805  71.983  1.00  0.00    -0.093 OA 
HETATM   33  H   UNL     3      -8.980   3.532  72.835  1.00  0.00     0.000 HD 
ENDBRANCH   4  31
TORSDOF 4
ENDMDL
MODEL      136
REMARK 921   NORMALIZED FREE ENERGY PREDICTED BY IDOCK:   -2.11 KCAL/MOL
REMARK 922        TOTAL FREE ENERGY PREDICTED BY IDOCK:   31.73 KCAL/MOL
REMARK 923 INTER-LIGAND FREE ENERGY PREDICTED BY IDOCK:   -2.89 KCAL/MOL
REMARK 924 INTRA-LIGAND FREE ENERGY PREDICTED BY IDOCK:   34.62 KCAL/MOL
REMARK 927      BINDING AFFINITY PREDICTED BY RF-SCORE:    0.00 PKD
ROOT
HETATM    1 FE   UNL     1      -8.591  11.002  69.795  1.00  0.00    -0.316 Fe 
HETATM    2  C   UNL     2      -5.999   8.599  64.680  1.00  0.00    -0.064 C  
HETATM    3  O   UNL     2      -7.227   8.831  63.905  1.00  0.00    -0.093 OA 
HETATM    4  C   UNL     3      -8.853   9.394  66.458  1.00  0.00    -0.136 C  
HETATM    5  H   UNL     3      -8.316   8.260  65.069  1.00  0.00     0.000 HD 
HETATM    6  H   UNL     2      -7.758   8.072  64.114  1.00  0.00     0.000 HD 
HETATM    7  O   UNL     3      -9.170   8.518  65.392  1.00  0.00    -0.117 OA 
ENDROOT
BRANCH   2   8
HETATM    8  C   UNL     2      -6.311   8.707  66.170  1.00  0.00    -0.056 C  
HETATM    9  H   UNL     2      -6.890  11.939  69.088  1.00  0.00     0.000 HD 
HETATM   10  H   UNL     2      -7.482  12.027  67.105  1.00  0.00     0.000 HD 
HETATM   11  C   UNL     2      -6.796  10.053  68.601  1.00  0.00    -0.054 C  
HETATM   12  O   UNL     2      -5.514   7.518  67.463  1.00  0.00    -0.031 OA 
HETATM   13  O   UNL     2      -6.515   8.096  70.248  1.00  0.00    -0.036 OA 
HETATM   14  O   UNL     2      -7.090  11.335  66.586  1.00  0.00    -0.138 OA 
HETATM   15  C   UNL     2      -5.945   8.484  69.174  1.00  0.00    -0.042 C  
HETATM   16  H   UNL     2      -6.718   8.552  71.056  1.00  0.00     0.000 HD 
HETATM   17  O   UNL     2      -6.458  11.143  69.379  1.00  0.00    -0.076 OA 
HETATM   18  C   UNL     2      -7.099  10.099  67.213  1.00  0.00    -0.088 C  
ENDBRANCH   2   8
BRANCH   2  19
HETATM   19  C   UNL     2      -5.140   9.829  64.341  1.00  0.00    -0.063 C  
HETATM   20  H   UNL     2      -5.320  11.468  63.267  1.00  0.00     0.000 HD 
HETATM   21  O   UNL     2      -5.851  10.709  63.477  1.00  0.00    -0.130 OA 
ENDBRANCH   2  19
BRANCH   4  22
HETATM   22  C   UNL     3      -7.605   8.805  67.671  1.00  0.00    -0.097 C  
HETATM   23  H   UNL     3      -5.589   5.164  68.182  1.00  0.00     0.000 HD 
HETATM   24  C   UNL     3      -7.487   6.473  69.747  1.00  0.00    -0.088 C  
HETATM   25  O   UNL     3      -8.864   8.939  69.048  1.00  0.00    -0.134 OA 
HETATM   26  O   UNL     3      -9.190   7.904  71.337  1.00  0.00    -0.132 OA 
HETATM   27  C   UNL     3      -6.796   6.832  68.414  1.00  0.00    -0.074 C  
HETATM   28  O   UNL     3      -7.181   5.627  70.642  1.00  0.00    -0.072 OA 
HETATM   29  O   UNL     3      -5.929   5.993  67.869  1.00  0.00    -0.015 OA 
HETATM   30  C   UNL     3      -8.784   7.695  70.192  1.00  0.00    -0.141 C  
ENDBRANCH   4  22
BRANCH   4  31
HETATM   31  C   UNL     3     -10.239   9.813  66.982  1.00  0.00    -0.229 C  
HETATM   32  O   UNL     3     -11.027   8.688  67.426  1.00  0.00    -0.464 OA 
HETATM   33  H   UNL     3     -11.882   8.946  67.750  1.00  0.00     0.000 HD 
ENDBRANCH   4  31
TORSDOF 4
ENDMDL
MODEL      137
REMARK 921   NORMALIZED FREE ENERGY PREDICTED BY IDOCK:   -2.04 KCAL/MOL
REMARK 922        TOTAL FREE ENERGY PREDICTED BY IDOCK:   31.81 KCAL/MOL
REMARK 923 INTER-LIGAND FREE ENERGY PREDICTED BY IDOCK:   -2.55 KCAL/MOL
REMARK 924 INTRA-LIGAND FREE ENERGY PREDICTED BY IDOCK:   34.36 KCAL/MOL
REMARK 927      BINDING AFFINITY PREDICTED BY RF-SCORE:    0.00 PKD
ROOT
HETATM    1 FE   UNL     1      -6.670   6.886  64.931  1.00  0.00    -0.038 Fe 
HETATM    2  C   UNL     2      -8.446   7.449  70.863  1.00  0.00    -0.123 C  
HETATM    3  O   UNL     2      -9.830   7.086  70.520  1.00  0.00    -0.179 OA 
HETATM    4  C   UNL     3      -9.285   7.435  67.511  1.00  0.00    -0.130 C  
HETATM    5  H   UNL     3      -9.962   8.059  69.141  1.00  0.00     0.000 HD 
HETATM    6  H   UNL     2     -10.200   7.911  70.227  1.00  0.00     0.000 HD 
HETATM    7  O   UNL     3     -10.346   7.973  68.277  1.00  0.00    -0.201 OA 
ENDROOT
BRANCH   2   8
HETATM    8  C   UNL     2      -7.688   7.815  69.591  1.00  0.00    -0.101 C  
HETATM    9  H   UNL     2      -5.747   5.658  66.293  1.00  0.00     0.000 HD 
HETATM   10  H   UNL     2      -7.471   5.030  67.253  1.00  0.00     0.000 HD 
HETATM   11  C   UNL     2      -6.266   7.300  67.209  1.00  0.00    -0.053 C  
HETATM   12  O   UNL     2      -6.420   9.269  69.546  1.00  0.00    -0.042 OA 
HETATM   13  O   UNL     2      -5.258   9.629  66.787  1.00  0.00    -0.040 OA 
HETATM   14  O   UNL     2      -7.619   5.502  68.064  1.00  0.00    -0.080 OA 
HETATM   15  C   UNL     2      -5.483   8.894  67.807  1.00  0.00    -0.035 C  
HETATM   16  H   UNL     2      -4.816   9.453  65.965  1.00  0.00     0.000 HD 
HETATM   17  O   UNL     2      -5.350   6.467  66.595  1.00  0.00    -0.012 OA 
HETATM   18  C   UNL     2      -7.392   6.865  67.961  1.00  0.00    -0.097 C  
ENDBRANCH   2   8
BRANCH   2  19
HETATM   19  C   UNL     2      -7.847   6.115  71.339  1.00  0.00    -0.108 C  
HETATM   20  H   UNL     2      -8.430   4.241  71.493  1.00  0.00     0.000 HD 
HETATM   21  O   UNL     2      -8.800   5.065  71.199  1.00  0.00    -0.125 OA 
ENDBRANCH   2  19
BRANCH   4  22
HETATM   22  C   UNL     3      -7.652   8.268  67.659  1.00  0.00    -0.098 C  
HETATM   23  H   UNL     3      -6.364  11.740  69.624  1.00  0.00     0.000 HD 
HETATM   24  C   UNL     3      -6.552  11.096  66.919  1.00  0.00    -0.124 C  
HETATM   25  O   UNL     3      -7.664   8.640  65.825  1.00  0.00    -0.087 OA 
HETATM   26  O   UNL     3      -6.561  10.330  64.294  1.00  0.00    -0.127 OA 
HETATM   27  C   UNL     3      -6.859  10.308  68.210  1.00  0.00    -0.065 C  
HETATM   28  O   UNL     3      -5.865  12.146  66.727  1.00  0.00    -0.265 OA 
HETATM   29  O   UNL     3      -6.698  10.882  69.392  1.00  0.00    -0.080 OA 
HETATM   30  C   UNL     3      -7.041  10.159  65.416  1.00  0.00    -0.143 C  
ENDBRANCH   4  22
BRANCH   4  31
HETATM   31  C   UNL     3      -9.908   7.296  66.110  1.00  0.00     0.165 C  
HETATM   32  O   UNL     3      -9.242   6.303  65.302  1.00  0.00    -0.363 OA 
HETATM   33  H   UNL     3      -9.626   6.218  64.438  1.00  0.00     0.000 HD 
ENDBRANCH   4  31
TORSDOF 4
ENDMDL
MODEL      138
REMARK 921   NORMALIZED FREE ENERGY PREDICTED BY IDOCK:   -1.93 KCAL/MOL
REMARK 922        TOTAL FREE ENERGY PREDICTED BY IDOCK:   31.95 KCAL/MOL
REMARK 923 INTER-LIGAND FREE ENERGY PREDICTED BY IDOCK:   -2.64 KCAL/MOL
REMARK 924 INTRA-LIGAND FREE ENERGY PREDICTED BY IDOCK:   34.59 KCAL/MOL
REMARK 927      BINDING AFFINITY PREDICTED BY RF-SCORE:    0.00 PKD
ROOT
HETATM    1 FE   UNL     1     -11.674   4.834  71.536  1.00  0.00     0.148 Fe 
HETATM    2  C   UNL     2      -7.391   5.624  67.099  1.00  0.00    -0.080 C  
HETATM    3  O   UNL     2      -7.142   4.176  67.031  1.00  0.00    -0.064 OA 
HETATM    4  C   UNL     3      -8.691   3.684  69.645  1.00  0.00    -0.076 C  
HETATM    5  H   UNL     3      -7.089   3.898  68.700  1.00  0.00     0.000 HD 
HETATM    6  H   UNL     2      -6.526   4.032  67.740  1.00  0.00     0.000 HD 
HETATM    7  O   UNL     3      -7.400   3.224  69.292  1.00  0.00    -0.048 OA 
ENDROOT
BRANCH   2   8
HETATM    8  C   UNL     2      -8.150   5.949  68.381  1.00  0.00    -0.109 C  
HETATM    9  H   UNL     2     -12.309   5.731  69.777  1.00  0.00     0.000 HD 
HETATM   10  H   UNL     2     -11.428   4.365  68.493  1.00  0.00     0.000 HD 
HETATM   11  C   UNL     2     -10.424   6.158  70.037  1.00  0.00    -0.234 C  
HETATM   12  O   UNL     2      -7.755   7.523  69.424  1.00  0.00    -0.106 OA 
HETATM   13  O   UNL     2      -9.476   7.663  71.896  1.00  0.00    -0.142 OA 
HETATM   14  O   UNL     2     -10.606   4.686  68.142  1.00  0.00     0.180 OA 
HETATM   15  C   UNL     2      -9.366   7.588  70.627  1.00  0.00    -0.163 C  
HETATM   16  H   UNL     2     -10.236   7.694  72.465  1.00  0.00     0.000 HD 
HETATM   17  O   UNL     2     -11.773   6.456  70.076  1.00  0.00    -0.429 OA 
HETATM   18  C   UNL     2      -9.802   5.302  69.087  1.00  0.00    -0.187 C  
ENDBRANCH   2   8
BRANCH   2  19
HETATM   19  C   UNL     2      -8.388   5.857  65.950  1.00  0.00    -0.136 C  
HETATM   20  H   UNL     2      -9.359   4.763  64.634  1.00  0.00     0.000 HD 
HETATM   21  O   UNL     2      -8.743   4.619  65.343  1.00  0.00    -0.124 OA 
ENDBRANCH   2  19
BRANCH   4  22
HETATM   22  C   UNL     3      -8.828   5.439  70.175  1.00  0.00    -0.142 C  
HETATM   23  H   UNL     3      -6.004   8.454  70.892  1.00  0.00     0.000 HD 
HETATM   24  C   UNL     3      -7.746   7.096  72.592  1.00  0.00    -0.088 C  
HETATM   25  O   UNL     3      -9.494   4.896  71.837  1.00  0.00    -0.142 OA 
HETATM   26  O   UNL     3      -9.621   5.882  74.167  1.00  0.00    -0.146 OA 
HETATM   27  C   UNL     3      -7.494   7.025  71.071  1.00  0.00    -0.081 C  
HETATM   28  O   UNL     3      -7.439   7.983  73.446  1.00  0.00    -0.127 OA 
HETATM   29  O   UNL     3      -6.565   7.787  70.515  1.00  0.00    -0.038 OA 
HETATM   30  C   UNL     3      -8.934   5.811  73.147  1.00  0.00    -0.124 C  
ENDBRANCH   4  22
BRANCH   4  31
HETATM   31  C   UNL     3      -9.195   2.591  70.605  1.00  0.00    -0.133 C  
HETATM   32  O   UNL     3      -8.274   2.336  71.687  1.00  0.00    -0.050 OA 
HETATM   33  H   UNL     3      -8.585   1.662  72.279  1.00  0.00     0.000 HD 
ENDBRANCH   4  31
TORSDOF 4
ENDMDL
MODEL      139
REMARK 921   NORMALIZED FREE ENERGY PREDICTED BY IDOCK:   -1.48 KCAL/MOL
REMARK 922        TOTAL FREE ENERGY PREDICTED BY IDOCK:   32.50 KCAL/MOL
REMARK 923 INTER-LIGAND FREE ENERGY PREDICTED BY IDOCK:   -2.18 KCAL/MOL
REMARK 924 INTRA-LIGAND FREE ENERGY PREDICTED BY IDOCK:   34.69 KCAL/MOL
REMARK 927      BINDING AFFINITY PREDICTED BY RF-SCORE:    0.00 PKD
ROOT
HETATM    1 FE   UNL     1      -7.150   9.242  67.268  1.00  0.00    -0.072 Fe 
HETATM    2  C   UNL     2      -8.012  15.201  68.820  1.00  0.00    -0.162 C  
HETATM    3  O   UNL     2      -6.777  15.210  69.618  1.00  0.00    -0.155 OA 
HETATM    4  C   UNL     3      -6.571  12.140  69.519  1.00  0.00    -0.065 C  
HETATM    5  H   UNL     3      -7.027  13.729  70.399  1.00  0.00     0.000 HD 
HETATM    6  H   UNL     2      -7.059  14.848  70.451  1.00  0.00     0.000 HD 
HETATM    7  O   UNL     3      -6.489  12.987  70.650  1.00  0.00     0.090 OA 
ENDROOT
BRANCH   2   8
HETATM    8  C   UNL     2      -8.420  13.760  68.530  1.00  0.00    -0.117 C  
HETATM    9  H   UNL     2      -7.390  10.680  65.573  1.00  0.00     0.000 HD 
HETATM   10  H   UNL     2      -6.053  12.061  66.344  1.00  0.00     0.000 HD 
HETATM   11  C   UNL     2      -8.385  11.314  67.126  1.00  0.00    -0.151 C  
HETATM   12  O   UNL     2     -10.250  13.172  68.685  1.00  0.00    -0.234 OA 
HETATM   13  O   UNL     2     -10.513  10.229  68.084  1.00  0.00    -0.167 OA 
HETATM   14  O   UNL     2      -6.495  12.767  66.799  1.00  0.00     0.017 OA 
HETATM   15  C   UNL     2     -10.156  11.403  67.733  1.00  0.00    -0.181 C  
HETATM   16  H   UNL     2     -10.468   9.393  67.634  1.00  0.00     0.000 HD 
HETATM   17  O   UNL     2      -8.289  10.725  65.880  1.00  0.00    -0.159 OA 
HETATM   18  C   UNL     2      -7.530  12.340  67.615  1.00  0.00    -0.134 C  
ENDBRANCH   2   8
BRANCH   2  19
HETATM   19  C   UNL     2      -7.556  15.787  67.473  1.00  0.00    -0.168 C  
HETATM   20  H   UNL     2      -5.878  16.431  66.669  1.00  0.00     0.000 HD 
HETATM   21  O   UNL     2      -6.160  16.069  67.501  1.00  0.00    -0.145 OA 
ENDBRANCH   2  19
BRANCH   4  22
HETATM   22  C   UNL     3      -8.253  11.809  68.853  1.00  0.00     0.054 C  
HETATM   23  H   UNL     3     -12.113  12.724  70.212  1.00  0.00     0.000 HD 
HETATM   24  C   UNL     3     -10.776  10.298  69.905  1.00  0.00    -0.294 C  
HETATM   25  O   UNL     3      -8.000   9.972  69.097  1.00  0.00    -0.096 OA 
HETATM   26  O   UNL     3      -9.489   7.942  69.385  1.00  0.00    -0.156 OA 
HETATM   27  C   UNL     3     -10.376  11.761  69.620  1.00  0.00     0.584 C  
HETATM   28  O   UNL     3     -11.914   9.766  70.088  1.00  0.00    -0.160 OA 
HETATM   29  O   UNL     3     -11.220  12.744  69.889  1.00  0.00    -0.039 OA 
HETATM   30  C   UNL     3      -9.373   9.143  69.638  1.00  0.00    -0.172 C  
ENDBRANCH   4  22
BRANCH   4  31
HETATM   31  C   UNL     3      -5.699  10.938  69.926  1.00  0.00    -0.067 C  
HETATM   32  O   UNL     3      -5.207  10.199  68.788  1.00  0.00    -0.036 OA 
HETATM   33  H   UNL     3      -4.670   9.457  69.040  1.00  0.00     0.000 HD 
ENDBRANCH   4  31
TORSDOF 4
ENDMDL
MODEL      140
REMARK 921   NORMALIZED FREE ENERGY PREDICTED BY IDOCK:   -1.23 KCAL/MOL
REMARK 922        TOTAL FREE ENERGY PREDICTED BY IDOCK:   32.81 KCAL/MOL
REMARK 923 INTER-LIGAND FREE ENERGY PREDICTED BY IDOCK:   -2.33 KCAL/MOL
REMARK 924 INTRA-LIGAND FREE ENERGY PREDICTED BY IDOCK:   35.15 KCAL/MOL
REMARK 927      BINDING AFFINITY PREDICTED BY RF-SCORE:    0.00 PKD
ROOT
HETATM    1 FE   UNL     1     -10.147   2.079  66.971  1.00  0.00    -0.384 Fe 
HETATM    2  C   UNL     2      -7.971   7.412  69.312  1.00  0.00    -0.118 C  
HETATM    3  O   UNL     2      -9.128   8.156  68.790  1.00  0.00    -0.144 OA 
HETATM    4  C   UNL     3      -9.975   5.789  67.012  1.00  0.00    -0.165 C  
HETATM    5  H   UNL     3      -9.146   7.452  67.251  1.00  0.00     0.000 HD 
HETATM    6  H   UNL     2      -8.879   8.333  67.890  1.00  0.00     0.000 HD 
HETATM    7  O   UNL     3      -9.811   7.147  66.645  1.00  0.00    -0.194 OA 
ENDROOT
BRANCH   2   8
HETATM    8  C   UNL     2      -7.891   6.052  68.628  1.00  0.00    -0.100 C  
HETATM    9  H   UNL     2      -9.877   2.153  69.021  1.00  0.00     0.000 HD 
HETATM   10  H   UNL     2     -10.808   3.980  69.311  1.00  0.00     0.000 HD 
HETATM   11  C   UNL     2      -8.582   3.352  68.190  1.00  0.00    -0.095 C  
HETATM   12  O   UNL     2      -6.204   5.275  68.105  1.00  0.00    -0.031 OA 
HETATM   13  O   UNL     2      -6.596   2.623  66.725  1.00  0.00    -0.035 OA 
HETATM   14  O   UNL     2     -10.182   4.690  69.390  1.00  0.00    -0.184 OA 
HETATM   15  C   UNL     2      -6.763   3.378  67.741  1.00  0.00    -0.042 C  
HETATM   16  H   UNL     2      -6.860   1.727  66.553  1.00  0.00     0.000 HD 
HETATM   17  O   UNL     2      -8.954   2.166  68.794  1.00  0.00    -0.090 OA 
HETATM   18  C   UNL     2      -9.151   4.625  68.467  1.00  0.00    -0.120 C  
ENDBRANCH   2   8
BRANCH   2  19
HETATM   19  C   UNL     2      -8.374   7.126  70.769  1.00  0.00    -0.128 C  
HETATM   20  H   UNL     2      -9.646   7.848  72.086  1.00  0.00     0.000 HD 
HETATM   21  O   UNL     2      -9.397   8.024  71.186  1.00  0.00    -0.145 OA 
ENDBRANCH   2  19
BRANCH   4  22
HETATM   22  C   UNL     3      -8.442   4.791  67.197  1.00  0.00    -0.105 C  
HETATM   23  H   UNL     3      -4.397   5.563  66.404  1.00  0.00     0.000 HD 
HETATM   24  C   UNL     3      -6.216   3.800  65.242  1.00  0.00    -0.027 C  
HETATM   25  O   UNL     3      -9.047   3.601  65.887  1.00  0.00    -0.139 OA 
HETATM   26  O   UNL     3      -7.986   1.947  64.288  1.00  0.00    -0.067 OA 
HETATM   27  C   UNL     3      -6.328   4.810  66.403  1.00  0.00    -0.036 C  
HETATM   28  O   UNL     3      -5.200   3.285  64.681  1.00  0.00    -0.008 OA 
HETATM   29  O   UNL     3      -5.286   5.555  66.738  1.00  0.00    -0.008 OA 
HETATM   30  C   UNL     3      -7.839   3.037  64.844  1.00  0.00    -0.082 C  
ENDBRANCH   4  22
BRANCH   4  31
HETATM   31  C   UNL     3     -11.052   5.295  66.030  1.00  0.00     0.225 C  
HETATM   32  O   UNL     3     -10.534   5.080  64.701  1.00  0.00    -0.113 OA 
HETATM   33  H   UNL     3     -11.199   4.775  64.095  1.00  0.00     0.000 HD 
ENDBRANCH   4  31
TORSDOF 4
ENDMDL
MODEL      141
REMARK 921   NORMALIZED FREE ENERGY PREDICTED BY IDOCK:    0.44 KCAL/MOL
REMARK 922        TOTAL FREE ENERGY PREDICTED BY IDOCK:   34.87 KCAL/MOL
REMARK 923 INTER-LIGAND FREE ENERGY PREDICTED BY IDOCK:   -2.00 KCAL/MOL
REMARK 924 INTRA-LIGAND FREE ENERGY PREDICTED BY IDOCK:   36.87 KCAL/MOL
REMARK 927      BINDING AFFINITY PREDICTED BY RF-SCORE:    0.00 PKD
ROOT
HETATM    1 FE   UNL     1      -6.913   4.003  69.887  1.00  0.00    -0.035 Fe 
HETATM    2  C   UNL     2      -8.362   9.191  66.780  1.00  0.00    -0.123 C  
HETATM    3  O   UNL     2      -9.755   9.125  67.249  1.00  0.00    -0.156 OA 
HETATM    4  C   UNL     3      -9.389   6.238  68.252  1.00  0.00    -0.112 C  
HETATM    5  H   UNL     3      -9.986   7.471  66.975  1.00  0.00     0.000 HD 
HETATM    6  H   UNL     2     -10.159   8.524  66.633  1.00  0.00     0.000 HD 
HETATM    7  O   UNL     3     -10.417   6.755  67.428  1.00  0.00    -0.196 OA 
ENDROOT
BRANCH   2   8
HETATM    8  C   UNL     2      -7.685   7.843  67.011  1.00  0.00    -0.100 C  
HETATM    9  H   UNL     2      -6.121   5.597  70.446  1.00  0.00     0.000 HD 
HETATM   10  H   UNL     2      -7.797   6.812  70.502  1.00  0.00     0.000 HD 
HETATM   11  C   UNL     2      -6.479   5.802  68.540  1.00  0.00    -0.042 C  
HETATM   12  O   UNL     2      -6.349   7.158  65.800  1.00  0.00    -0.042 OA 
HETATM   13  O   UNL     2      -5.384   4.433  66.657  1.00  0.00    -0.012 OA 
HETATM   14  O   UNL     2      -7.857   7.371  69.737  1.00  0.00    -0.110 OA 
HETATM   15  C   UNL     2      -5.569   5.671  66.907  1.00  0.00    -0.016 C  
HETATM   16  H   UNL     2      -5.016   3.730  67.180  1.00  0.00     0.000 HD 
HETATM   17  O   UNL     2      -5.659   5.530  69.618  1.00  0.00    -0.007 OA 
HETATM   18  C   UNL     2      -7.566   6.719  68.550  1.00  0.00    -0.104 C  
ENDBRANCH   2   8
BRANCH   2  19
HETATM   19  C   UNL     2      -7.709  10.164  67.777  1.00  0.00    -0.090 C  
HETATM   20  H   UNL     2      -7.923  12.046  68.312  1.00  0.00     0.000 HD 
HETATM   21  O   UNL     2      -8.326  11.445  67.696  1.00  0.00    -0.123 OA 
ENDBRANCH   2  19
BRANCH   4  22
HETATM   22  C   UNL     3      -7.768   5.909  67.447  1.00  0.00    -0.097 C  
HETATM   23  H   UNL     3      -6.605   5.325  63.462  1.00  0.00     0.000 HD 
HETATM   24  C   UNL     3      -6.626   3.615  65.662  1.00  0.00    -0.037 C  
HETATM   25  O   UNL     3      -7.668   4.249  68.304  1.00  0.00    -0.073 OA 
HETATM   26  O   UNL     3      -6.473   2.052  67.901  1.00  0.00    -0.028 OA 
HETATM   27  C   UNL     3      -7.011   5.098  65.481  1.00  0.00    -0.065 C  
HETATM   28  O   UNL     3      -5.929   2.841  64.937  1.00  0.00    -0.017 OA 
HETATM   29  O   UNL     3      -6.924   5.666  64.289  1.00  0.00    -0.048 OA 
HETATM   30  C   UNL     3      -7.021   3.009  67.351  1.00  0.00    -0.049 C  
ENDBRANCH   4  22
BRANCH   4  31
HETATM   31  C   UNL     3     -10.087   5.078  68.985  1.00  0.00    -0.168 C  
HETATM   32  O   UNL     3      -9.505   4.808  70.278  1.00  0.00    -0.144 OA 
HETATM   33  H   UNL     3      -9.936   4.092  70.730  1.00  0.00     0.000 HD 
ENDBRANCH   4  31
TORSDOF 4
ENDMDL
MODEL      142
REMARK 921   NORMALIZED FREE ENERGY PREDICTED BY IDOCK:    0.44 KCAL/MOL
REMARK 922        TOTAL FREE ENERGY PREDICTED BY IDOCK:   34.88 KCAL/MOL
REMARK 923 INTER-LIGAND FREE ENERGY PREDICTED BY IDOCK:   -0.39 KCAL/MOL
REMARK 924 INTRA-LIGAND FREE ENERGY PREDICTED BY IDOCK:   35.26 KCAL/MOL
REMARK 927      BINDING AFFINITY PREDICTED BY RF-SCORE:    0.00 PKD
ROOT
HETATM    1 FE   UNL     1      -8.658  11.921  69.556  1.00  0.00    -0.351 Fe 
HETATM    2  C   UNL     2     -12.244  13.946  64.898  1.00  0.00    -0.422 C  
HETATM    3  O   UNL     2     -11.065  14.231  64.066  1.00  0.00    -0.550 OA 
HETATM    4  C   UNL     3      -9.168  13.926  66.472  1.00  0.00    -0.200 C  
HETATM    5  H   UNL     3     -10.142  14.982  65.270  1.00  0.00     0.000 HD 
HETATM    6  H   UNL     2     -10.796  15.092  64.366  1.00  0.00     0.000 HD 
HETATM    7  O   UNL     3      -9.229  14.983  65.532  1.00  0.00    -0.070 OA 
ENDROOT
BRANCH   2   8
HETATM    8  C   UNL     2     -11.810  13.763  66.349  1.00  0.00    -0.434 C  
HETATM    9  H   UNL     2     -10.276  10.484  68.838  1.00  0.00     0.000 HD 
HETATM   10  H   UNL     2      -9.824  10.748  66.834  1.00  0.00     0.000 HD 
HETATM   11  C   UNL     2     -10.847  12.331  68.581  1.00  0.00    -0.236 C  
HETATM   12  O   UNL     2     -12.770  14.582  67.807  1.00  0.00     0.313 OA 
HETATM   13  O   UNL     2     -11.465  13.980  70.458  1.00  0.00    -0.499 OA 
HETATM   14  O   UNL     2     -10.404  11.374  66.418  1.00  0.00    -0.226 OA 
HETATM   15  C   UNL     2     -12.002  13.578  69.371  1.00  0.00    -0.330 C  
HETATM   16  H   UNL     2     -11.102  13.505  71.197  1.00  0.00     0.000 HD 
HETATM   17  O   UNL     2     -10.862  11.116  69.239  1.00  0.00    -0.224 OA 
HETATM   18  C   UNL     2     -10.643  12.504  67.184  1.00  0.00    -0.228 C  
ENDBRANCH   2   8
BRANCH   2  19
HETATM   19  C   UNL     2     -12.680  12.553  64.411  1.00  0.00    -0.358 C  
HETATM   20  H   UNL     2     -11.925  11.101  63.318  1.00  0.00     0.000 HD 
HETATM   21  O   UNL     2     -11.656  11.961  63.618  1.00  0.00    -0.427 OA 
ENDBRANCH   2  19
BRANCH   4  22
HETATM   22  C   UNL     3     -10.452  13.914  67.788  1.00  0.00    -0.243 C  
HETATM   23  H   UNL     3     -13.610  16.500  68.747  1.00  0.00     0.000 HD 
HETATM   24  C   UNL     3     -11.255  15.862  70.094  1.00  0.00    -0.364 C  
HETATM   25  O   UNL     3      -9.131  14.143  69.093  1.00  0.00     0.034 OA 
HETATM   26  O   UNL     3      -9.035  15.038  71.461  1.00  0.00     2.803 OA 
HETATM   27  C   UNL     3     -11.865  15.382  68.760  1.00  0.00    -0.318 C  
HETATM   28  O   UNL     3     -11.780  16.460  71.082  1.00  0.00    -0.374 OA 
HETATM   29  O   UNL     3     -13.016  15.882  68.338  1.00  0.00     1.474 OA 
HETATM   30  C   UNL     3      -9.573  15.174  70.360  1.00  0.00     0.615 C  
ENDBRANCH   4  22
BRANCH   4  31
HETATM   31  C   UNL     3      -7.689  13.929  66.897  1.00  0.00     0.392 C  
HETATM   32  O   UNL     3      -7.298  15.161  67.539  1.00  0.00    -0.163 OA 
HETATM   33  H   UNL     3      -6.385  15.162  67.801  1.00  0.00     0.000 HD 
ENDBRANCH   4  31
TORSDOF 4
ENDMDL
MODEL      143
REMARK 921   NORMALIZED FREE ENERGY PREDICTED BY IDOCK:    0.92 KCAL/MOL
REMARK 922        TOTAL FREE ENERGY PREDICTED BY IDOCK:   35.46 KCAL/MOL
REMARK 923 INTER-LIGAND FREE ENERGY PREDICTED BY IDOCK:    0.96 KCAL/MOL
REMARK 924 INTRA-LIGAND FREE ENERGY PREDICTED BY IDOCK:   34.51 KCAL/MOL
REMARK 927      BINDING AFFINITY PREDICTED BY RF-SCORE:    0.00 PKD
ROOT
HETATM    1 FE   UNL     1      -8.597  17.517  64.383  1.00  0.00     2.451 Fe 
HETATM    2  C   UNL     2      -8.254  14.715  69.923  1.00  0.00     0.483 C  
HETATM    3  O   UNL     2      -9.029  13.566  69.430  1.00  0.00     0.035 OA 
HETATM    4  C   UNL     3      -9.870  15.093  66.892  1.00  0.00    -0.237 C  
HETATM    5  H   UNL     3     -10.219  14.455  68.618  1.00  0.00     0.000 HD 
HETATM    6  H   UNL     2      -9.928  13.861  69.523  1.00  0.00     0.000 HD 
HETATM    7  O   UNL     3     -10.691  14.378  67.797  1.00  0.00    -0.244 OA 
ENDROOT
BRANCH   2   8
HETATM    8  C   UNL     2      -8.409  15.885  68.956  1.00  0.00    -0.239 C  
HETATM    9  H   UNL     2      -6.762  17.050  65.055  1.00  0.00     0.000 HD 
HETATM   10  H   UNL     2      -7.181  15.101  65.618  1.00  0.00     0.000 HD 
HETATM   11  C   UNL     2      -7.900  17.362  66.607  1.00  0.00    -0.257 C  
HETATM   12  O   UNL     2      -8.544  17.706  69.579  1.00  0.00     0.355 OA 
HETATM   13  O   UNL     2      -8.916  19.627  67.285  1.00  0.00    -0.298 OA 
HETATM   14  O   UNL     2      -7.326  15.025  66.553  1.00  0.00     0.302 OA 
HETATM   15  C   UNL     2      -8.241  18.710  67.863  1.00  0.00    -0.265 C  
HETATM   16  H   UNL     2      -8.773  20.101  66.474  1.00  0.00     0.000 HD 
HETATM   17  O   UNL     2      -6.935  17.734  65.691  1.00  0.00    -0.412 OA 
HETATM   18  C   UNL     2      -8.117  16.037  67.076  1.00  0.00    -0.222 C  
ENDBRANCH   2   8
BRANCH   2  19
HETATM   19  C   UNL     2      -6.799  14.238  69.773  1.00  0.00    -0.053 C  
HETATM   20  H   UNL     2      -5.849  12.733  68.932  1.00  0.00     0.000 HD 
HETATM   21  O   UNL     2      -6.748  13.028  69.025  1.00  0.00    -0.097 OA 
ENDBRANCH   2  19
BRANCH   4  22
HETATM   22  C   UNL     3      -9.312  16.763  67.422  1.00  0.00    -0.233 C  
HETATM   23  H   UNL     3     -10.080  19.108  70.812  1.00  0.00     0.000 HD 
HETATM   24  C   UNL     3     -10.755  19.441  68.128  1.00  0.00    -0.147 C  
HETATM   25  O   UNL     3     -10.235  17.536  65.991  1.00  0.00    -0.440 OA 
HETATM   26  O   UNL     3     -11.205  19.816  65.458  1.00  0.00    -0.262 OA 
HETATM   27  C   UNL     3      -9.959  18.356  68.884  1.00  0.00    -0.345 C  
HETATM   28  O   UNL     3     -11.080  20.621  68.464  1.00  0.00     0.641 OA 
HETATM   29  O   UNL     3      -9.808  18.438  70.197  1.00  0.00     0.881 OA 
HETATM   30  C   UNL     3     -10.994  19.004  66.361  1.00  0.00    -0.013 C  
ENDBRANCH   4  22
BRANCH   4  31
HETATM   31  C   UNL     3     -10.635  14.968  65.562  1.00  0.00    -0.363 C  
HETATM   32  O   UNL     3      -9.850  15.394  64.429  1.00  0.00    -0.065 OA 
HETATM   33  H   UNL     3     -10.322  15.317  63.608  1.00  0.00     0.000 HD 
ENDBRANCH   4  31
TORSDOF 4
ENDMDL
MODEL      144
REMARK 921   NORMALIZED FREE ENERGY PREDICTED BY IDOCK:    1.05 KCAL/MOL
REMARK 922        TOTAL FREE ENERGY PREDICTED BY IDOCK:   35.63 KCAL/MOL
REMARK 923 INTER-LIGAND FREE ENERGY PREDICTED BY IDOCK:   -7.39 KCAL/MOL
REMARK 924 INTRA-LIGAND FREE ENERGY PREDICTED BY IDOCK:   43.02 KCAL/MOL
REMARK 927      BINDING AFFINITY PREDICTED BY RF-SCORE:    0.00 PKD
ROOT
HETATM    1 FE   UNL     1      -6.913  14.830  66.971  1.00  0.00    -0.167 Fe 
HETATM    2  C   UNL     2     -12.514  13.745  64.498  1.00  0.00    -0.285 C  
HETATM    3  O   UNL     2     -12.552  15.091  63.906  1.00  0.00    -0.958 OA 
HETATM    4  C   UNL     3     -10.154  16.016  65.599  1.00  0.00    -0.354 C  
HETATM    5  H   UNL     3     -11.995  15.930  65.266  1.00  0.00     0.000 HD 
HETATM    6  H   UNL     2     -12.863  15.630  64.623  1.00  0.00     0.000 HD 
HETATM    7  O   UNL     3     -11.405  16.657  65.428  1.00  0.00     0.094 OA 
ENDROOT
BRANCH   2   8
HETATM    8  C   UNL     2     -11.422  13.690  65.562  1.00  0.00    -0.317 C  
HETATM    9  H   UNL     2      -8.064  11.041  66.564  1.00  0.00     0.000 HD 
HETATM   10  H   UNL     2      -8.691  11.464  64.636  1.00  0.00     0.000 HD 
HETATM   11  C   UNL     2      -9.176  12.611  66.885  1.00  0.00    -0.216 C  
HETATM   12  O   UNL     2     -11.776  14.138  67.405  1.00  0.00    -0.349 OA 
HETATM   13  O   UNL     2      -9.277  13.948  69.081  1.00  0.00    -0.386 OA 
HETATM   14  O   UNL     2      -9.546  11.877  64.623  1.00  0.00    -0.155 OA 
HETATM   15  C   UNL     2     -10.123  13.411  68.290  1.00  0.00    -0.247 C  
HETATM   16  H   UNL     2      -8.496  13.604  69.499  1.00  0.00     0.000 HD 
HETATM   17  O   UNL     2      -8.544  11.446  67.277  1.00  0.00    -0.139 OA 
HETATM   18  C   UNL     2      -9.702  12.860  65.588  1.00  0.00    -0.105 C  
ENDBRANCH   2   8
BRANCH   2  19
HETATM   19  C   UNL     2     -12.011  12.871  63.336  1.00  0.00    -0.537 C  
HETATM   20  H   UNL     2     -12.419  11.103  62.574  1.00  0.00     0.000 HD 
HETATM   21  O   UNL     2     -12.729  11.642  63.292  1.00  0.00    -0.488 OA 
ENDBRANCH   2  19
BRANCH   4  22
HETATM   22  C   UNL     3     -10.108  14.584  66.751  1.00  0.00    -0.264 C  
HETATM   23  H   UNL     3     -12.755  11.423  67.514  1.00  0.00     0.000 HD 
HETATM   24  C   UNL     3     -11.929  13.576  69.079  1.00  0.00    -0.335 C  
HETATM   25  O   UNL     3     -10.193  15.745  68.215  1.00  0.00    -0.220 OA 
HETATM   26  O   UNL     3     -10.923  15.586  70.636  1.00  0.00    -0.317 OA 
HETATM   27  C   UNL     3     -11.566  13.115  67.652  1.00  0.00    -0.349 C  
HETATM   28  O   UNL     3     -12.482  12.957  70.039  1.00  0.00    -0.157 OA 
HETATM   29  O   UNL     3     -12.142  12.041  67.135  1.00  0.00    -0.587 OA 
HETATM   30  C   UNL     3     -11.155  15.190  69.492  1.00  0.00    -0.277 C  
ENDBRANCH   4  22
BRANCH   4  31
HETATM   31  C   UNL     3      -9.198  17.194  65.862  1.00  0.00    -0.004 C  
HETATM   32  O   UNL     3      -7.939  16.772  66.427  1.00  0.00    -0.268 OA 
HETATM   33  H   UNL     3      -7.350  17.499  66.589  1.00  0.00     0.000 HD 
ENDBRANCH   4  31
TORSDOF 4
ENDMDL
MODEL      145
REMARK 921   NORMALIZED FREE ENERGY PREDICTED BY IDOCK:    1.33 KCAL/MOL
REMARK 922        TOTAL FREE ENERGY PREDICTED BY IDOCK:   35.97 KCAL/MOL
REMARK 923 INTER-LIGAND FREE ENERGY PREDICTED BY IDOCK:    1.18 KCAL/MOL
REMARK 924 INTRA-LIGAND FREE ENERGY PREDICTED BY IDOCK:   34.79 KCAL/MOL
REMARK 927      BINDING AFFINITY PREDICTED BY RF-SCORE:    0.00 PKD
ROOT
HETATM    1 FE   UNL     1      -5.167   5.429  66.292  1.00  0.00    -0.006 Fe 
HETATM    2  C   UNL     2     -10.331   3.983  69.438  1.00  0.00     0.887 C  
HETATM    3  O   UNL     2     -10.903   3.311  68.262  1.00  0.00     2.581 OA 
HETATM    4  C   UNL     3      -8.767   4.522  66.405  1.00  0.00    -0.112 C  
HETATM    5  H   UNL     3     -10.494   4.500  67.128  1.00  0.00     0.000 HD 
HETATM    6  H   UNL     2     -11.284   4.030  67.770  1.00  0.00     0.000 HD 
HETATM    7  O   UNL     3     -10.172   4.512  66.234  1.00  0.00    -0.247 OA 
ENDROOT
BRANCH   2   8
HETATM    8  C   UNL     2      -9.158   4.856  69.004  1.00  0.00    -0.150 C  
HETATM    9  H   UNL     2      -4.936   4.249  67.954  1.00  0.00     0.000 HD 
HETATM   10  H   UNL     2      -6.460   2.916  67.514  1.00  0.00     0.000 HD 
HETATM   11  C   UNL     2      -6.498   5.385  68.229  1.00  0.00    -0.044 C  
HETATM   12  O   UNL     2      -8.840   6.591  69.786  1.00  0.00    -0.141 OA 
HETATM   13  O   UNL     2      -6.453   7.940  68.530  1.00  0.00    -0.050 OA 
HETATM   14  O   UNL     2      -7.254   3.112  67.996  1.00  0.00    -0.050 OA 
HETATM   15  C   UNL     2      -6.965   6.948  69.150  1.00  0.00    -0.078 C  
HETATM   16  H   UNL     2      -5.567   8.108  68.230  1.00  0.00     0.000 HD 
HETATM   17  O   UNL     2      -5.173   5.042  68.421  1.00  0.00    -0.003 OA 
HETATM   18  C   UNL     2      -7.562   4.462  68.033  1.00  0.00    -0.069 C  
ENDBRANCH   2   8
BRANCH   2  19
HETATM   19  C   UNL     2      -9.716   2.819  70.234  1.00  0.00     0.043 C  
HETATM   20  H   UNL     2      -9.398   2.366  72.123  1.00  0.00     0.000 HD 
HETATM   21  O   UNL     2      -9.779   3.085  71.632  1.00  0.00    -0.146 OA 
ENDBRANCH   2  19
BRANCH   4  22
HETATM   22  C   UNL     3      -8.086   5.749  67.593  1.00  0.00    -0.102 C  
HETATM   23  H   UNL     3      -9.824   8.795  69.892  1.00  0.00     0.000 HD 
HETATM   24  C   UNL     3      -8.043   8.868  67.749  1.00  0.00    -0.106 C  
HETATM   25  O   UNL     3      -7.131   6.573  66.211  1.00  0.00    -0.064 OA 
HETATM   26  O   UNL     3      -6.140   8.865  65.786  1.00  0.00    -0.051 OA 
HETATM   27  C   UNL     3      -8.715   7.711  68.517  1.00  0.00    -0.128 C  
HETATM   28  O   UNL     3      -7.889  10.091  68.054  1.00  0.00    -0.089 OA 
HETATM   29  O   UNL     3      -9.559   7.970  69.503  1.00  0.00    -0.163 OA 
HETATM   30  C   UNL     3      -7.080   8.262  66.308  1.00  0.00    -0.070 C  
ENDBRANCH   4  22
BRANCH   4  31
HETATM   31  C   UNL     3      -8.245   4.542  64.957  1.00  0.00    -0.109 C  
HETATM   32  O   UNL     3      -9.172   5.164  64.042  1.00  0.00    -0.355 OA 
HETATM   33  H   UNL     3      -8.850   5.176  63.148  1.00  0.00     0.000 HD 
ENDBRANCH   4  31
TORSDOF 4
ENDMDL
MODEL      146
REMARK 921   NORMALIZED FREE ENERGY PREDICTED BY IDOCK:    2.39 KCAL/MOL
REMARK 922        TOTAL FREE ENERGY PREDICTED BY IDOCK:   37.28 KCAL/MOL
REMARK 923 INTER-LIGAND FREE ENERGY PREDICTED BY IDOCK:    0.38 KCAL/MOL
REMARK 924 INTRA-LIGAND FREE ENERGY PREDICTED BY IDOCK:   36.90 KCAL/MOL
REMARK 927      BINDING AFFINITY PREDICTED BY RF-SCORE:    0.00 PKD
ROOT
HETATM    1 FE   UNL     1      -6.711  15.395  66.784  1.00  0.00    -0.171 Fe 
HETATM    2  C   UNL     2     -10.000  20.638  66.193  1.00  0.00     0.164 C  
HETATM    3  O   UNL     2      -9.222  21.035  65.009  1.00  0.00     0.678 OA 
HETATM    4  C   UNL     3      -7.094  18.880  65.559  1.00  0.00    -0.125 C  
HETATM    5  H   UNL     3      -7.695  20.652  65.630  1.00  0.00     0.000 HD 
HETATM    6  H   UNL     2      -8.452  21.442  65.388  1.00  0.00     0.000 HD 
HETATM    7  O   UNL     3      -6.899  20.257  65.295  1.00  0.00    -0.298 OA 
ENDROOT
BRANCH   2   8
HETATM    8  C   UNL     2      -9.264  19.527  66.935  1.00  0.00    -0.408 C  
HETATM    9  H   UNL     2      -9.059  15.143  66.739  1.00  0.00     0.000 HD 
HETATM   10  H   UNL     2      -9.278  16.383  65.095  1.00  0.00     0.000 HD 
HETATM   11  C   UNL     2      -8.550  16.860  67.513  1.00  0.00    -0.203 C  
HETATM   12  O   UNL     2      -9.016  19.574  68.847  1.00  0.00    -0.361 OA 
HETATM   13  O   UNL     2      -7.436  17.192  69.809  1.00  0.00     0.287 OA 
HETATM   14  O   UNL     2      -9.512  17.268  65.346  1.00  0.00    -0.235 OA 
HETATM   15  C   UNL     2      -8.446  17.677  69.197  1.00  0.00     0.112 C  
HETATM   16  H   UNL     2      -7.167  16.296  69.974  1.00  0.00     0.000 HD 
HETATM   17  O   UNL     2      -9.006  15.558  67.593  1.00  0.00    -0.180 OA 
HETATM   18  C   UNL     2      -8.792  17.747  66.429  1.00  0.00    -0.231 C  
ENDBRANCH   2   8
BRANCH   2  19
HETATM   19  C   UNL     2     -11.247  19.979  65.580  1.00  0.00     0.410 C  
HETATM   20  H   UNL     2     -12.068  19.811  63.799  1.00  0.00     0.000 HD 
HETATM   21  O   UNL     2     -11.297  20.218  64.177  1.00  0.00     1.178 OA 
ENDBRANCH   2  19
BRANCH   4  22
HETATM   22  C   UNL     3      -7.640  18.433  67.257  1.00  0.00    -0.228 C  
HETATM   23  H   UNL     3      -7.456  20.410  70.950  1.00  0.00     0.000 HD 
HETATM   24  C   UNL     3      -6.206  18.102  70.012  1.00  0.00    -0.040 C  
HETATM   25  O   UNL     3      -6.385  17.046  67.307  1.00  0.00    -0.136 OA 
HETATM   26  O   UNL     3      -5.177  15.736  69.107  1.00  0.00    -0.100 OA 
HETATM   27  C   UNL     3      -7.214  19.083  69.377  1.00  0.00    -0.132 C  
HETATM   28  O   UNL     3      -5.882  17.909  71.224  1.00  0.00     0.330 OA 
HETATM   29  O   UNL     3      -7.635  20.137  70.058  1.00  0.00     0.206 OA 
HETATM   30  C   UNL     3      -5.627  16.843  68.806  1.00  0.00    -0.133 C  
ENDBRANCH   4  22
BRANCH   4  31
HETATM   31  C   UNL     3      -5.803  18.239  65.016  1.00  0.00    -0.100 C  
HETATM   32  O   UNL     3      -5.671  18.385  63.587  1.00  0.00     0.096 OA 
HETATM   33  H   UNL     3      -4.875  17.990  63.252  1.00  0.00     0.000 HD 
ENDBRANCH   4  31
TORSDOF 4
ENDMDL
MODEL      147
REMARK 921   NORMALIZED FREE ENERGY PREDICTED BY IDOCK:    2.45 KCAL/MOL
REMARK 922        TOTAL FREE ENERGY PREDICTED BY IDOCK:   37.35 KCAL/MOL
REMARK 923 INTER-LIGAND FREE ENERGY PREDICTED BY IDOCK:    2.09 KCAL/MOL
REMARK 924 INTRA-LIGAND FREE ENERGY PREDICTED BY IDOCK:   35.26 KCAL/MOL
REMARK 927      BINDING AFFINITY PREDICTED BY RF-SCORE:    0.00 PKD
ROOT
HETATM    1 FE   UNL     1      -5.313   5.427  67.822  1.00  0.00    -0.007 Fe 
HETATM    2  C   UNL     2      -8.527   9.296  71.476  1.00  0.00     0.287 C  
HETATM    3  O   UNL     2      -7.695   8.947  72.638  1.00  0.00    -0.366 OA 
HETATM    4  C   UNL     3      -6.481   6.529  71.171  1.00  0.00    -0.049 C  
HETATM    5  H   UNL     3      -7.691   7.273  72.391  1.00  0.00     0.000 HD 
HETATM    6  H   UNL     2      -8.100   8.149  72.957  1.00  0.00     0.000 HD 
HETATM    7  O   UNL     3      -7.054   6.571  72.464  1.00  0.00    -0.073 OA 
ENDROOT
BRANCH   2   8
HETATM    8  C   UNL     2      -8.324   8.259  70.377  1.00  0.00    -0.120 C  
HETATM    9  H   UNL     2      -5.188   7.252  67.470  1.00  0.00     0.000 HD 
HETATM   10  H   UNL     2      -4.832   7.948  69.388  1.00  0.00     0.000 HD 
HETATM   11  C   UNL     2      -6.937   6.970  68.285  1.00  0.00    -0.080 C  
HETATM   12  O   UNL     2      -9.756   7.740  69.193  1.00  0.00    -0.158 OA 
HETATM   13  O   UNL     2      -8.863   5.608  67.257  1.00  0.00    -0.109 OA 
HETATM   14  O   UNL     2      -5.615   8.307  69.787  1.00  0.00    -0.026 OA 
HETATM   15  C   UNL     2      -8.726   6.772  67.762  1.00  0.00    -0.120 C  
HETATM   16  H   UNL     2      -8.376   5.151  66.581  1.00  0.00     0.000 HD 
HETATM   17  O   UNL     2      -6.095   7.151  67.205  1.00  0.00    -0.037 OA 
HETATM   18  C   UNL     2      -6.748   7.537  69.575  1.00  0.00    -0.040 C  
ENDBRANCH   2   8
BRANCH   2  19
HETATM   19  C   UNL     2      -7.871  10.589  70.960  1.00  0.00     2.521 C  
HETATM   20  H   UNL     2      -6.130  11.493  71.122  1.00  0.00     0.000 HD 
HETATM   21  O   UNL     2      -6.535  10.694  71.441  1.00  0.00    -0.041 OA 
ENDBRANCH   2  19
BRANCH   4  22
HETATM   22  C   UNL     3      -7.646   6.502  69.749  1.00  0.00    -0.097 C  
HETATM   23  H   UNL     3     -11.823   6.271  69.460  1.00  0.00     0.000 HD 
HETATM   24  C   UNL     3      -9.806   4.497  68.715  1.00  0.00    -0.110 C  
HETATM   25  O   UNL     3      -6.960   4.850  69.204  1.00  0.00    -0.049 OA 
HETATM   26  O   UNL     3      -7.781   2.896  67.816  1.00  0.00    -0.060 OA 
HETATM   27  C   UNL     3      -9.786   5.903  69.351  1.00  0.00    -0.161 C  
HETATM   28  O   UNL     3     -10.724   3.877  68.095  1.00  0.00     1.346 OA 
HETATM   29  O   UNL     3     -10.923   6.523  69.628  1.00  0.00    -0.270 OA 
HETATM   30  C   UNL     3      -8.123   3.770  68.614  1.00  0.00    -0.073 C  
ENDBRANCH   4  22
BRANCH   4  31
HETATM   31  C   UNL     3      -5.450   5.392  71.289  1.00  0.00    -0.009 C  
HETATM   32  O   UNL     3      -5.364   4.858  72.627  1.00  0.00    -0.008 OA 
HETATM   33  H   UNL     3      -4.728   4.157  72.700  1.00  0.00     0.000 HD 
ENDBRANCH   4  31
TORSDOF 4
ENDMDL
MODEL      148
REMARK 921   NORMALIZED FREE ENERGY PREDICTED BY IDOCK:    3.27 KCAL/MOL
REMARK 922        TOTAL FREE ENERGY PREDICTED BY IDOCK:   38.36 KCAL/MOL
REMARK 923 INTER-LIGAND FREE ENERGY PREDICTED BY IDOCK:   -3.23 KCAL/MOL
REMARK 924 INTRA-LIGAND FREE ENERGY PREDICTED BY IDOCK:   41.59 KCAL/MOL
REMARK 927      BINDING AFFINITY PREDICTED BY RF-SCORE:    0.00 PKD
ROOT
HETATM    1 FE   UNL     1     -11.208  10.106  67.297  1.00  0.00    -0.255 Fe 
HETATM    2  C   UNL     2      -7.298   5.784  69.461  1.00  0.00    -0.071 C  
HETATM    3  O   UNL     2      -7.745   4.819  68.444  1.00  0.00    -0.079 OA 
HETATM    4  C   UNL     3     -10.172   6.564  67.709  1.00  0.00    -0.167 C  
HETATM    5  H   UNL     3      -9.405   5.108  68.603  1.00  0.00     0.000 HD 
HETATM    6  H   UNL     2      -8.529   4.448  68.833  1.00  0.00     0.000 HD 
HETATM    7  O   UNL     3     -10.147   5.181  68.015  1.00  0.00    -0.157 OA 
ENDROOT
BRANCH   2   8
HETATM    8  C   UNL     2      -8.301   6.930  69.549  1.00  0.00    -0.133 C  
HETATM    9  H   UNL     2      -8.670  10.987  67.906  1.00  0.00     0.000 HD 
HETATM   10  H   UNL     2      -7.844   9.380  66.893  1.00  0.00     0.000 HD 
HETATM   11  C   UNL     2      -9.314   9.504  68.998  1.00  0.00    -0.155 C  
HETATM   12  O   UNL     2      -9.174   7.391  71.206  1.00  0.00    -0.149 OA 
HETATM   13  O   UNL     2     -11.114   9.668  70.829  1.00  0.00    -0.279 OA 
HETATM   14  O   UNL     2      -7.659   8.652  67.473  1.00  0.00    -0.092 OA 
HETATM   15  C   UNL     2      -9.932   9.194  70.739  1.00  0.00    -0.269 C  
HETATM   16  H   UNL     2     -11.472  10.520  70.608  1.00  0.00     0.000 HD 
HETATM   17  O   UNL     2      -8.984  10.830  68.789  1.00  0.00    -0.158 OA 
HETATM   18  C   UNL     2      -8.673   8.395  68.382  1.00  0.00    -0.136 C  
ENDBRANCH   2   8
BRANCH   2  19
HETATM   19  C   UNL     2      -6.029   6.384  68.832  1.00  0.00    -0.021 C  
HETATM   20  H   UNL     2      -4.376   5.719  67.994  1.00  0.00     0.000 HD 
HETATM   21  O   UNL     2      -5.160   5.348  68.383  1.00  0.00     0.000 OA 
ENDBRANCH   2  19
BRANCH   4  22
HETATM   22  C   UNL     3     -10.069   7.727  69.129  1.00  0.00    -0.196 C  
HETATM   23  H   UNL     3      -8.242   7.509  72.897  1.00  0.00     0.000 HD 
HETATM   24  C   UNL     3     -10.920   7.611  72.132  1.00  0.00    -0.257 C  
HETATM   25  O   UNL     3     -11.914   7.579  69.398  1.00  0.00     0.662 OA 
HETATM   26  O   UNL     3     -13.515   7.926  71.331  1.00  0.00    -0.312 OA 
HETATM   27  C   UNL     3      -9.598   7.636  71.335  1.00  0.00    -0.158 C  
HETATM   28  O   UNL     3     -11.155   7.823  73.362  1.00  0.00    -0.316 OA 
HETATM   29  O   UNL     3      -8.440   7.547  71.969  1.00  0.00    -0.104 OA 
HETATM   30  C   UNL     3     -12.383   7.547  71.024  1.00  0.00    -0.235 C  
ENDBRANCH   4  22
BRANCH   4  31
HETATM   31  C   UNL     3     -11.375   6.683  66.756  1.00  0.00     0.269 C  
HETATM   32  O   UNL     3     -11.405   5.632  65.767  1.00  0.00    -0.467 OA 
HETATM   33  H   UNL     3     -12.147   5.705  65.178  1.00  0.00     0.000 HD 
ENDBRANCH   4  31
TORSDOF 4
ENDMDL
MODEL      149
REMARK 921   NORMALIZED FREE ENERGY PREDICTED BY IDOCK:    4.40 KCAL/MOL
REMARK 922        TOTAL FREE ENERGY PREDICTED BY IDOCK:   39.76 KCAL/MOL
REMARK 923 INTER-LIGAND FREE ENERGY PREDICTED BY IDOCK:    1.53 KCAL/MOL
REMARK 924 INTRA-LIGAND FREE ENERGY PREDICTED BY IDOCK:   38.23 KCAL/MOL
REMARK 927      BINDING AFFINITY PREDICTED BY RF-SCORE:    0.00 PKD
ROOT
HETATM    1 FE   UNL     1     -11.350  12.901  69.771  1.00  0.00    -0.236 Fe 
HETATM    2  C   UNL     2      -8.299   9.185  65.829  1.00  0.00    -0.126 C  
HETATM    3  O   UNL     2      -8.300   8.086  66.806  1.00  0.00    -0.112 OA 
HETATM    4  C   UNL     3      -9.173   9.972  69.077  1.00  0.00    -0.178 C  
HETATM    5  H   UNL     3      -7.858   9.010  68.154  1.00  0.00     0.000 HD 
HETATM    6  H   UNL     2      -7.551   8.287  67.354  1.00  0.00     0.000 HD 
HETATM    7  O   UNL     3      -8.104   9.044  69.071  1.00  0.00    -0.103 OA 
ENDROOT
BRANCH   2   8
HETATM    8  C   UNL     2      -8.639  10.493  66.535  1.00  0.00    -0.140 C  
HETATM    9  H   UNL     2     -12.159  12.248  68.491  1.00  0.00     0.000 HD 
HETATM   10  H   UNL     2     -11.665  10.238  68.547  1.00  0.00     0.000 HD 
HETATM   11  C   UNL     2     -10.303  12.319  67.899  1.00  0.00    -0.208 C  
HETATM   12  O   UNL     2      -8.002  12.194  65.885  1.00  0.00     0.558 OA 
HETATM   13  O   UNL     2      -8.885  14.455  67.675  1.00  0.00    -0.176 OA 
HETATM   14  O   UNL     2     -11.003  10.017  67.904  1.00  0.00    -0.274 OA 
HETATM   15  C   UNL     2      -9.167  13.455  66.933  1.00  0.00    -0.248 C  
HETATM   16  H   UNL     2      -9.436  15.050  68.170  1.00  0.00     0.000 HD 
HETATM   17  O   UNL     2     -11.584  12.825  68.001  1.00  0.00    -0.297 OA 
HETATM   18  C   UNL     2      -9.970  10.938  67.830  1.00  0.00    -0.176 C  
ENDBRANCH   2   8
BRANCH   2  19
HETATM   19  C   UNL     2      -9.512   8.859  64.941  1.00  0.00     0.380 C  
HETATM   20  H   UNL     2     -10.629   9.793  63.616  1.00  0.00     0.000 HD 
HETATM   21  O   UNL     2      -9.879   9.994  64.164  1.00  0.00    -0.257 OA 
ENDBRANCH   2  19
BRANCH   4  22
HETATM   22  C   UNL     3      -8.898  11.559  68.189  1.00  0.00    -0.165 C  
HETATM   23  H   UNL     3      -5.454  13.556  66.873  1.00  0.00     0.000 HD 
HETATM   24  C   UNL     3      -7.341  14.191  68.823  1.00  0.00    -0.128 C  
HETATM   25  O   UNL     3      -9.563  12.508  69.658  1.00  0.00     1.188 OA 
HETATM   26  O   UNL     3      -9.334  14.860  70.571  1.00  0.00     0.692 OA 
HETATM   27  C   UNL     3      -7.203  13.008  67.841  1.00  0.00    -0.129 C  
HETATM   28  O   UNL     3      -6.799  15.339  68.826  1.00  0.00    -0.102 OA 
HETATM   29  O   UNL     3      -6.167  12.946  67.020  1.00  0.00    -0.242 OA 
HETATM   30  C   UNL     3      -8.741  13.951  69.987  1.00  0.00     2.103 C  
ENDBRANCH   4  22
BRANCH   4  31
HETATM   31  C   UNL     3      -9.570  10.028  70.564  1.00  0.00     0.193 C  
HETATM   32  O   UNL     3      -8.595   9.402  71.423  1.00  0.00    -0.292 OA 
HETATM   33  H   UNL     3      -8.840   9.436  72.340  1.00  0.00     0.000 HD 
ENDBRANCH   4  31
TORSDOF 4
ENDMDL
MODEL      150
REMARK 921   NORMALIZED FREE ENERGY PREDICTED BY IDOCK:    4.64 KCAL/MOL
REMARK 922        TOTAL FREE ENERGY PREDICTED BY IDOCK:   40.05 KCAL/MOL
REMARK 923 INTER-LIGAND FREE ENERGY PREDICTED BY IDOCK:   -3.62 KCAL/MOL
REMARK 924 INTRA-LIGAND FREE ENERGY PREDICTED BY IDOCK:   43.66 KCAL/MOL
REMARK 927      BINDING AFFINITY PREDICTED BY RF-SCORE:    0.00 PKD
ROOT
HETATM    1 FE   UNL     1      -7.852  15.273  68.124  1.00  0.00    -0.109 Fe 
HETATM    2  C   UNL     2      -9.584  10.946  64.009  1.00  0.00    -0.278 C  
HETATM    3  O   UNL     2     -10.066  11.975  63.075  1.00  0.00    -0.521 OA 
HETATM    4  C   UNL     3      -9.910  14.157  65.241  1.00  0.00    -0.164 C  
HETATM    5  H   UNL     3     -10.879  12.924  64.217  1.00  0.00     0.000 HD 
HETATM    6  H   UNL     2     -10.940  12.162  63.397  1.00  0.00     0.000 HD 
HETATM    7  O   UNL     3     -10.992  13.853  64.380  1.00  0.00    -0.382 OA 
ENDROOT
BRANCH   2   8
HETATM    8  C   UNL     2      -9.394  11.563  65.391  1.00  0.00    -0.177 C  
HETATM    9  H   UNL     2      -6.120  11.966  68.291  1.00  0.00     0.000 HD 
HETATM   10  H   UNL     2      -5.882  12.028  66.234  1.00  0.00     0.000 HD 
HETATM   11  C   UNL     2      -7.964  12.249  67.724  1.00  0.00    -0.154 C  
HETATM   12  O   UNL     2     -10.750  11.429  66.757  1.00  0.00    -0.247 OA 
HETATM   13  O   UNL     2      -9.923  12.878  69.270  1.00  0.00    -0.287 OA 
HETATM   14  O   UNL     2      -6.653  11.716  65.778  1.00  0.00     0.389 OA 
HETATM   15  C   UNL     2      -9.701  11.990  68.379  1.00  0.00    -0.199 C  
HETATM   16  H   UNL     2      -9.428  13.143  70.036  1.00  0.00     0.000 HD 
HETATM   17  O   UNL     2      -7.000  11.835  68.623  1.00  0.00    -0.079 OA 
HETATM   18  C   UNL     2      -7.842  12.191  66.309  1.00  0.00     0.482 C  
ENDBRANCH   2   8
BRANCH   2  19
HETATM   19  C   UNL     2      -8.169  10.643  63.487  1.00  0.00    -0.020 C  
HETATM   20  H   UNL     2      -6.674   9.455  63.966  1.00  0.00     0.000 HD 
HETATM   21  O   UNL     2      -7.548   9.642  64.288  1.00  0.00    -0.117 OA 
ENDBRANCH   2  19
BRANCH   4  22
HETATM   22  C   UNL     3      -9.662  13.045  66.683  1.00  0.00    -0.256 C  
HETATM   23  H   UNL     3      -9.964   8.895  67.198  1.00  0.00     0.000 HD 
HETATM   24  C   UNL     3     -11.461  11.009  68.225  1.00  0.00    -0.304 C  
HETATM   25  O   UNL     3     -11.130  13.819  67.546  1.00  0.00    -0.267 OA 
HETATM   26  O   UNL     3     -12.756  13.131  69.363  1.00  0.00     0.223 OA 
HETATM   27  C   UNL     3     -10.230  10.948  67.296  1.00  0.00    -0.205 C  
HETATM   28  O   UNL     3     -11.960  10.141  69.005  1.00  0.00     0.035 OA 
HETATM   29  O   UNL     3      -9.725   9.777  66.941  1.00  0.00    -0.174 OA 
HETATM   30  C   UNL     3     -12.091  12.725  68.408  1.00  0.00    -0.101 C  
ENDBRANCH   4  22
BRANCH   4  31
HETATM   31  C   UNL     3     -10.095  15.663  65.504  1.00  0.00    -0.362 C  
HETATM   32  O   UNL     3     -10.513  16.385  64.327  1.00  0.00    -0.342 OA 
HETATM   33  H   UNL     3     -10.626  17.314  64.489  1.00  0.00     0.000 HD 
ENDBRANCH   4  31
TORSDOF 4
ENDMDL
MODEL      151
REMARK 921   NORMALIZED FREE ENERGY PREDICTED BY IDOCK:    4.72 KCAL/MOL
REMARK 922        TOTAL FREE ENERGY PREDICTED BY IDOCK:   40.15 KCAL/MOL
REMARK 923 INTER-LIGAND FREE ENERGY PREDICTED BY IDOCK:   -2.61 KCAL/MOL
REMARK 924 INTRA-LIGAND FREE ENERGY PREDICTED BY IDOCK:   42.77 KCAL/MOL
REMARK 927      BINDING AFFINITY PREDICTED BY RF-SCORE:    0.00 PKD
ROOT
HETATM    1 FE   UNL     1      -7.054   2.774  67.679  1.00  0.00    -0.043 Fe 
HETATM    2  C   UNL     2      -7.699   6.478  72.631  1.00  0.00    -0.102 C  
HETATM    3  O   UNL     2      -8.424   5.429  73.366  1.00  0.00    -0.116 OA 
HETATM    4  C   UNL     3      -8.794   3.753  70.811  1.00  0.00    -0.082 C  
HETATM    5  H   UNL     3      -9.437   4.953  72.097  1.00  0.00     0.000 HD 
HETATM    6  H   UNL     2      -9.315   5.527  73.051  1.00  0.00     0.000 HD 
HETATM    7  O   UNL     3      -9.774   4.131  71.760  1.00  0.00    -0.156 OA 
ENDROOT
BRANCH   2   8
HETATM    8  C   UNL     2      -7.658   6.122  71.149  1.00  0.00    -0.093 C  
HETATM    9  H   UNL     2      -4.687   4.558  68.317  1.00  0.00     0.000 HD 
HETATM   10  H   UNL     2      -4.820   4.000  70.307  1.00  0.00     0.000 HD 
HETATM   11  C   UNL     2      -6.469   5.217  68.756  1.00  0.00    -0.036 C  
HETATM   12  O   UNL     2      -8.529   7.215  69.818  1.00  0.00    -0.134 OA 
HETATM   13  O   UNL     2      -8.219   6.040  67.058  1.00  0.00    -0.105 OA 
HETATM   14  O   UNL     2      -5.374   4.589  70.805  1.00  0.00    -0.003 OA 
HETATM   15  C   UNL     2      -7.701   6.487  68.136  1.00  0.00    -0.105 C  
HETATM   16  H   UNL     2      -7.827   5.697  66.264  1.00  0.00     0.000 HD 
HETATM   17  O   UNL     2      -5.311   5.201  68.002  1.00  0.00    -0.010 OA 
HETATM   18  C   UNL     2      -6.544   4.938  70.148  1.00  0.00    -0.036 C  
ENDBRANCH   2   8
BRANCH   2  19
HETATM   19  C   UNL     2      -6.256   6.320  73.141  1.00  0.00    -0.062 C  
HETATM   20  H   UNL     2      -5.136   4.887  73.893  1.00  0.00     0.000 HD 
HETATM   21  O   UNL     2      -6.027   4.984  73.579  1.00  0.00    -0.028 OA 
ENDBRANCH   2  19
BRANCH   4  22
HETATM   22  C   UNL     3      -8.272   5.038  69.604  1.00  0.00    -0.088 C  
HETATM   23  H   UNL     3      -7.823   9.200  69.852  1.00  0.00     0.000 HD 
HETATM   24  C   UNL     3      -9.598   7.603  68.414  1.00  0.00    -0.151 C  
HETATM   25  O   UNL     3      -9.798   4.705  68.574  1.00  0.00    -0.156 OA 
HETATM   26  O   UNL     3     -11.170   5.984  66.870  1.00  0.00    -0.240 OA 
HETATM   27  C   UNL     3      -8.433   7.278  69.372  1.00  0.00    -0.133 C  
HETATM   28  O   UNL     3      -9.893   8.671  67.793  1.00  0.00    -0.159 OA 
HETATM   29  O   UNL     3      -7.756   8.258  69.949  1.00  0.00    -0.092 OA 
HETATM   30  C   UNL     3     -10.503   6.089  67.901  1.00  0.00    -0.234 C  
ENDBRANCH   4  22
BRANCH   4  31
HETATM   31  C   UNL     3      -9.340   2.420  70.266  1.00  0.00    -0.118 C  
HETATM   32  O   UNL     3     -10.007   1.638  71.279  1.00  0.00    -0.131 OA 
HETATM   33  H   UNL     3     -10.343   0.816  70.943  1.00  0.00     0.000 HD 
ENDBRANCH   4  31
TORSDOF 4
ENDMDL
MODEL      152
REMARK 921   NORMALIZED FREE ENERGY PREDICTED BY IDOCK:    5.06 KCAL/MOL
REMARK 922        TOTAL FREE ENERGY PREDICTED BY IDOCK:   40.57 KCAL/MOL
REMARK 923 INTER-LIGAND FREE ENERGY PREDICTED BY IDOCK:   -3.27 KCAL/MOL
REMARK 924 INTRA-LIGAND FREE ENERGY PREDICTED BY IDOCK:   43.84 KCAL/MOL
REMARK 927      BINDING AFFINITY PREDICTED BY RF-SCORE:    0.00 PKD
ROOT
HETATM    1 FE   UNL     1     -10.145  11.624  69.764  1.00  0.00    -0.401 Fe 
HETATM    2  C   UNL     2      -9.005  16.514  66.098  1.00  0.00    -0.309 C  
HETATM    3  O   UNL     2      -9.643  17.428  67.057  1.00  0.00    -0.258 OA 
HETATM    4  C   UNL     3     -10.875  15.083  68.626  1.00  0.00    -0.249 C  
HETATM    5  H   UNL     3     -11.003  16.472  67.377  1.00  0.00     0.000 HD 
HETATM    6  H   UNL     2     -10.566  17.354  66.841  1.00  0.00     0.000 HD 
HETATM    7  O   UNL     3     -11.518  16.248  68.143  1.00  0.00    -0.309 OA 
ENDROOT
BRANCH   2   8
HETATM    8  C   UNL     2      -9.395  15.077  66.428  1.00  0.00    -0.334 C  
HETATM    9  H   UNL     2      -7.340  11.435  67.772  1.00  0.00     0.000 HD 
HETATM   10  H   UNL     2      -6.835  13.354  68.365  1.00  0.00     0.000 HD 
HETATM   11  C   UNL     2      -8.938  12.410  67.227  1.00  0.00    -0.190 C  
HETATM   12  O   UNL     2     -10.683  14.106  65.372  1.00  0.00    -0.307 OA 
HETATM   13  O   UNL     2     -11.159  11.344  66.485  1.00  0.00    -0.292 OA 
HETATM   14  O   UNL     2      -7.244  14.014  67.818  1.00  0.00    -0.132 OA 
HETATM   15  C   UNL     2     -10.364  12.230  66.025  1.00  0.00    -0.245 C  
HETATM   16  H   UNL     2     -11.009  10.458  66.794  1.00  0.00     0.000 HD 
HETATM   17  O   UNL     2      -8.063  11.343  67.162  1.00  0.00    -0.140 OA 
HETATM   18  C   UNL     2      -8.573  13.751  67.530  1.00  0.00    -0.193 C  
ENDBRANCH   2   8
BRANCH   2  19
HETATM   19  C   UNL     2      -7.512  16.635  66.449  1.00  0.00    -0.225 C  
HETATM   20  H   UNL     2      -6.426  16.973  68.055  1.00  0.00     0.000 HD 
HETATM   21  O   UNL     2      -7.348  16.898  67.839  1.00  0.00    -0.161 OA 
ENDBRANCH   2  19
BRANCH   4  22
HETATM   22  C   UNL     3     -10.522  13.762  67.397  1.00  0.00    -0.256 C  
HETATM   23  H   UNL     3      -8.735  13.768  63.604  1.00  0.00     0.000 HD 
HETATM   24  C   UNL     3     -11.345  13.245  64.429  1.00  0.00    -0.383 C  
HETATM   25  O   UNL     3     -12.356  13.491  67.146  1.00  0.00    -0.315 OA 
HETATM   26  O   UNL     3     -13.831  12.538  65.321  1.00  0.00     0.934 OA 
HETATM   27  C   UNL     3     -10.055  13.609  65.194  1.00  0.00    -0.275 C  
HETATM   28  O   UNL     3     -11.519  12.805  63.251  1.00  0.00    -0.476 OA 
HETATM   29  O   UNL     3      -8.931  13.833  64.531  1.00  0.00     1.955 OA 
HETATM   30  C   UNL     3     -12.803  13.180  65.544  1.00  0.00    -0.141 C  
ENDBRANCH   4  22
BRANCH   4  31
HETATM   31  C   UNL     3     -11.710  14.720  69.868  1.00  0.00    -0.306 C  
HETATM   32  O   UNL     3     -13.120  14.619  69.578  1.00  0.00    -0.261 OA 
HETATM   33  H   UNL     3     -13.635  14.395  70.344  1.00  0.00     0.000 HD 
ENDBRANCH   4  31
TORSDOF 4
ENDMDL
MODEL      153
REMARK 921   NORMALIZED FREE ENERGY PREDICTED BY IDOCK:    5.18 KCAL/MOL
REMARK 922        TOTAL FREE ENERGY PREDICTED BY IDOCK:   40.72 KCAL/MOL
REMARK 923 INTER-LIGAND FREE ENERGY PREDICTED BY IDOCK:   -3.53 KCAL/MOL
REMARK 924 INTRA-LIGAND FREE ENERGY PREDICTED BY IDOCK:   44.25 KCAL/MOL
REMARK 927      BINDING AFFINITY PREDICTED BY RF-SCORE:    0.00 PKD
ROOT
HETATM    1 FE   UNL     1     -11.880  10.159  68.031  1.00  0.00    -0.433 Fe 
HETATM    2  C   UNL     2      -7.511   6.343  65.793  1.00  0.00    -0.082 C  
HETATM    3  O   UNL     2      -8.268   5.161  66.233  1.00  0.00    -0.108 OA 
HETATM    4  C   UNL     3     -10.140   6.879  67.971  1.00  0.00    -0.166 C  
HETATM    5  H   UNL     3      -8.670   5.736  67.774  1.00  0.00     0.000 HD 
HETATM    6  H   UNL     2      -8.017   5.075  67.146  1.00  0.00     0.000 HD 
HETATM    7  O   UNL     3      -9.434   5.708  68.337  1.00  0.00    -0.116 OA 
ENDROOT
BRANCH   2   8
HETATM    8  C   UNL     2      -8.057   7.584  66.492  1.00  0.00    -0.120 C  
HETATM    9  H   UNL     2      -9.250  11.647  65.324  1.00  0.00     0.000 HD 
HETATM   10  H   UNL     2      -9.528   9.960  64.156  1.00  0.00     0.000 HD 
HETATM   11  C   UNL     2      -8.986  10.243  66.652  1.00  0.00    -0.140 C  
HETATM   12  O   UNL     2      -7.414   8.140  68.224  1.00  0.00    -0.093 OA 
HETATM   13  O   UNL     2      -8.866  10.597  69.198  1.00  0.00    -0.206 OA 
HETATM   14  O   UNL     2      -9.026   9.220  64.474  1.00  0.00    -0.203 OA 
HETATM   15  C   UNL     2      -8.156  10.007  68.316  1.00  0.00    -0.104 C  
HETATM   16  H   UNL     2      -9.216  11.479  69.241  1.00  0.00     0.000 HD 
HETATM   17  O   UNL     2      -8.830  11.528  66.168  1.00  0.00    -0.198 OA 
HETATM   18  C   UNL     2      -9.069   9.071  65.851  1.00  0.00    -0.212 C  
ENDBRANCH   2   8
BRANCH   2  19
HETATM   19  C   UNL     2      -7.917   6.481  64.316  1.00  0.00    -0.095 C  
HETATM   20  H   UNL     2      -7.168   6.005  62.559  1.00  0.00     0.000 HD 
HETATM   21  O   UNL     2      -6.917   5.919  63.472  1.00  0.00    -0.039 OA 
ENDBRANCH   2  19
BRANCH   4  22
HETATM   22  C   UNL     3      -9.171   8.440  67.895  1.00  0.00    -0.144 C  
HETATM   23  H   UNL     3      -5.458   9.439  66.222  1.00  0.00     0.000 HD 
HETATM   24  C   UNL     3      -6.334   9.316  68.865  1.00  0.00    -0.044 C  
HETATM   25  O   UNL     3      -8.952   8.407  69.752  1.00  0.00    -0.143 OA 
HETATM   26  O   UNL     3      -7.310   9.381  71.418  1.00  0.00    -0.325 OA 
HETATM   27  C   UNL     3      -7.036   9.066  67.513  1.00  0.00    -0.078 C  
HETATM   28  O   UNL     3      -5.252   9.918  69.143  1.00  0.00    -0.036 OA 
HETATM   29  O   UNL     3      -6.356   9.175  66.382  1.00  0.00    -0.063 OA 
HETATM   30  C   UNL     3      -7.427   8.910  70.285  1.00  0.00    -0.074 C  
ENDBRANCH   4  22
BRANCH   4  31
HETATM   31  C   UNL     3     -11.378   6.833  68.885  1.00  0.00    -0.050 C  
HETATM   32  O   UNL     3     -11.160   7.498  70.147  1.00  0.00    -0.260 OA 
HETATM   33  H   UNL     3     -11.924   7.470  70.711  1.00  0.00     0.000 HD 
ENDBRANCH   4  31
TORSDOF 4
ENDMDL
MODEL      154
REMARK 921   NORMALIZED FREE ENERGY PREDICTED BY IDOCK:    5.64 KCAL/MOL
REMARK 922        TOTAL FREE ENERGY PREDICTED BY IDOCK:   41.29 KCAL/MOL
REMARK 923 INTER-LIGAND FREE ENERGY PREDICTED BY IDOCK:   -1.77 KCAL/MOL
REMARK 924 INTRA-LIGAND FREE ENERGY PREDICTED BY IDOCK:   43.07 KCAL/MOL
REMARK 927      BINDING AFFINITY PREDICTED BY RF-SCORE:    0.00 PKD
ROOT
HETATM    1 FE   UNL     1      -6.495  17.028  67.038  1.00  0.00    -0.107 Fe 
HETATM    2  C   UNL     2     -11.772  14.464  64.978  1.00  0.00    -0.389 C  
HETATM    3  O   UNL     2     -11.906  15.492  63.935  1.00  0.00    -0.949 OA 
HETATM    4  C   UNL     3      -9.737  17.245  65.239  1.00  0.00     0.967 C  
HETATM    5  H   UNL     3     -11.532  16.824  64.910  1.00  0.00     0.000 HD 
HETATM    6  H   UNL     2     -12.319  16.212  64.397  1.00  0.00     0.000 HD 
HETATM    7  O   UNL     3     -11.032  17.626  64.812  1.00  0.00    -0.917 OA 
ENDROOT
BRANCH   2   8
HETATM    8  C   UNL     2     -10.757  14.926  66.018  1.00  0.00    -0.326 C  
HETATM    9  H   UNL     2      -7.273  13.208  68.069  1.00  0.00     0.000 HD 
HETATM   10  H   UNL     2      -7.795  12.807  66.106  1.00  0.00     0.000 HD 
HETATM   11  C   UNL     2      -8.528  14.661  67.728  1.00  0.00    -0.174 C  
HETATM   12  O   UNL     2     -11.274  15.997  67.537  1.00  0.00    -0.261 OA 
HETATM   13  O   UNL     2      -8.891  16.710  69.242  1.00  0.00    -0.180 OA 
HETATM   14  O   UNL     2      -8.678  13.095  65.907  1.00  0.00     0.467 OA 
HETATM   15  C   UNL     2      -9.634  15.831  68.688  1.00  0.00    -0.207 C  
HETATM   16  H   UNL     2      -8.116  16.631  69.786  1.00  0.00     0.000 HD 
HETATM   17  O   UNL     2      -7.833  13.801  68.556  1.00  0.00    -0.132 OA 
HETATM   18  C   UNL     2      -8.981  14.347  66.417  1.00  0.00    -0.088 C  
ENDBRANCH   2   8
BRANCH   2  19
HETATM   19  C   UNL     2     -11.104  13.298  64.229  1.00  0.00    -0.388 C  
HETATM   20  H   UNL     2     -11.141  11.331  64.285  1.00  0.00     0.000 HD 
HETATM   21  O   UNL     2     -11.554  12.051  64.748  1.00  0.00    -0.324 OA 
ENDBRANCH   2  19
BRANCH   4  22
HETATM   22  C   UNL     3      -9.626  16.338  66.835  1.00  0.00    -0.244 C  
HETATM   23  H   UNL     3     -12.168  13.637  68.790  1.00  0.00     0.000 HD 
HETATM   24  C   UNL     3     -11.365  16.228  69.427  1.00  0.00    -0.284 C  
HETATM   25  O   UNL     3      -9.708  17.955  67.771  1.00  0.00    -0.269 OA 
HETATM   26  O   UNL     3     -10.377  18.687  70.103  1.00  0.00     0.736 OA 
HETATM   27  C   UNL     3     -11.022  15.280  68.259  1.00  0.00    -0.276 C  
HETATM   28  O   UNL     3     -11.878  15.997  70.565  1.00  0.00    -0.359 OA 
HETATM   29  O   UNL     3     -11.581  14.082  68.191  1.00  0.00    -0.295 OA 
HETATM   30  C   UNL     3     -10.625  17.893  69.193  1.00  0.00     0.155 C  
ENDBRANCH   4  22
BRANCH   4  31
HETATM   31  C   UNL     3      -8.927  18.544  65.081  1.00  0.00     2.529 C  
HETATM   32  O   UNL     3      -7.713  18.540  65.861  1.00  0.00    -0.459 OA 
HETATM   33  H   UNL     3      -7.213  19.341  65.764  1.00  0.00     0.000 HD 
ENDBRANCH   4  31
TORSDOF 4
ENDMDL
MODEL      155
REMARK 921   NORMALIZED FREE ENERGY PREDICTED BY IDOCK:    5.94 KCAL/MOL
REMARK 922        TOTAL FREE ENERGY PREDICTED BY IDOCK:   41.66 KCAL/MOL
REMARK 923 INTER-LIGAND FREE ENERGY PREDICTED BY IDOCK:    4.02 KCAL/MOL
REMARK 924 INTRA-LIGAND FREE ENERGY PREDICTED BY IDOCK:   37.64 KCAL/MOL
REMARK 927      BINDING AFFINITY PREDICTED BY RF-SCORE:    0.00 PKD
ROOT
HETATM    1 FE   UNL     1     -11.049  14.170  67.910  1.00  0.00    -0.234 Fe 
HETATM    2  C   UNL     2      -8.263   8.612  67.980  1.00  0.00    -0.115 C  
HETATM    3  O   UNL     2      -8.793   8.289  66.646  1.00  0.00    -0.132 OA 
HETATM    4  C   UNL     3     -10.760  10.656  66.744  1.00  0.00    -0.210 C  
HETATM    5  H   UNL     3     -10.374   8.832  66.917  1.00  0.00     0.000 HD 
HETATM    6  H   UNL     2      -9.667   7.966  66.837  1.00  0.00     0.000 HD 
HETATM    7  O   UNL     3     -11.030   9.305  66.420  1.00  0.00     0.197 OA 
ENDROOT
BRANCH   2   8
HETATM    8  C   UNL     2      -9.029   9.798  68.558  1.00  0.00    -0.124 C  
HETATM    9  H   UNL     2      -8.680  14.176  68.473  1.00  0.00     0.000 HD 
HETATM   10  H   UNL     2      -8.203  12.929  66.890  1.00  0.00     0.000 HD 
HETATM   11  C   UNL     2      -9.556  12.528  69.038  1.00  0.00     0.378 C  
HETATM   12  O   UNL     2      -9.748   9.769  70.348  1.00  0.00    -0.255 OA 
HETATM   13  O   UNL     2     -11.236  12.315  70.976  1.00  0.00     0.984 OA 
HETATM   14  O   UNL     2      -8.140  12.021  67.159  1.00  0.00    -0.165 OA 
HETATM   15  C   UNL     2     -10.167  11.718  70.614  1.00  0.00     3.945 C  
HETATM   16  H   UNL     2     -11.434  13.236  71.101  1.00  0.00     0.000 HD 
HETATM   17  O   UNL     2      -8.990  13.766  69.273  1.00  0.00     0.331 OA 
HETATM   18  C   UNL     2      -9.155  11.625  68.015  1.00  0.00    -0.177 C  
ENDBRANCH   2   8
BRANCH   2  19
HETATM   19  C   UNL     2      -6.850   9.135  67.672  1.00  0.00    -0.077 C  
HETATM   20  H   UNL     2      -5.760   9.504  66.075  1.00  0.00     0.000 HD 
HETATM   21  O   UNL     2      -6.633   9.181  66.265  1.00  0.00    -0.065 OA 
ENDBRANCH   2  19
BRANCH   4  22
HETATM   22  C   UNL     3     -10.564  11.056  68.528  1.00  0.00    -0.218 C  
HETATM   23  H   UNL     3     -11.408   8.951  72.055  1.00  0.00     0.000 HD 
HETATM   24  C   UNL     3     -12.512  11.265  70.961  1.00  0.00    -0.400 C  
HETATM   25  O   UNL     3     -11.840  12.415  68.374  1.00  0.00    -0.322 OA 
HETATM   26  O   UNL     3     -13.407  13.639  69.944  1.00  0.00     0.706 OA 
HETATM   27  C   UNL     3     -11.375  10.326  70.505  1.00  0.00    -0.341 C  
HETATM   28  O   UNL     3     -13.069  11.410  72.092  1.00  0.00    -0.462 OA 
HETATM   29  O   UNL     3     -11.067   9.258  71.223  1.00  0.00    -0.297 OA 
HETATM   30  C   UNL     3     -12.879  12.552  69.703  1.00  0.00     0.881 C  
ENDBRANCH   4  22
BRANCH   4  31
HETATM   31  C   UNL     3     -11.824  11.423  65.938  1.00  0.00     0.673 C  
HETATM   32  O   UNL     3     -12.406  12.512  66.683  1.00  0.00    -0.483 OA 
HETATM   33  H   UNL     3     -13.063  12.985  66.186  1.00  0.00     0.000 HD 
ENDBRANCH   4  31
TORSDOF 4
ENDMDL
MODEL      156
REMARK 921   NORMALIZED FREE ENERGY PREDICTED BY IDOCK:    7.04 KCAL/MOL
REMARK 922        TOTAL FREE ENERGY PREDICTED BY IDOCK:   43.01 KCAL/MOL
REMARK 923 INTER-LIGAND FREE ENERGY PREDICTED BY IDOCK:   -0.85 KCAL/MOL
REMARK 924 INTRA-LIGAND FREE ENERGY PREDICTED BY IDOCK:   43.86 KCAL/MOL
REMARK 927      BINDING AFFINITY PREDICTED BY RF-SCORE:    0.00 PKD
ROOT
HETATM    1 FE   UNL     1      -7.473   5.261  70.074  1.00  0.00    -0.052 Fe 
HETATM    2  C   UNL     2      -9.916   9.495  66.233  1.00  0.00    -0.274 C  
HETATM    3  O   UNL     2     -11.198   9.464  66.954  1.00  0.00    -0.028 OA 
HETATM    4  C   UNL     3     -10.392   6.914  68.479  1.00  0.00    -0.186 C  
HETATM    5  H   UNL     3     -11.311   7.781  67.097  1.00  0.00     0.000 HD 
HETATM    6  H   UNL     2     -11.639   8.715  66.571  1.00  0.00     0.000 HD 
HETATM    7  O   UNL     3     -11.589   7.167  67.767  1.00  0.00     0.356 OA 
ENDROOT
BRANCH   2   8
HETATM    8  C   UNL     2      -9.084   8.278  66.622  1.00  0.00    -0.204 C  
HETATM    9  H   UNL     2      -4.910   7.482  67.734  1.00  0.00     0.000 HD 
HETATM   10  H   UNL     2      -5.954   9.197  68.243  1.00  0.00     0.000 HD 
HETATM   11  C   UNL     2      -6.739   6.906  67.382  1.00  0.00    -0.067 C  
HETATM   12  O   UNL     2      -9.301   6.576  65.741  1.00  0.00    -0.014 OA 
HETATM   13  O   UNL     2      -7.483   4.484  66.931  1.00  0.00    -0.080 OA 
HETATM   14  O   UNL     2      -6.757   9.285  67.744  1.00  0.00    -0.066 OA 
HETATM   15  C   UNL     2      -7.646   5.618  66.367  1.00  0.00    -0.091 C  
HETATM   16  H   UNL     2      -6.701   4.032  67.226  1.00  0.00     0.000 HD 
HETATM   17  O   UNL     2      -5.369   6.829  67.220  1.00  0.00    -0.008 OA 
HETATM   18  C   UNL     2      -7.469   8.102  67.626  1.00  0.00    -0.094 C  
ENDBRANCH   2   8
BRANCH   2  19
HETATM   19  C   UNL     2      -9.201  10.708  66.853  1.00  0.00    -0.155 C  
HETATM   20  H   UNL     2      -7.837  12.018  66.308  1.00  0.00     0.000 HD 
HETATM   21  O   UNL     2      -8.278  11.269  65.924  1.00  0.00    -0.109 OA 
ENDBRANCH   2  19
BRANCH   4  22
HETATM   22  C   UNL     3      -8.906   6.497  67.479  1.00  0.00    -0.112 C  
HETATM   23  H   UNL     3      -7.329   8.018  63.904  1.00  0.00     0.000 HD 
HETATM   24  C   UNL     3      -8.430   5.539  64.544  1.00  0.00    -0.094 C  
HETATM   25  O   UNL     3      -9.624   4.812  67.096  1.00  0.00    -0.145 OA 
HETATM   26  O   UNL     3      -9.325   3.065  65.286  1.00  0.00    -0.149 OA 
HETATM   27  C   UNL     3      -8.166   6.816  65.370  1.00  0.00    -0.134 C  
HETATM   28  O   UNL     3      -7.965   5.160  63.426  1.00  0.00    -0.078 OA 
HETATM   29  O   UNL     3      -7.640   7.884  64.791  1.00  0.00    -0.095 OA 
HETATM   30  C   UNL     3      -9.342   4.275  65.516  1.00  0.00    -0.162 C  
ENDBRANCH   4  22
BRANCH   4  31
HETATM   31  C   UNL     3     -10.842   5.919  69.565  1.00  0.00    -0.372 C  
HETATM   32  O   UNL     3     -12.276   5.769  69.619  1.00  0.00     1.568 OA 
HETATM   33  H   UNL     3     -12.554   5.155  70.288  1.00  0.00     0.000 HD 
ENDBRANCH   4  31
TORSDOF 4
ENDMDL
MODEL      157
REMARK 921   NORMALIZED FREE ENERGY PREDICTED BY IDOCK:    7.12 KCAL/MOL
REMARK 922        TOTAL FREE ENERGY PREDICTED BY IDOCK:   43.12 KCAL/MOL
REMARK 923 INTER-LIGAND FREE ENERGY PREDICTED BY IDOCK:    0.12 KCAL/MOL
REMARK 924 INTRA-LIGAND FREE ENERGY PREDICTED BY IDOCK:   42.99 KCAL/MOL
REMARK 927      BINDING AFFINITY PREDICTED BY RF-SCORE:    0.00 PKD
ROOT
HETATM    1 FE   UNL     1      -8.922  17.653  69.701  1.00  0.00    -0.064 Fe 
HETATM    2  C   UNL     2     -11.643  14.107  65.379  1.00  0.00    -0.334 C  
HETATM    3  O   UNL     2     -12.889  14.051  66.158  1.00  0.00    -0.479 OA 
HETATM    4  C   UNL     3     -11.498  15.190  68.657  1.00  0.00    -0.325 C  
HETATM    5  H   UNL     3     -12.177  13.754  67.664  1.00  0.00     0.000 HD 
HETATM    6  H   UNL     2     -12.723  13.347  66.774  1.00  0.00     0.000 HD 
HETATM    7  O   UNL     3     -12.320  14.041  68.558  1.00  0.00    -0.265 OA 
ENDROOT
BRANCH   2   8
HETATM    8  C   UNL     2     -10.507  14.596  66.272  1.00  0.00    -0.302 C  
HETATM    9  H   UNL     2      -7.543  17.836  66.189  1.00  0.00     0.000 HD 
HETATM   10  H   UNL     2      -9.480  17.998  65.475  1.00  0.00     0.000 HD 
HETATM   11  C   UNL     2      -8.362  16.271  67.015  1.00  0.00    -0.205 C  
HETATM   12  O   UNL     2      -9.319  13.368  67.168  1.00  0.00    -0.222 OA 
HETATM   13  O   UNL     2      -7.305  14.833  68.868  1.00  0.00    -0.114 OA 
HETATM   14  O   UNL     2      -9.897  17.150  65.384  1.00  0.00    -0.490 OA 
HETATM   15  C   UNL     2      -7.848  14.618  67.733  1.00  0.00    -0.154 C  
HETATM   16  H   UNL     2      -6.610  15.423  69.135  1.00  0.00     0.000 HD 
HETATM   17  O   UNL     2      -7.282  16.999  66.554  1.00  0.00    -0.224 OA 
HETATM   18  C   UNL     2      -9.669  16.302  66.455  1.00  0.00    -0.263 C  
ENDBRANCH   2   8
BRANCH   2  19
HETATM   19  C   UNL     2     -11.911  15.246  64.380  1.00  0.00    -0.277 C  
HETATM   20  H   UNL     2     -13.146  15.601  62.889  1.00  0.00     0.000 HD 
HETATM   21  O   UNL     2     -12.980  14.898  63.506  1.00  0.00    -0.219 OA 
ENDBRANCH   2  19
BRANCH   4  22
HETATM   22  C   UNL     3      -9.766  15.022  68.063  1.00  0.00    -0.213 C  
HETATM   23  H   UNL     3      -8.014  12.972  64.853  1.00  0.00     0.000 HD 
HETATM   24  C   UNL     3      -7.821  12.621  67.611  1.00  0.00    -0.162 C  
HETATM   25  O   UNL     3      -9.309  14.101  69.626  1.00  0.00     0.500 OA 
HETATM   26  O   UNL     3      -7.507  12.461  70.322  1.00  0.00     1.357 OA 
HETATM   27  C   UNL     3      -8.581  13.636  66.732  1.00  0.00    -0.029 C  
HETATM   28  O   UNL     3      -6.852  11.846  67.340  1.00  0.00    -0.105 OA 
HETATM   29  O   UNL     3      -8.512  13.554  65.413  1.00  0.00     1.978 OA 
HETATM   30  C   UNL     3      -8.231  12.817  69.390  1.00  0.00     1.042 C  
ENDBRANCH   4  22
BRANCH   4  31
HETATM   31  C   UNL     3     -11.731  15.655  70.106  1.00  0.00    -0.360 C  
HETATM   32  O   UNL     3     -10.505  16.025  70.773  1.00  0.00     0.053 OA 
HETATM   33  H   UNL     3     -10.649  16.311  71.667  1.00  0.00     0.000 HD 
ENDBRANCH   4  31
TORSDOF 4
ENDMDL
MODEL      158
REMARK 921   NORMALIZED FREE ENERGY PREDICTED BY IDOCK:    8.27 KCAL/MOL
REMARK 922        TOTAL FREE ENERGY PREDICTED BY IDOCK:   44.53 KCAL/MOL
REMARK 923 INTER-LIGAND FREE ENERGY PREDICTED BY IDOCK:    7.08 KCAL/MOL
REMARK 924 INTRA-LIGAND FREE ENERGY PREDICTED BY IDOCK:   37.45 KCAL/MOL
REMARK 927      BINDING AFFINITY PREDICTED BY RF-SCORE:    0.00 PKD
ROOT
HETATM    1 FE   UNL     1     -13.815  14.962  69.552  1.00  0.00    -0.145 Fe 
HETATM    2  C   UNL     2      -7.735  13.674  69.734  1.00  0.00     0.947 C  
HETATM    3  O   UNL     2      -7.397  15.029  69.271  1.00  0.00    -0.156 OA 
HETATM    4  C   UNL     3     -10.317  15.595  68.476  1.00  0.00    -0.219 C  
HETATM    5  H   UNL     3      -8.558  15.121  68.042  1.00  0.00     0.000 HD 
HETATM    6  H   UNL     2      -7.486  14.960  68.327  1.00  0.00     0.000 HD 
HETATM    7  O   UNL     3      -9.146  15.786  67.704  1.00  0.00    -0.190 OA 
ENDROOT
BRANCH   2   8
HETATM    8  C   UNL     2      -9.213  13.402  69.474  1.00  0.00     1.324 C  
HETATM    9  H   UNL     2     -13.034  14.400  71.398  1.00  0.00     0.000 HD 
HETATM   10  H   UNL     2     -11.387  15.655  71.335  1.00  0.00     0.000 HD 
HETATM   11  C   UNL     2     -11.982  13.542  69.997  1.00  0.00    -0.340 C  
HETATM   12  O   UNL     2      -9.836  11.686  68.851  1.00  0.00    -0.154 OA 
HETATM   13  O   UNL     2     -12.820  11.692  68.419  1.00  0.00     0.759 OA 
HETATM   14  O   UNL     2     -10.600  15.195  71.070  1.00  0.00    -0.111 OA 
HETATM   15  C   UNL     2     -11.812  11.863  69.183  1.00  0.00    -0.311 C  
HETATM   16  H   UNL     2     -13.754  11.775  68.576  1.00  0.00     0.000 HD 
HETATM   17  O   UNL     2     -12.948  13.548  70.985  1.00  0.00    -0.280 OA 
HETATM   18  C   UNL     2     -10.796  14.327  70.008  1.00  0.00     0.148 C  
ENDBRANCH   2   8
BRANCH   2  19
HETATM   19  C   UNL     2      -7.591  13.786  71.261  1.00  0.00     4.662 C  
HETATM   20  H   UNL     2      -6.799  15.044  72.552  1.00  0.00     0.000 HD 
HETATM   21  O   UNL     2      -6.888  14.975  71.608  1.00  0.00     1.120 OA 
ENDBRANCH   2  19
BRANCH   4  22
HETATM   22  C   UNL     3     -10.942  13.871  68.619  1.00  0.00    -0.281 C  
HETATM   23  H   UNL     3      -9.230  10.121  67.853  1.00  0.00     0.000 HD 
HETATM   24  C   UNL     3     -11.318  11.497  66.624  1.00  0.00    -0.214 C  
HETATM   25  O   UNL     3     -12.188  14.199  67.263  1.00  0.00    -0.402 OA 
HETATM   26  O   UNL     3     -13.491  12.803  65.598  1.00  0.00     0.306 OA 
HETATM   27  C   UNL     3     -10.406  11.827  67.825  1.00  0.00    -0.194 C  
HETATM   28  O   UNL     3     -11.564  10.396  66.042  1.00  0.00     0.669 OA 
HETATM   29  O   UNL     3      -9.455  10.981  68.187  1.00  0.00    -0.160 OA 
HETATM   30  C   UNL     3     -12.418  12.905  66.197  1.00  0.00    -0.019 C  
ENDBRANCH   4  22
BRANCH   4  31
HETATM   31  C   UNL     3     -11.270  16.672  67.927  1.00  0.00    -0.114 C  
HETATM   32  O   UNL     3     -11.473  16.560  66.503  1.00  0.00     0.434 OA 
HETATM   33  H   UNL     3     -12.060  17.225  66.164  1.00  0.00     0.000 HD 
ENDBRANCH   4  31
TORSDOF 4
ENDMDL
MODEL      159
REMARK 921   NORMALIZED FREE ENERGY PREDICTED BY IDOCK:    9.67 KCAL/MOL
REMARK 922        TOTAL FREE ENERGY PREDICTED BY IDOCK:   46.26 KCAL/MOL
REMARK 923 INTER-LIGAND FREE ENERGY PREDICTED BY IDOCK:    6.72 KCAL/MOL
REMARK 924 INTRA-LIGAND FREE ENERGY PREDICTED BY IDOCK:   39.54 KCAL/MOL
REMARK 927      BINDING AFFINITY PREDICTED BY RF-SCORE:    0.00 PKD
ROOT
HETATM    1 FE   UNL     1      -8.591  14.125  67.078  1.00  0.00    -0.157 Fe 
HETATM    2  C   UNL     2      -7.282   9.301  70.775  1.00  0.00    -0.121 C  
HETATM    3  O   UNL     2      -6.896   8.475  69.621  1.00  0.00    -0.042 OA 
HETATM    4  C   UNL     3      -8.131  10.483  67.641  1.00  0.00    -0.107 C  
HETATM    5  H   UNL     3      -8.200   8.892  68.625  1.00  0.00     0.000 HD 
HETATM    6  H   UNL     2      -7.729   8.140  69.311  1.00  0.00     0.000 HD 
HETATM    7  O   UNL     3      -8.324   9.082  67.703  1.00  0.00    -0.115 OA 
ENDROOT
BRANCH   2   8
HETATM    8  C   UNL     2      -8.064  10.517  70.290  1.00  0.00     0.704 C  
HETATM    9  H   UNL     2      -7.166  14.689  69.248  1.00  0.00     0.000 HD 
HETATM   10  H   UNL     2      -5.901  13.090  68.885  1.00  0.00     0.000 HD 
HETATM   11  C   UNL     2      -8.401  13.197  69.473  1.00  0.00     1.331 C  
HETATM   12  O   UNL     2      -9.815  10.940  70.980  1.00  0.00     2.289 OA 
HETATM   13  O   UNL     2     -10.962  13.388  69.643  1.00  0.00    -0.460 OA 
HETATM   14  O   UNL     2      -6.166  12.312  69.361  1.00  0.00    -0.092 OA 
HETATM   15  C   UNL     2     -10.033  12.826  70.316  1.00  0.00     3.670 C  
HETATM   16  H   UNL     2     -11.065  14.278  69.330  1.00  0.00     0.000 HD 
HETATM   17  O   UNL     2      -7.994  14.501  69.675  1.00  0.00     0.046 OA 
HETATM   18  C   UNL     2      -7.532  12.081  69.331  1.00  0.00     0.299 C  
ENDBRANCH   2   8
BRANCH   2  19
HETATM   19  C   UNL     2      -5.932   9.843  71.277  1.00  0.00     0.002 C  
HETATM   20  H   UNL     2      -4.544  11.085  70.639  1.00  0.00     0.000 HD 
HETATM   21  O   UNL     2      -5.378  10.750  70.329  1.00  0.00    -0.053 OA 
ENDBRANCH   2  19
BRANCH   4  22
HETATM   22  C   UNL     3      -9.044  11.500  68.871  1.00  0.00     0.015 C  
HETATM   23  H   UNL     3     -12.209  10.679  71.496  1.00  0.00     0.000 HD 
HETATM   24  C   UNL     3     -12.032  12.327  69.256  1.00  0.00    -0.253 C  
HETATM   25  O   UNL     3      -9.727  12.569  67.496  1.00  0.00    -0.190 OA 
HETATM   26  O   UNL     3     -11.735  14.081  67.180  1.00  0.00    -0.349 OA 
HETATM   27  C   UNL     3     -11.011  11.421  69.977  1.00  0.00     0.152 C  
HETATM   28  O   UNL     3     -13.147  12.795  69.640  1.00  0.00     0.914 OA 
HETATM   29  O   UNL     3     -11.382  10.712  71.031  1.00  0.00    -0.186 OA 
HETATM   30  C   UNL     3     -11.336  13.045  67.715  1.00  0.00    -0.292 C  
ENDBRANCH   4  22
BRANCH   4  31
HETATM   31  C   UNL     3      -8.333  10.792  66.147  1.00  0.00    -0.166 C  
HETATM   32  O   UNL     3      -7.620   9.875  65.290  1.00  0.00    -0.118 OA 
HETATM   33  H   UNL     3      -7.744  10.066  64.368  1.00  0.00     0.000 HD 
ENDBRANCH   4  31
TORSDOF 4
ENDMDL
MODEL      160
REMARK 921   NORMALIZED FREE ENERGY PREDICTED BY IDOCK:    9.96 KCAL/MOL
REMARK 922        TOTAL FREE ENERGY PREDICTED BY IDOCK:   46.62 KCAL/MOL
REMARK 923 INTER-LIGAND FREE ENERGY PREDICTED BY IDOCK:   -2.22 KCAL/MOL
REMARK 924 INTRA-LIGAND FREE ENERGY PREDICTED BY IDOCK:   48.84 KCAL/MOL
REMARK 927      BINDING AFFINITY PREDICTED BY RF-SCORE:    0.00 PKD
ROOT
HETATM    1 FE   UNL     1     -10.777   6.993  70.956  1.00  0.00    -0.215 Fe 
HETATM    2  C   UNL     2      -8.200   2.838  67.116  1.00  0.00    -0.081 C  
HETATM    3  O   UNL     2      -8.796   1.721  67.866  1.00  0.00    -0.093 OA 
HETATM    4  C   UNL     3      -9.552   3.567  70.210  1.00  0.00    -0.162 C  
HETATM    5  H   UNL     3      -8.430   2.297  69.415  1.00  0.00     0.000 HD 
HETATM    6  H   UNL     2      -8.181   1.593  68.579  1.00  0.00     0.000 HD 
HETATM    7  O   UNL     3      -8.870   2.327  70.256  1.00  0.00    -0.063 OA 
ENDROOT
BRANCH   2   8
HETATM    8  C   UNL     2      -8.268   4.108  67.957  1.00  0.00    -0.094 C  
HETATM    9  H   UNL     2      -8.884   8.396  67.230  1.00  0.00     0.000 HD 
HETATM   10  H   UNL     2      -9.811   6.880  66.166  1.00  0.00     0.000 HD 
HETATM   11  C   UNL     2      -8.555   6.878  68.409  1.00  0.00    -0.125 C  
HETATM   12  O   UNL     2      -7.072   4.408  69.441  1.00  0.00    -0.049 OA 
HETATM   13  O   UNL     2      -7.668   7.023  70.820  1.00  0.00    -0.092 OA 
HETATM   14  O   UNL     2      -9.401   6.037  66.319  1.00  0.00    -0.158 OA 
HETATM   15  C   UNL     2      -7.364   6.372  69.765  1.00  0.00    -0.080 C  
HETATM   16  H   UNL     2      -7.806   7.951  70.973  1.00  0.00     0.000 HD 
HETATM   17  O   UNL     2      -8.280   8.140  67.918  1.00  0.00    -0.125 OA 
HETATM   18  C   UNL     2      -9.093   5.803  67.650  1.00  0.00    -0.106 C  
ENDBRANCH   2   8
BRANCH   2  19
HETATM   19  C   UNL     2      -9.194   3.047  65.960  1.00  0.00    -0.117 C  
HETATM   20  H   UNL     2      -9.149   3.744  64.120  1.00  0.00     0.000 HD 
HETATM   21  O   UNL     2      -8.534   3.615  64.834  1.00  0.00    -0.103 OA 
ENDBRANCH   2  19
BRANCH   4  22
HETATM   22  C   UNL     3      -8.573   5.032  69.687  1.00  0.00    -0.099 C  
HETATM   23  H   UNL     3      -4.490   5.650  68.960  1.00  0.00     0.000 HD 
HETATM   24  C   UNL     3      -6.201   6.646  70.922  1.00  0.00    -0.039 C  
HETATM   25  O   UNL     3      -8.987   5.896  71.294  1.00  0.00    -0.139 OA 
HETATM   26  O   UNL     3      -7.971   7.750  72.689  1.00  0.00    -0.096 OA 
HETATM   27  C   UNL     3      -6.417   5.702  69.720  1.00  0.00    -0.041 C  
HETATM   28  O   UNL     3      -5.258   7.453  71.188  1.00  0.00    -0.026 OA 
HETATM   29  O   UNL     3      -5.396   5.368  68.946  1.00  0.00    -0.003 OA 
HETATM   30  C   UNL     3      -7.714   6.797  71.951  1.00  0.00    -0.096 C  
ENDBRANCH   4  22
BRANCH   4  31
HETATM   31  C   UNL     3     -10.266   3.616  71.574  1.00  0.00     0.085 C  
HETATM   32  O   UNL     3      -9.369   3.377  72.678  1.00  0.00    -0.100 OA 
HETATM   33  H   UNL     3      -9.809   3.407  73.519  1.00  0.00     0.000 HD 
ENDBRANCH   4  31
TORSDOF 4
ENDMDL
MODEL      161
REMARK 921   NORMALIZED FREE ENERGY PREDICTED BY IDOCK:   11.05 KCAL/MOL
REMARK 922        TOTAL FREE ENERGY PREDICTED BY IDOCK:   47.97 KCAL/MOL
REMARK 923 INTER-LIGAND FREE ENERGY PREDICTED BY IDOCK:   12.30 KCAL/MOL
REMARK 924 INTRA-LIGAND FREE ENERGY PREDICTED BY IDOCK:   35.67 KCAL/MOL
REMARK 927      BINDING AFFINITY PREDICTED BY RF-SCORE:    0.00 PKD
ROOT
HETATM    1 FE   UNL     1     -11.055  12.673  66.840  1.00  0.00    -0.231 Fe 
HETATM    2  C   UNL     2      -6.537  16.585  68.555  1.00  0.00    -0.139 C  
HETATM    3  O   UNL     2      -5.930  15.561  69.420  1.00  0.00    -0.109 OA 
HETATM    4  C   UNL     3      -8.425  13.768  69.221  1.00  0.00     0.549 C  
HETATM    5  H   UNL     3      -7.366  15.016  70.132  1.00  0.00     0.000 HD 
HETATM    6  H   UNL     2      -6.434  15.634  70.222  1.00  0.00     0.000 HD 
HETATM    7  O   UNL     3      -7.728  14.176  70.385  1.00  0.00     0.927 OA 
ENDROOT
BRANCH   2   8
HETATM    8  C   UNL     2      -7.958  16.165  68.192  1.00  0.00    -0.148 C  
HETATM    9  H   UNL     2      -9.839  13.219  65.531  1.00  0.00     0.000 HD 
HETATM   10  H   UNL     2      -8.069  12.910  66.561  1.00  0.00     0.000 HD 
HETATM   11  C   UNL     2      -9.926  14.665  66.837  1.00  0.00    -0.253 C  
HETATM   12  O   UNL     2      -9.371  17.457  67.959  1.00  0.00    -0.262 OA 
HETATM   13  O   UNL     2     -11.995  16.113  67.328  1.00  0.00     0.523 OA 
HETATM   14  O   UNL     2      -7.715  13.719  66.910  1.00  0.00     0.079 OA 
HETATM   15  C   UNL     2     -10.766  16.326  67.055  1.00  0.00    -0.233 C  
HETATM   16  H   UNL     2     -12.655  15.579  66.901  1.00  0.00     0.000 HD 
HETATM   17  O   UNL     2     -10.265  14.061  65.641  1.00  0.00    -0.308 OA 
HETATM   18  C   UNL     2      -8.670  14.537  67.490  1.00  0.00    -0.188 C  
ENDBRANCH   2   8
BRANCH   2  19
HETATM   19  C   UNL     2      -5.720  16.468  67.257  1.00  0.00    -0.146 C  
HETATM   20  H   UNL     2      -5.271  17.615  65.722  1.00  0.00     0.000 HD 
HETATM   21  O   UNL     2      -5.775  17.687  66.524  1.00  0.00    -0.157 OA 
ENDBRANCH   2  19
BRANCH   4  22
HETATM   22  C   UNL     3      -9.547  15.005  68.453  1.00  0.00    -0.212 C  
HETATM   23  H   UNL     3     -10.535  18.969  69.398  1.00  0.00     0.000 HD 
HETATM   24  C   UNL     3     -12.036  16.621  69.429  1.00  0.00     0.783 C  
HETATM   25  O   UNL     3     -11.027  13.946  68.885  1.00  0.00    -0.252 OA 
HETATM   26  O   UNL     3     -13.507  14.324  69.236  1.00  0.00     1.776 OA 
HETATM   27  C   UNL     3     -10.573  16.928  69.043  1.00  0.00    -0.338 C  
HETATM   28  O   UNL     3     -13.039  17.386  69.566  1.00  0.00     6.269 OA 
HETATM   29  O   UNL     3     -10.104  18.160  69.150  1.00  0.00    -0.341 OA 
HETATM   30  C   UNL     3     -12.388  14.818  69.386  1.00  0.00    -0.149 C  
ENDBRANCH   4  22
BRANCH   4  31
HETATM   31  C   UNL     3      -9.013  12.406  69.632  1.00  0.00     2.006 C  
HETATM   32  O   UNL     3     -10.109  12.533  70.562  1.00  0.00     2.856 OA 
HETATM   33  H   UNL     3     -10.472  11.693  70.816  1.00  0.00     0.000 HD 
ENDBRANCH   4  31
TORSDOF 4
ENDMDL
MODEL      162
REMARK 921   NORMALIZED FREE ENERGY PREDICTED BY IDOCK:   12.46 KCAL/MOL
REMARK 922        TOTAL FREE ENERGY PREDICTED BY IDOCK:   49.70 KCAL/MOL
REMARK 923 INTER-LIGAND FREE ENERGY PREDICTED BY IDOCK:   -3.10 KCAL/MOL
REMARK 924 INTRA-LIGAND FREE ENERGY PREDICTED BY IDOCK:   52.80 KCAL/MOL
REMARK 927      BINDING AFFINITY PREDICTED BY RF-SCORE:    0.00 PKD
ROOT
HETATM    1 FE   UNL     1     -11.133  12.626  70.129  1.00  0.00    -0.420 Fe 
HETATM    2  C   UNL     2      -9.677  13.133  64.105  1.00  0.00     0.608 C  
HETATM    3  O   UNL     2      -8.760  11.986  64.194  1.00  0.00     0.221 OA 
HETATM    4  C   UNL     3      -8.837  12.031  67.271  1.00  0.00    -0.183 C  
HETATM    5  H   UNL     3      -8.007  12.435  65.642  1.00  0.00     0.000 HD 
HETATM    6  H   UNL     2      -7.960  12.378  64.523  1.00  0.00     0.000 HD 
HETATM    7  O   UNL     3      -7.704  11.989  66.423  1.00  0.00     0.077 OA 
ENDROOT
BRANCH   2   8
HETATM    8  C   UNL     2     -10.005  13.629  65.510  1.00  0.00    -0.244 C  
HETATM    9  H   UNL     2     -13.630  14.293  67.901  1.00  0.00     0.000 HD 
HETATM   10  H   UNL     2     -13.388  12.753  66.537  1.00  0.00     0.000 HD 
HETATM   11  C   UNL     2     -11.695  14.330  67.657  1.00  0.00    -0.389 C  
HETATM   12  O   UNL     2      -9.060  15.108  66.311  1.00  0.00    -0.288 OA 
HETATM   13  O   UNL     2     -10.029  15.641  69.116  1.00  0.00    -0.212 OA 
HETATM   14  O   UNL     2     -12.637  12.893  65.973  1.00  0.00    -0.467 OA 
HETATM   15  C   UNL     2     -10.265  15.523  67.867  1.00  0.00    -0.238 C  
HETATM   16  H   UNL     2     -10.599  15.838  69.851  1.00  0.00     0.000 HD 
HETATM   17  O   UNL     2     -12.905  14.899  68.007  1.00  0.00     0.793 OA 
HETATM   18  C   UNL     2     -11.514  13.348  66.645  1.00  0.00    -0.344 C  
ENDBRANCH   2   8
BRANCH   2  19
HETATM   19  C   UNL     2     -10.972  12.498  63.572  1.00  0.00    -0.420 C  
HETATM   20  H   UNL     2     -11.709  10.687  63.343  1.00  0.00     0.000 HD 
HETATM   21  O   UNL     2     -10.908  11.079  63.673  1.00  0.00    -0.319 OA 
ENDBRANCH   2  19
BRANCH   4  22
HETATM   22  C   UNL     3      -9.666  13.660  67.465  1.00  0.00    -0.227 C  
HETATM   23  H   UNL     3      -8.340  17.424  68.750  1.00  0.00     0.000 HD 
HETATM   24  C   UNL     3     -10.145  15.612  69.857  1.00  0.00    -0.265 C  
HETATM   25  O   UNL     3     -10.748  12.960  68.822  1.00  0.00    -0.247 OA 
HETATM   26  O   UNL     3     -12.057  13.890  70.781  1.00  0.00    -0.334 OA 
HETATM   27  C   UNL     3      -9.305  15.600  68.562  1.00  0.00    -0.197 C  
HETATM   28  O   UNL     3     -10.466  16.563  70.633  1.00  0.00     0.273 OA 
HETATM   29  O   UNL     3      -8.492  16.608  68.289  1.00  0.00    -0.189 OA 
HETATM   30  C   UNL     3     -11.035  14.024  70.106  1.00  0.00     0.274 C  
ENDBRANCH   4  22
BRANCH   4  31
HETATM   31  C   UNL     3      -8.345  11.307  68.538  1.00  0.00    -0.155 C  
HETATM   32  O   UNL     3      -7.706  12.201  69.474  1.00  0.00    -0.209 OA 
HETATM   33  H   UNL     3      -7.403  11.754  70.255  1.00  0.00     0.000 HD 
ENDBRANCH   4  31
TORSDOF 4
ENDMDL
MODEL      163
REMARK 921   NORMALIZED FREE ENERGY PREDICTED BY IDOCK:   12.66 KCAL/MOL
REMARK 922        TOTAL FREE ENERGY PREDICTED BY IDOCK:   49.95 KCAL/MOL
REMARK 923 INTER-LIGAND FREE ENERGY PREDICTED BY IDOCK:   -1.09 KCAL/MOL
REMARK 924 INTRA-LIGAND FREE ENERGY PREDICTED BY IDOCK:   51.04 KCAL/MOL
REMARK 927      BINDING AFFINITY PREDICTED BY RF-SCORE:    0.00 PKD
ROOT
HETATM    1 FE   UNL     1      -6.117  13.118  65.885  1.00  0.00     0.967 Fe 
HETATM    2  C   UNL     2     -11.993  11.739  64.394  1.00  0.00    -0.152 C  
HETATM    3  O   UNL     2     -12.477  12.996  64.987  1.00  0.00    -0.450 OA 
HETATM    4  C   UNL     3      -9.778  13.493  66.383  1.00  0.00    -0.289 C  
HETATM    5  H   UNL     3     -11.560  12.917  66.408  1.00  0.00     0.000 HD 
HETATM    6  H   UNL     2     -12.554  12.779  65.909  1.00  0.00     0.000 HD 
HETATM    7  O   UNL     3     -11.077  13.533  66.946  1.00  0.00    -0.288 OA 
ENDROOT
BRANCH   2   8
HETATM    8  C   UNL     2     -10.573  11.463  64.877  1.00  0.00    -0.368 C  
HETATM    9  H   UNL     2      -6.738  10.339  63.054  1.00  0.00     0.000 HD 
HETATM   10  H   UNL     2      -8.138  11.584  62.171  1.00  0.00     0.000 HD 
HETATM   11  C   UNL     2      -7.851  10.777  64.594  1.00  0.00     0.200 C  
HETATM   12  O   UNL     2     -10.226  10.484  66.502  1.00  0.00    -0.217 OA 
HETATM   13  O   UNL     2      -7.267  10.280  67.051  1.00  0.00    -0.088 OA 
HETATM   14  O   UNL     2      -8.978  11.542  62.610  1.00  0.00    -0.310 OA 
HETATM   15  C   UNL     2      -8.268  10.079  66.283  1.00  0.00    -0.124 C  
HETATM   16  H   UNL     2      -6.343  10.089  66.947  1.00  0.00     0.000 HD 
HETATM   17  O   UNL     2      -6.948   9.985  63.911  1.00  0.00    -0.123 OA 
HETATM   18  C   UNL     2      -8.883  11.549  63.993  1.00  0.00     0.415 C  
ENDBRANCH   2   8
BRANCH   2  19
HETATM   19  C   UNL     2     -11.868  12.089  62.901  1.00  0.00     0.279 C  
HETATM   20  H   UNL     2     -10.549  12.954  61.723  1.00  0.00     0.000 HD 
HETATM   21  O   UNL     2     -10.626  12.738  62.645  1.00  0.00     0.989 OA 
ENDBRANCH   2  19
BRANCH   4  22
HETATM   22  C   UNL     3      -9.051  11.829  66.096  1.00  0.00    -0.189 C  
HETATM   23  H   UNL     3     -10.027   8.670  63.518  1.00  0.00     0.000 HD 
HETATM   24  C   UNL     3     -10.118   8.900  66.294  1.00  0.00    -0.214 C  
HETATM   25  O   UNL     3      -9.541  11.306  67.824  1.00  0.00    -0.168 OA 
HETATM   26  O   UNL     3      -9.985   9.115  69.016  1.00  0.00    -0.173 OA 
HETATM   27  C   UNL     3      -9.677   9.866  65.174  1.00  0.00    -0.306 C  
HETATM   28  O   UNL     3     -10.292   7.643  66.289  1.00  0.00    -0.012 OA 
HETATM   29  O   UNL     3      -9.764   9.496  63.906  1.00  0.00     0.204 OA 
HETATM   30  C   UNL     3     -10.091   9.710  67.942  1.00  0.00    -0.181 C  
ENDBRANCH   4  22
BRANCH   4  31
HETATM   31  C   UNL     3      -8.995  14.491  67.255  1.00  0.00    -0.210 C  
HETATM   32  O   UNL     3      -8.387  15.546  66.481  1.00  0.00    -0.281 OA 
HETATM   33  H   UNL     3      -7.903  16.162  67.019  1.00  0.00     0.000 HD 
ENDBRANCH   4  31
TORSDOF 4
ENDMDL
MODEL      164
REMARK 921   NORMALIZED FREE ENERGY PREDICTED BY IDOCK:   12.69 KCAL/MOL
REMARK 922        TOTAL FREE ENERGY PREDICTED BY IDOCK:   49.98 KCAL/MOL
REMARK 923 INTER-LIGAND FREE ENERGY PREDICTED BY IDOCK:    5.42 KCAL/MOL
REMARK 924 INTRA-LIGAND FREE ENERGY PREDICTED BY IDOCK:   44.56 KCAL/MOL
REMARK 927      BINDING AFFINITY PREDICTED BY RF-SCORE:    0.00 PKD
ROOT
HETATM    1 FE   UNL     1      -5.587   5.942  69.802  1.00  0.00    -0.008 Fe 
HETATM    2  C   UNL     2     -11.042   7.762  67.437  1.00  0.00     0.220 C  
HETATM    3  O   UNL     2     -10.581   7.485  66.067  1.00  0.00     0.154 OA 
HETATM    4  C   UNL     3      -7.658   7.218  66.995  1.00  0.00    -0.106 C  
HETATM    5  H   UNL     3      -9.053   8.197  66.217  1.00  0.00     0.000 HD 
HETATM    6  H   UNL     2     -10.105   8.275  65.839  1.00  0.00     0.000 HD 
HETATM    7  O   UNL     3      -8.171   7.993  65.927  1.00  0.00    -0.112 OA 
ENDROOT
BRANCH   2   8
HETATM    8  C   UNL     2      -9.841   7.810  68.376  1.00  0.00    -0.180 C  
HETATM    9  H   UNL     2      -8.700   5.976  72.201  1.00  0.00     0.000 HD 
HETATM   10  H   UNL     2      -9.809   5.030  70.730  1.00  0.00     0.000 HD 
HETATM   11  C   UNL     2      -8.356   7.149  70.682  1.00  0.00    -0.126 C  
HETATM   12  O   UNL     2      -8.907   9.456  68.748  1.00  0.00    -0.129 OA 
HETATM   13  O   UNL     2      -6.568   8.998  70.596  1.00  0.00    -0.046 OA 
HETATM   14  O   UNL     2     -10.132   5.642  70.080  1.00  0.00    -0.192 OA 
HETATM   15  C   UNL     2      -7.818   8.914  70.350  1.00  0.00    -0.102 C  
HETATM   16  H   UNL     2      -6.054   8.742  71.353  1.00  0.00     0.000 HD 
HETATM   17  O   UNL     2      -8.427   6.871  72.034  1.00  0.00    -0.111 OA 
HETATM   18  C   UNL     2      -9.191   6.578  69.683  1.00  0.00    -0.143 C  
ENDBRANCH   2   8
BRANCH   2  19
HETATM   19  C   UNL     2     -11.813   6.483  67.806  1.00  0.00     1.594 C  
HETATM   20  H   UNL     2     -12.427   4.850  66.895  1.00  0.00     0.000 HD 
HETATM   21  O   UNL     2     -11.951   5.640  66.667  1.00  0.00     1.722 OA 
ENDBRANCH   2  19
BRANCH   4  22
HETATM   22  C   UNL     3      -7.883   7.894  68.691  1.00  0.00    -0.119 C  
HETATM   23  H   UNL     3     -11.231   9.236  70.829  1.00  0.00     0.000 HD 
HETATM   24  C   UNL     3      -8.984  10.572  69.861  1.00  0.00     0.315 C  
HETATM   25  O   UNL     3      -6.875   9.402  68.235  1.00  0.00    -0.062 OA 
HETATM   26  O   UNL     3      -6.663  11.783  69.073  1.00  0.00    -0.087 OA 
HETATM   27  C   UNL     3      -9.425   9.093  69.822  1.00  0.00    -0.182 C  
HETATM   28  O   UNL     3      -9.376  11.539  70.585  1.00  0.00     3.514 OA 
HETATM   29  O   UNL     3     -10.582   8.731  70.353  1.00  0.00    -0.207 OA 
HETATM   30  C   UNL     3      -7.450  10.852  68.892  1.00  0.00    -0.116 C  
ENDBRANCH   4  22
BRANCH   4  31
HETATM   31  C   UNL     3      -6.229   6.889  66.525  1.00  0.00    -0.045 C  
HETATM   32  O   UNL     3      -5.224   7.640  67.239  1.00  0.00    -0.024 OA 
HETATM   33  H   UNL     3      -4.343   7.437  66.949  1.00  0.00     0.000 HD 
ENDBRANCH   4  31
TORSDOF 4
ENDMDL
MODEL      165
REMARK 921   NORMALIZED FREE ENERGY PREDICTED BY IDOCK:   13.49 KCAL/MOL
REMARK 922        TOTAL FREE ENERGY PREDICTED BY IDOCK:   50.98 KCAL/MOL
REMARK 923 INTER-LIGAND FREE ENERGY PREDICTED BY IDOCK:   -5.59 KCAL/MOL
REMARK 924 INTRA-LIGAND FREE ENERGY PREDICTED BY IDOCK:   56.56 KCAL/MOL
REMARK 927      BINDING AFFINITY PREDICTED BY RF-SCORE:    0.00 PKD
ROOT
HETATM    1 FE   UNL     1     -10.592   7.547  66.187  1.00  0.00    -0.429 Fe 
HETATM    2  C   UNL     2     -10.620   6.958  72.377  1.00  0.00    -0.211 C  
HETATM    3  O   UNL     2     -11.295   8.255  72.533  1.00  0.00    -0.375 OA 
HETATM    4  C   UNL     3     -10.750   9.007  69.598  1.00  0.00    -0.219 C  
HETATM    5  H   UNL     3     -10.348   9.114  71.424  1.00  0.00     0.000 HD 
HETATM    6  H   UNL     2     -10.576   8.875  72.495  1.00  0.00     0.000 HD 
HETATM    7  O   UNL     3     -10.501   9.776  70.761  1.00  0.00    -0.303 OA 
ENDROOT
BRANCH   2   8
HETATM    8  C   UNL     2     -10.051   6.848  70.966  1.00  0.00    -0.206 C  
HETATM    9  H   UNL     2      -8.482   3.655  68.390  1.00  0.00     0.000 HD 
HETATM   10  H   UNL     2     -10.039   3.419  69.736  1.00  0.00     0.000 HD 
HETATM   11  C   UNL     2      -8.937   5.518  68.741  1.00  0.00    -0.114 C  
HETATM   12  O   UNL     2      -8.857   8.181  70.246  1.00  0.00    -0.138 OA 
HETATM   13  O   UNL     2      -8.085   7.543  67.402  1.00  0.00    -0.113 OA 
HETATM   14  O   UNL     2     -10.096   4.147  70.344  1.00  0.00    -0.163 OA 
HETATM   15  C   UNL     2      -8.145   7.213  68.633  1.00  0.00    -0.124 C  
HETATM   16  H   UNL     2      -7.748   7.086  66.640  1.00  0.00     0.000 HD 
HETATM   17  O   UNL     2      -8.080   4.514  68.335  1.00  0.00    -0.082 OA 
HETATM   18  C   UNL     2      -9.937   5.385  69.744  1.00  0.00    -0.224 C  
ENDBRANCH   2   8
BRANCH   2  19
HETATM   19  C   UNL     2     -11.785   5.954  72.439  1.00  0.00    -0.253 C  
HETATM   20  H   UNL     2     -12.158   4.222  73.296  1.00  0.00     0.000 HD 
HETATM   21  O   UNL     2     -11.439   4.842  73.258  1.00  0.00    -0.336 OA 
ENDBRANCH   2  19
BRANCH   4  22
HETATM   22  C   UNL     3      -9.555   7.661  69.225  1.00  0.00    -0.159 C  
HETATM   23  H   UNL     3      -5.879   7.558  67.210  1.00  0.00     0.000 HD 
HETATM   24  C   UNL     3      -8.362   6.445  66.607  1.00  0.00    -0.113 C  
HETATM   25  O   UNL     3     -10.817   6.833  68.120  1.00  0.00    -0.233 OA 
HETATM   26  O   UNL     3     -10.761   5.206  66.179  1.00  0.00    -0.296 OA 
HETATM   27  C   UNL     3      -7.849   7.288  67.793  1.00  0.00    -0.114 C  
HETATM   28  O   UNL     3      -7.735   5.785  65.722  1.00  0.00    -0.090 OA 
HETATM   29  O   UNL     3      -6.596   7.715  67.812  1.00  0.00    -0.058 OA 
HETATM   30  C   UNL     3     -10.171   6.146  66.714  1.00  0.00    -0.206 C  
ENDBRANCH   4  22
BRANCH   4  31
HETATM   31  C   UNL     3     -10.998  10.081  68.523  1.00  0.00    -0.209 C  
HETATM   32  O   UNL     3     -12.314  10.666  68.617  1.00  0.00    -0.820 OA 
HETATM   33  H   UNL     3     -12.467  11.328  67.953  1.00  0.00     0.000 HD 
ENDBRANCH   4  31
TORSDOF 4
ENDMDL
MODEL      166
REMARK 921   NORMALIZED FREE ENERGY PREDICTED BY IDOCK:   13.54 KCAL/MOL
REMARK 922        TOTAL FREE ENERGY PREDICTED BY IDOCK:   51.03 KCAL/MOL
REMARK 923 INTER-LIGAND FREE ENERGY PREDICTED BY IDOCK:   -5.06 KCAL/MOL
REMARK 924 INTRA-LIGAND FREE ENERGY PREDICTED BY IDOCK:   56.09 KCAL/MOL
REMARK 927      BINDING AFFINITY PREDICTED BY RF-SCORE:    0.00 PKD
ROOT
HETATM    1 FE   UNL     1     -11.717   9.280  67.859  1.00  0.00    -0.522 Fe 
HETATM    2  C   UNL     2      -9.888   5.885  72.737  1.00  0.00    -0.166 C  
HETATM    3  O   UNL     2     -11.045   6.332  73.527  1.00  0.00    -0.454 OA 
HETATM    4  C   UNL     3     -11.698   8.557  71.502  1.00  0.00    -0.297 C  
HETATM    5  H   UNL     3     -10.952   7.972  73.117  1.00  0.00     0.000 HD 
HETATM    6  H   UNL     2     -10.755   7.169  73.874  1.00  0.00     0.000 HD 
HETATM    7  O   UNL     3     -11.571   8.662  72.908  1.00  0.00    -0.103 OA 
ENDROOT
BRANCH   2   8
HETATM    8  C   UNL     2      -9.716   6.799  71.527  1.00  0.00    -0.168 C  
HETATM    9  H   UNL     2      -7.335   6.802  67.836  1.00  0.00     0.000 HD 
HETATM   10  H   UNL     2      -8.124   5.105  68.723  1.00  0.00     0.000 HD 
HETATM   11  C   UNL     2      -8.636   7.602  69.048  1.00  0.00    -0.136 C  
HETATM   12  O   UNL     2      -9.667   8.719  71.704  1.00  0.00    -0.244 OA 
HETATM   13  O   UNL     2      -9.391  10.062  69.018  1.00  0.00    -0.161 OA 
HETATM   14  O   UNL     2      -8.421   5.272  69.609  1.00  0.00    -0.096 OA 
HETATM   15  C   UNL     2      -8.958   9.242  69.896  1.00  0.00    -0.183 C  
HETATM   16  H   UNL     2      -9.056  10.309  68.164  1.00  0.00     0.000 HD 
HETATM   17  O   UNL     2      -7.498   7.634  68.265  1.00  0.00    -0.099 OA 
HETATM   18  C   UNL     2      -9.120   6.461  69.745  1.00  0.00    -0.141 C  
ENDBRANCH   2   8
BRANCH   2  19
HETATM   19  C   UNL     2     -10.356   4.531  72.176  1.00  0.00    -0.162 C  
HETATM   20  H   UNL     2     -10.236   2.634  72.688  1.00  0.00     0.000 HD 
HETATM   21  O   UNL     2      -9.946   3.471  73.034  1.00  0.00    -0.129 OA 
ENDBRANCH   2  19
BRANCH   4  22
HETATM   22  C   UNL     3     -10.137   8.465  70.534  1.00  0.00    -0.211 C  
HETATM   23  H   UNL     3      -7.605  11.368  68.880  1.00  0.00     0.000 HD 
HETATM   24  C   UNL     3      -9.243   9.444  67.706  1.00  0.00    -0.128 C  
HETATM   25  O   UNL     3     -11.052   7.654  69.118  1.00  0.00    -0.047 OA 
HETATM   26  O   UNL     3     -10.704   7.403  66.621  1.00  0.00    -0.241 OA 
HETATM   27  C   UNL     3      -8.931   9.803  69.174  1.00  0.00    -0.161 C  
HETATM   28  O   UNL     3      -8.633   9.730  66.631  1.00  0.00    -0.126 OA 
HETATM   29  O   UNL     3      -8.113  10.806  69.452  1.00  0.00    -0.131 OA 
HETATM   30  C   UNL     3     -10.550   8.159  67.582  1.00  0.00    -0.188 C  
ENDBRANCH   4  22
BRANCH   4  31
HETATM   31  C   UNL     3     -12.701   9.675  71.163  1.00  0.00    -0.320 C  
HETATM   32  O   UNL     3     -12.652  10.062  69.774  1.00  0.00    -0.443 OA 
HETATM   33  H   UNL     3     -13.270  10.752  69.565  1.00  0.00     0.000 HD 
ENDBRANCH   4  31
TORSDOF 4
ENDMDL
MODEL      167
REMARK 921   NORMALIZED FREE ENERGY PREDICTED BY IDOCK:   13.70 KCAL/MOL
REMARK 922        TOTAL FREE ENERGY PREDICTED BY IDOCK:   51.24 KCAL/MOL
REMARK 923 INTER-LIGAND FREE ENERGY PREDICTED BY IDOCK:   -5.34 KCAL/MOL
REMARK 924 INTRA-LIGAND FREE ENERGY PREDICTED BY IDOCK:   56.58 KCAL/MOL
REMARK 927      BINDING AFFINITY PREDICTED BY RF-SCORE:    0.00 PKD
ROOT
HETATM    1 FE   UNL     1      -6.126  10.961  67.338  1.00  0.00    -0.048 Fe 
HETATM    2  C   UNL     2     -11.729  13.069  65.658  1.00  0.00    -0.375 C  
HETATM    3  O   UNL     2     -11.360  14.446  66.023  1.00  0.00    -0.324 OA 
HETATM    4  C   UNL     3      -8.845  13.485  67.515  1.00  0.00    -0.209 C  
HETATM    5  H   UNL     3     -10.622  14.076  67.500  1.00  0.00     0.000 HD 
HETATM    6  H   UNL     2     -11.521  14.469  66.959  1.00  0.00     0.000 HD 
HETATM    7  O   UNL     3      -9.852  14.368  67.973  1.00  0.00    -0.212 OA 
ENDROOT
BRANCH   2   8
HETATM    8  C   UNL     2     -10.730  12.096  66.275  1.00  0.00    -0.296 C  
HETATM    9  H   UNL     2      -9.376   7.989  65.506  1.00  0.00     0.000 HD 
HETATM   10  H   UNL     2      -9.904   9.346  64.034  1.00  0.00     0.000 HD 
HETATM   11  C   UNL     2      -9.342   9.652  66.523  1.00  0.00    -0.165 C  
HETATM   12  O   UNL     2     -10.514  11.938  68.186  1.00  0.00    -0.193 OA 
HETATM   13  O   UNL     2      -8.367   9.940  68.887  1.00  0.00    -0.112 OA 
HETATM   14  O   UNL     2     -10.365  10.096  64.391  1.00  0.00    -0.120 OA 
HETATM   15  C   UNL     2      -9.466  10.225  68.303  1.00  0.00    -0.142 C  
HETATM   16  H   UNL     2      -7.872   9.131  68.942  1.00  0.00     0.000 HD 
HETATM   17  O   UNL     2      -9.438   8.279  66.409  1.00  0.00    -0.198 OA 
HETATM   18  C   UNL     2      -9.803  10.589  65.557  1.00  0.00    -0.265 C  
ENDBRANCH   2   8
BRANCH   2  19
HETATM   19  C   UNL     2     -11.468  13.033  64.142  1.00  0.00    -0.402 C  
HETATM   20  H   UNL     2     -12.383  13.621  62.502  1.00  0.00     0.000 HD 
HETATM   21  O   UNL     2     -12.544  13.644  63.438  1.00  0.00    -0.799 OA 
ENDBRANCH   2  19
BRANCH   4  22
HETATM   22  C   UNL     3      -9.248  11.691  67.531  1.00  0.00    -0.172 C  
HETATM   23  H   UNL     3      -9.267   8.776  70.545  1.00  0.00     0.000 HD 
HETATM   24  C   UNL     3      -7.682   9.093  68.276  1.00  0.00    -0.091 C  
HETATM   25  O   UNL     3      -7.777  11.340  66.430  1.00  0.00    -0.148 OA 
HETATM   26  O   UNL     3      -6.302   9.342  65.928  1.00  0.00    -0.059 OA 
HETATM   27  C   UNL     3      -8.862   9.902  68.853  1.00  0.00    -0.145 C  
HETATM   28  O   UNL     3      -7.287   7.910  68.513  1.00  0.00    -0.092 OA 
HETATM   29  O   UNL     3      -9.429   9.529  69.990  1.00  0.00    -0.200 OA 
HETATM   30  C   UNL     3      -6.943   9.917  66.810  1.00  0.00    -0.089 C  
ENDBRANCH   4  22
BRANCH   4  31
HETATM   31  C   UNL     3      -7.597  13.958  68.283  1.00  0.00    -0.130 C  
HETATM   32  O   UNL     3      -7.876  14.254  69.667  1.00  0.00    -0.359 OA 
HETATM   33  H   UNL     3      -7.106  14.546  70.141  1.00  0.00     0.000 HD 
ENDBRANCH   4  31
TORSDOF 4
ENDMDL
MODEL      168
REMARK 921   NORMALIZED FREE ENERGY PREDICTED BY IDOCK:   14.54 KCAL/MOL
REMARK 922        TOTAL FREE ENERGY PREDICTED BY IDOCK:   52.27 KCAL/MOL
REMARK 923 INTER-LIGAND FREE ENERGY PREDICTED BY IDOCK:    3.53 KCAL/MOL
REMARK 924 INTRA-LIGAND FREE ENERGY PREDICTED BY IDOCK:   48.74 KCAL/MOL
REMARK 927      BINDING AFFINITY PREDICTED BY RF-SCORE:    0.00 PKD
ROOT
HETATM    1 FE   UNL     1      -6.979  17.435  71.209  1.00  0.00     1.447 Fe 
HETATM    2  C   UNL     2      -7.262  18.041  65.028  1.00  0.00     1.625 C  
HETATM    3  O   UNL     2      -7.359  19.505  65.139  1.00  0.00    -0.363 OA 
HETATM    4  C   UNL     3      -7.919  19.338  68.162  1.00  0.00    -0.308 C  
HETATM    5  H   UNL     3      -8.497  19.540  66.392  1.00  0.00     0.000 HD 
HETATM    6  H   UNL     2      -8.285  19.645  65.296  1.00  0.00     0.000 HD 
HETATM    7  O   UNL     3      -8.637  20.058  67.176  1.00  0.00    -0.311 OA 
ENDROOT
BRANCH   2   8
HETATM    8  C   UNL     2      -7.555  17.408  66.384  1.00  0.00    -0.342 C  
HETATM    9  H   UNL     2      -5.217  15.975  69.815  1.00  0.00     0.000 HD 
HETATM   10  H   UNL     2      -4.715  17.616  68.656  1.00  0.00     0.000 HD 
HETATM   11  C   UNL     2      -6.905  16.291  68.892  1.00  0.00    -0.165 C  
HETATM   12  O   UNL     2      -8.926  16.069  66.605  1.00  0.00    -0.212 OA 
HETATM   13  O   UNL     2      -9.159  15.200  69.483  1.00  0.00    -0.366 OA 
HETATM   14  O   UNL     2      -5.212  17.645  67.847  1.00  0.00    -0.128 OA 
HETATM   15  C   UNL     2      -8.460  15.354  68.426  1.00  0.00    -0.160 C  
HETATM   16  H   UNL     2      -8.939  14.862  70.343  1.00  0.00     0.000 HD 
HETATM   17  O   UNL     2      -6.005  15.500  69.580  1.00  0.00    -0.113 OA 
HETATM   18  C   UNL     2      -6.556  17.351  68.011  1.00  0.00    -0.167 C  
ENDBRANCH   2   8
BRANCH   2  19
HETATM   19  C   UNL     2      -5.762  17.814  64.774  1.00  0.00     0.722 C  
HETATM   20  H   UNL     2      -4.477  18.127  63.315  1.00  0.00     0.000 HD 
HETATM   21  O   UNL     2      -5.404  18.268  63.472  1.00  0.00     0.194 OA 
ENDBRANCH   2  19
BRANCH   4  22
HETATM   22  C   UNL     3      -8.222  17.527  68.249  1.00  0.00    -0.263 C  
HETATM   23  H   UNL     3      -7.025  14.295  65.862  1.00  0.00     0.000 HD 
HETATM   24  C   UNL     3      -9.527  15.422  66.346  1.00  0.00    -0.296 C  
HETATM   25  O   UNL     3     -10.045  17.806  67.933  1.00  0.00    -0.308 OA 
HETATM   26  O   UNL     3     -11.974  16.438  67.024  1.00  0.00     0.938 OA 
HETATM   27  C   UNL     3      -8.111  15.744  66.869  1.00  0.00    -0.257 C  
HETATM   28  O   UNL     3      -9.990  14.386  65.777  1.00  0.00    -0.312 OA 
HETATM   29  O   UNL     3      -7.072  15.045  66.442  1.00  0.00     0.749 OA 
HETATM   30  C   UNL     3     -10.764  16.651  66.926  1.00  0.00    -0.153 C  
ENDBRANCH   4  22
BRANCH   4  31
HETATM   31  C   UNL     3      -8.147  20.178  69.433  1.00  0.00     0.504 C  
HETATM   32  O   UNL     3      -8.217  19.369  70.626  1.00  0.00     1.571 OA 
HETATM   33  H   UNL     3      -8.358  19.887  71.410  1.00  0.00     0.000 HD 
ENDBRANCH   4  31
TORSDOF 4
ENDMDL
MODEL      169
REMARK 921   NORMALIZED FREE ENERGY PREDICTED BY IDOCK:   14.98 KCAL/MOL
REMARK 922        TOTAL FREE ENERGY PREDICTED BY IDOCK:   52.81 KCAL/MOL
REMARK 923 INTER-LIGAND FREE ENERGY PREDICTED BY IDOCK:   -3.75 KCAL/MOL
REMARK 924 INTRA-LIGAND FREE ENERGY PREDICTED BY IDOCK:   56.56 KCAL/MOL
REMARK 927      BINDING AFFINITY PREDICTED BY RF-SCORE:    0.00 PKD
ROOT
HETATM    1 FE   UNL     1      -5.523  16.407  66.147  1.00  0.00    -0.051 Fe 
HETATM    2  C   UNL     2     -10.271  20.066  67.800  1.00  0.00    -0.409 C  
HETATM    3  O   UNL     2      -9.803  21.138  66.908  1.00  0.00    -0.523 OA 
HETATM    4  C   UNL     3      -7.077  19.760  66.516  1.00  0.00    -0.233 C  
HETATM    5  H   UNL     3      -8.165  21.052  67.326  1.00  0.00     0.000 HD 
HETATM    6  H   UNL     2      -9.147  21.581  67.433  1.00  0.00     0.000 HD 
HETATM    7  O   UNL     3      -7.336  21.108  66.865  1.00  0.00    -0.288 OA 
ENDROOT
BRANCH   2   8
HETATM    8  C   UNL     2      -9.150  19.053  68.008  1.00  0.00    -0.350 C  
HETATM    9  H   UNL     2      -8.640  15.239  70.127  1.00  0.00     0.000 HD 
HETATM   10  H   UNL     2     -10.386  15.836  69.188  1.00  0.00     0.000 HD 
HETATM   11  C   UNL     2      -7.971  16.697  69.019  1.00  0.00    -0.208 C  
HETATM   12  O   UNL     2      -7.326  19.604  68.311  1.00  0.00    -0.296 OA 
HETATM   13  O   UNL     2      -5.491  17.226  68.582  1.00  0.00    -0.139 OA 
HETATM   14  O   UNL     2     -10.376  16.761  68.973  1.00  0.00    -0.287 OA 
HETATM   15  C   UNL     2      -6.518  17.881  68.963  1.00  0.00    -0.236 C  
HETATM   16  H   UNL     2      -5.109  16.413  68.890  1.00  0.00     0.000 HD 
HETATM   17  O   UNL     2      -7.903  15.839  70.099  1.00  0.00     0.297 OA 
HETATM   18  C   UNL     2      -9.171  17.193  68.441  1.00  0.00    -0.266 C  
ENDBRANCH   2   8
BRANCH   2  19
HETATM   19  C   UNL     2     -11.332  19.348  66.949  1.00  0.00     0.348 C  
HETATM   20  H   UNL     2     -11.604  18.898  65.053  1.00  0.00     0.000 HD 
HETATM   21  O   UNL     2     -10.948  19.341  65.578  1.00  0.00    -0.409 OA 
ENDBRANCH   2  19
BRANCH   4  22
HETATM   22  C   UNL     3      -7.246  18.511  67.855  1.00  0.00    -0.247 C  
HETATM   23  H   UNL     3      -4.587  16.988  70.716  1.00  0.00     0.000 HD 
HETATM   24  C   UNL     3      -5.840  15.804  68.527  1.00  0.00    -0.100 C  
HETATM   25  O   UNL     3      -7.521  17.168  66.582  1.00  0.00    -0.202 OA 
HETATM   26  O   UNL     3      -7.259  14.650  66.495  1.00  0.00     0.641 OA 
HETATM   27  C   UNL     3      -5.892  17.226  69.124  1.00  0.00    -0.193 C  
HETATM   28  O   UNL     3      -5.441  14.706  69.023  1.00  0.00    -0.088 OA 
HETATM   29  O   UNL     3      -5.156  17.529  70.183  1.00  0.00    -0.178 OA 
HETATM   30  C   UNL     3      -6.787  15.690  66.957  1.00  0.00     0.026 C  
ENDBRANCH   4  22
BRANCH   4  31
HETATM   31  C   UNL     3      -5.734  19.850  65.769  1.00  0.00    -0.171 C  
HETATM   32  O   UNL     3      -5.511  18.726  64.892  1.00  0.00    -0.184 OA 
HETATM   33  H   UNL     3      -4.682  18.782  64.431  1.00  0.00     0.000 HD 
ENDBRANCH   4  31
TORSDOF 4
ENDMDL
MODEL      170
REMARK 921   NORMALIZED FREE ENERGY PREDICTED BY IDOCK:   15.04 KCAL/MOL
REMARK 922        TOTAL FREE ENERGY PREDICTED BY IDOCK:   52.89 KCAL/MOL
REMARK 923 INTER-LIGAND FREE ENERGY PREDICTED BY IDOCK:   -2.82 KCAL/MOL
REMARK 924 INTRA-LIGAND FREE ENERGY PREDICTED BY IDOCK:   55.70 KCAL/MOL
REMARK 927      BINDING AFFINITY PREDICTED BY RF-SCORE:    0.00 PKD
ROOT
HETATM    1 FE   UNL     1     -10.441   9.076  70.395  1.00  0.00    -0.175 Fe 
HETATM    2  C   UNL     2      -6.340   4.586  71.694  1.00  0.00    -0.019 C  
HETATM    3  O   UNL     2      -6.825   4.494  73.080  1.00  0.00    -0.057 OA 
HETATM    4  C   UNL     3      -8.402   7.124  72.810  1.00  0.00    -0.107 C  
HETATM    5  H   UNL     3      -6.903   6.158  73.381  1.00  0.00     0.000 HD 
HETATM    6  H   UNL     2      -6.352   5.192  73.518  1.00  0.00     0.000 HD 
HETATM    7  O   UNL     3      -7.498   6.745  73.831  1.00  0.00    -0.086 OA 
ENDROOT
BRANCH   2   8
HETATM    8  C   UNL     2      -6.838   5.885  71.067  1.00  0.00    -0.065 C  
HETATM    9  H   UNL     2      -8.333   7.172  67.142  1.00  0.00     0.000 HD 
HETATM   10  H   UNL     2      -8.695   5.315  67.986  1.00  0.00     0.000 HD 
HETATM   11  C   UNL     2      -7.842   7.518  68.998  1.00  0.00    -0.120 C  
HETATM   12  O   UNL     2      -5.996   7.580  71.437  1.00  0.00    -0.036 OA 
HETATM   13  O   UNL     2      -7.403   9.839  70.019  1.00  0.00    -0.106 OA 
HETATM   14  O   UNL     2      -8.126   5.144  68.726  1.00  0.00    -0.085 OA 
HETATM   15  C   UNL     2      -6.792   8.718  69.983  1.00  0.00    -0.042 C  
HETATM   16  H   UNL     2      -7.780  10.376  69.332  1.00  0.00     0.000 HD 
HETATM   17  O   UNL     2      -7.801   7.781  67.642  1.00  0.00    -0.118 OA 
HETATM   18  C   UNL     2      -7.983   6.228  69.578  1.00  0.00    -0.108 C  
ENDBRANCH   2   8
BRANCH   2  19
HETATM   19  C   UNL     2      -7.106   3.457  70.985  1.00  0.00    -0.033 C  
HETATM   20  H   UNL     2      -8.254   1.943  71.499  1.00  0.00     0.000 HD 
HETATM   21  O   UNL     2      -7.781   2.640  71.937  1.00  0.00    -0.047 OA 
ENDBRANCH   2  19
BRANCH   4  22
HETATM   22  C   UNL     3      -7.667   7.681  71.219  1.00  0.00    -0.085 C  
HETATM   23  H   UNL     3      -5.457  11.065  70.103  1.00  0.00     0.000 HD 
HETATM   24  C   UNL     3      -8.011  10.198  69.401  1.00  0.00    -0.154 C  
HETATM   25  O   UNL     3      -9.377   7.867  70.483  1.00  0.00    -0.161 OA 
HETATM   26  O   UNL     3     -10.419   9.189  68.589  1.00  0.00    -0.212 OA 
HETATM   27  C   UNL     3      -6.912   9.604  70.308  1.00  0.00    -0.119 C  
HETATM   28  O   UNL     3      -7.956  11.093  68.503  1.00  0.00    -0.127 OA 
HETATM   29  O   UNL     3      -5.775  10.256  70.486  1.00  0.00    -0.066 OA 
HETATM   30  C   UNL     3      -9.560   9.213  69.472  1.00  0.00    -0.168 C  
ENDBRANCH   4  22
BRANCH   4  31
HETATM   31  C   UNL     3      -9.367   8.076  73.540  1.00  0.00    -0.215 C  
HETATM   32  O   UNL     3     -10.501   8.447  72.729  1.00  0.00    -0.307 OA 
HETATM   33  H   UNL     3     -11.096   9.034  73.180  1.00  0.00     0.000 HD 
ENDBRANCH   4  31
TORSDOF 4
ENDMDL
MODEL      171
REMARK 921   NORMALIZED FREE ENERGY PREDICTED BY IDOCK:   15.20 KCAL/MOL
REMARK 922        TOTAL FREE ENERGY PREDICTED BY IDOCK:   53.09 KCAL/MOL
REMARK 923 INTER-LIGAND FREE ENERGY PREDICTED BY IDOCK:   -6.26 KCAL/MOL
REMARK 924 INTRA-LIGAND FREE ENERGY PREDICTED BY IDOCK:   59.34 KCAL/MOL
REMARK 927      BINDING AFFINITY PREDICTED BY RF-SCORE:    0.00 PKD
ROOT
HETATM    1 FE   UNL     1      -9.972  11.622  69.954  1.00  0.00    -0.403 Fe 
HETATM    2  C   UNL     2     -10.579  17.240  67.360  1.00  0.00    -0.303 C  
HETATM    3  O   UNL     2     -11.013  17.823  68.639  1.00  0.00    -0.232 OA 
HETATM    4  C   UNL     3     -11.426  15.039  69.885  1.00  0.00    -0.289 C  
HETATM    5  H   UNL     3     -12.089  16.590  69.072  1.00  0.00     0.000 HD 
HETATM    6  H   UNL     2     -11.941  17.622  68.660  1.00  0.00     0.000 HD 
HETATM    7  O   UNL     3     -12.322  16.135  69.872  1.00  0.00    -0.136 OA 
ENDROOT
BRANCH   2   8
HETATM    8  C   UNL     2     -10.674  15.719  67.437  1.00  0.00    -0.317 C  
HETATM    9  H   UNL     2     -10.427  12.353  64.626  1.00  0.00     0.000 HD 
HETATM   10  H   UNL     2      -9.310  14.091  64.478  1.00  0.00     0.000 HD 
HETATM   11  C   UNL     2     -10.671  13.090  66.415  1.00  0.00    -0.282 C  
HETATM   12  O   UNL     2     -11.965  14.838  68.567  1.00  0.00    -0.309 OA 
HETATM   13  O   UNL     2     -11.688  11.839  68.421  1.00  0.00    -0.302 OA 
HETATM   14  O   UNL     2      -9.646  14.778  65.041  1.00  0.00    -0.028 OA 
HETATM   15  C   UNL     2     -11.876  12.963  67.845  1.00  0.00    -0.339 C  
HETATM   16  H   UNL     2     -11.646  10.954  68.080  1.00  0.00     0.000 HD 
HETATM   17  O   UNL     2     -11.038  12.289  65.351  1.00  0.00    -0.293 OA 
HETATM   18  C   UNL     2      -9.997  14.337  66.306  1.00  0.00    -0.306 C  
ENDBRANCH   2   8
BRANCH   2  19
HETATM   19  C   UNL     2      -9.076  17.565  67.325  1.00  0.00    -0.239 C  
HETATM   20  H   UNL     2      -7.656  17.986  68.622  1.00  0.00     0.000 HD 
HETATM   21  O   UNL     2      -8.585  17.784  68.644  1.00  0.00    -0.295 OA 
ENDBRANCH   2  19
BRANCH   4  22
HETATM   22  C   UNL     3     -11.293  14.061  68.334  1.00  0.00    -0.321 C  
HETATM   23  H   UNL     3     -12.281  10.111  67.333  1.00  0.00     0.000 HD 
HETATM   24  C   UNL     3      -9.830  11.425  67.516  1.00  0.00    -0.178 C  
HETATM   25  O   UNL     3      -9.427  14.161  68.419  1.00  0.00    -0.207 OA 
HETATM   26  O   UNL     3      -7.479  12.821  67.509  1.00  0.00    -0.133 OA 
HETATM   27  C   UNL     3     -11.288  11.887  67.722  1.00  0.00    -0.292 C  
HETATM   28  O   UNL     3      -9.355  10.402  66.934  1.00  0.00    -0.159 OA 
HETATM   29  O   UNL     3     -12.283  11.024  67.590  1.00  0.00    -0.215 OA 
HETATM   30  C   UNL     3      -8.628  12.745  67.947  1.00  0.00    -0.181 C  
ENDBRANCH   4  22
BRANCH   4  31
HETATM   31  C   UNL     3     -11.805  14.300  71.182  1.00  0.00    -0.195 C  
HETATM   32  O   UNL     3     -12.693  15.070  72.019  1.00  0.00    -0.304 OA 
HETATM   33  H   UNL     3     -12.926  14.615  72.819  1.00  0.00     0.000 HD 
ENDBRANCH   4  31
TORSDOF 4
ENDMDL
MODEL      172
REMARK 921   NORMALIZED FREE ENERGY PREDICTED BY IDOCK:   15.96 KCAL/MOL
REMARK 922        TOTAL FREE ENERGY PREDICTED BY IDOCK:   54.02 KCAL/MOL
REMARK 923 INTER-LIGAND FREE ENERGY PREDICTED BY IDOCK:   10.86 KCAL/MOL
REMARK 924 INTRA-LIGAND FREE ENERGY PREDICTED BY IDOCK:   43.16 KCAL/MOL
REMARK 927      BINDING AFFINITY PREDICTED BY RF-SCORE:    0.00 PKD
ROOT
HETATM    1 FE   UNL     1     -13.203   7.696  70.467  1.00  0.00    -0.524 Fe 
HETATM    2  C   UNL     2      -8.767   5.112  66.958  1.00  0.00    -0.103 C  
HETATM    3  O   UNL     2      -8.691   3.945  67.850  1.00  0.00    -0.095 OA 
HETATM    4  C   UNL     3     -10.341   5.371  70.024  1.00  0.00    -0.296 C  
HETATM    5  H   UNL     3      -8.706   4.801  69.311  1.00  0.00     0.000 HD 
HETATM    6  H   UNL     2      -8.111   4.243  68.542  1.00  0.00     0.000 HD 
HETATM    7  O   UNL     3      -9.106   4.692  70.165  1.00  0.00    -0.089 OA 
ENDROOT
BRANCH   2   8
HETATM    8  C   UNL     2      -9.508   6.243  67.664  1.00  0.00    -0.115 C  
HETATM    9  H   UNL     2     -13.644   7.087  68.881  1.00  0.00     0.000 HD 
HETATM   10  H   UNL     2     -12.775   5.206  68.897  1.00  0.00     0.000 HD 
HETATM   11  C   UNL     2     -11.758   7.562  68.742  1.00  0.00     1.259 C  
HETATM   12  O   UNL     2      -9.106   8.096  67.312  1.00  0.00    -0.134 OA 
HETATM   13  O   UNL     2     -10.788   9.929  69.016  1.00  0.00    -0.218 OA 
HETATM   14  O   UNL     2     -11.961   5.187  68.409  1.00  0.00     4.084 OA 
HETATM   15  C   UNL     2     -10.698   8.991  68.155  1.00  0.00    -0.109 C  
HETATM   16  H   UNL     2     -11.540  10.352  69.414  1.00  0.00     0.000 HD 
HETATM   17  O   UNL     2     -13.107   7.812  68.583  1.00  0.00     6.717 OA 
HETATM   18  C   UNL     2     -11.145   6.282  68.647  1.00  0.00    -0.325 C  
ENDBRANCH   2   8
BRANCH   2  19
HETATM   19  C   UNL     2      -9.706   4.630  65.839  1.00  0.00    -0.200 C  
HETATM   20  H   UNL     2     -10.913   3.109  65.519  1.00  0.00     0.000 HD 
HETATM   21  O   UNL     2     -10.334   3.407  66.210  1.00  0.00     0.602 OA 
ENDBRANCH   2  19
BRANCH   4  22
HETATM   22  C   UNL     3     -10.279   7.060  69.301  1.00  0.00    -0.193 C  
HETATM   23  H   UNL     3      -7.409  10.116  69.379  1.00  0.00     0.000 HD 
HETATM   24  C   UNL     3      -9.968   9.940  70.469  1.00  0.00    -0.098 C  
HETATM   25  O   UNL     3     -11.690   7.596  70.406  1.00  0.00    -0.194 OA 
HETATM   26  O   UNL     3     -12.558   9.789  71.330  1.00  0.00    -0.332 OA 
HETATM   27  C   UNL     3      -9.121   8.973  69.616  1.00  0.00    -0.154 C  
HETATM   28  O   UNL     3      -9.855  11.188  70.673  1.00  0.00     1.980 OA 
HETATM   29  O   UNL     3      -7.896   9.312  69.247  1.00  0.00    -0.080 OA 
HETATM   30  C   UNL     3     -11.542   9.167  71.017  1.00  0.00    -0.306 C  
ENDBRANCH   4  22
BRANCH   4  31
HETATM   31  C   UNL     3     -10.990   5.194  71.408  1.00  0.00     0.074 C  
HETATM   32  O   UNL     3     -11.560   6.419  71.915  1.00  0.00    -0.289 OA 
HETATM   33  H   UNL     3     -11.960   6.310  72.769  1.00  0.00     0.000 HD 
ENDBRANCH   4  31
TORSDOF 4
ENDMDL
MODEL      173
REMARK 921   NORMALIZED FREE ENERGY PREDICTED BY IDOCK:   16.35 KCAL/MOL
REMARK 922        TOTAL FREE ENERGY PREDICTED BY IDOCK:   54.50 KCAL/MOL
REMARK 923 INTER-LIGAND FREE ENERGY PREDICTED BY IDOCK:    9.22 KCAL/MOL
REMARK 924 INTRA-LIGAND FREE ENERGY PREDICTED BY IDOCK:   45.28 KCAL/MOL
REMARK 927      BINDING AFFINITY PREDICTED BY RF-SCORE:    0.00 PKD
ROOT
HETATM    1 FE   UNL     1     -13.910  11.719  64.181  1.00  0.00    -0.687 Fe 
HETATM    2  C   UNL     2      -9.082  15.339  65.681  1.00  0.00     0.225 C  
HETATM    3  O   UNL     2      -8.448  15.095  64.376  1.00  0.00     5.013 OA 
HETATM    4  C   UNL     3     -10.374  12.774  63.759  1.00  0.00    -0.239 C  
HETATM    5  H   UNL     3      -8.712  13.424  64.328  1.00  0.00     0.000 HD 
HETATM    6  H   UNL     2      -7.998  14.269  64.508  1.00  0.00     0.000 HD 
HETATM    7  O   UNL     3      -8.961  12.789  63.667  1.00  0.00     1.124 OA 
ENDROOT
BRANCH   2   8
HETATM    8  C   UNL     2     -10.177  14.303  65.914  1.00  0.00    -0.338 C  
HETATM    9  H   UNL     2     -14.209  14.249  67.656  1.00  0.00     0.000 HD 
HETATM   10  H   UNL     2     -13.416  15.831  66.579  1.00  0.00     0.000 HD 
HETATM   11  C   UNL     2     -12.689  13.375  66.802  1.00  0.00     0.379 C  
HETATM   12  O   UNL     2      -9.770  12.509  66.496  1.00  0.00    -0.234 OA 
HETATM   13  O   UNL     2     -12.269  10.838  66.732  1.00  0.00     1.090 OA 
HETATM   14  O   UNL     2     -12.477  15.749  66.468  1.00  0.00     1.307 OA 
HETATM   15  C   UNL     2     -11.596  11.874  67.052  1.00  0.00    -0.291 C  
HETATM   16  H   UNL     2     -13.131  10.538  66.995  1.00  0.00     0.000 HD 
HETATM   17  O   UNL     2     -13.655  13.487  67.783  1.00  0.00     3.894 OA 
HETATM   18  C   UNL     2     -12.066  14.467  66.137  1.00  0.00    -0.286 C  
ENDBRANCH   2   8
BRANCH   2  19
HETATM   19  C   UNL     2      -9.810  16.677  65.466  1.00  0.00     0.021 C  
HETATM   20  H   UNL     2     -10.918  17.908  66.529  1.00  0.00     0.000 HD 
HETATM   21  O   UNL     2     -10.468  17.082  66.662  1.00  0.00    -0.307 OA 
ENDBRANCH   2  19
BRANCH   4  22
HETATM   22  C   UNL     3     -11.093  12.606  65.443  1.00  0.00    -0.327 C  
HETATM   23  H   UNL     3      -9.975  14.082  69.205  1.00  0.00     0.000 HD 
HETATM   24  C   UNL     3     -10.059  11.495  68.172  1.00  0.00    -0.193 C  
HETATM   25  O   UNL     3     -10.717  10.774  65.431  1.00  0.00    -0.195 OA 
HETATM   26  O   UNL     3     -10.364   8.968  67.173  1.00  0.00    -0.243 OA 
HETATM   27  C   UNL     3     -10.422  12.873  67.582  1.00  0.00    -0.224 C  
HETATM   28  O   UNL     3      -9.894  11.121  69.374  1.00  0.00    -0.055 OA 
HETATM   29  O   UNL     3     -10.257  13.970  68.305  1.00  0.00    -0.235 OA 
HETATM   30  C   UNL     3     -10.185  10.160  66.916  1.00  0.00    -0.236 C  
ENDBRANCH   4  22
BRANCH   4  31
HETATM   31  C   UNL     3     -10.777  11.744  62.688  1.00  0.00     0.764 C  
HETATM   32  O   UNL     3     -10.315  10.413  62.997  1.00  0.00    -0.501 OA 
HETATM   33  H   UNL     3     -10.564   9.777  62.337  1.00  0.00     0.000 HD 
ENDBRANCH   4  31
TORSDOF 4
ENDMDL
MODEL      174
REMARK 921   NORMALIZED FREE ENERGY PREDICTED BY IDOCK:   16.93 KCAL/MOL
REMARK 922        TOTAL FREE ENERGY PREDICTED BY IDOCK:   55.22 KCAL/MOL
REMARK 923 INTER-LIGAND FREE ENERGY PREDICTED BY IDOCK:   -3.51 KCAL/MOL
REMARK 924 INTRA-LIGAND FREE ENERGY PREDICTED BY IDOCK:   58.73 KCAL/MOL
REMARK 927      BINDING AFFINITY PREDICTED BY RF-SCORE:    0.00 PKD
ROOT
HETATM    1 FE   UNL     1     -10.550  15.922  67.673  1.00  0.00    -0.251 Fe 
HETATM    2  C   UNL     2      -9.698   9.780  67.225  1.00  0.00    -0.169 C  
HETATM    3  O   UNL     2     -10.931   9.517  67.983  1.00  0.00    -0.445 OA 
HETATM    4  C   UNL     3     -11.129  12.456  68.876  1.00  0.00    -0.258 C  
HETATM    5  H   UNL     3     -10.675  10.668  69.197  1.00  0.00     0.000 HD 
HETATM    6  H   UNL     2     -10.646   9.592  68.886  1.00  0.00     0.000 HD 
HETATM    7  O   UNL     3     -11.210  11.290  69.675  1.00  0.00    -0.257 OA 
ENDROOT
BRANCH   2   8
HETATM    8  C   UNL     2      -9.288  11.237  67.412  1.00  0.00    -0.168 C  
HETATM    9  H   UNL     2      -5.861  13.759  66.322  1.00  0.00     0.000 HD 
HETATM   10  H   UNL     2      -6.613  12.229  65.147  1.00  0.00     0.000 HD 
HETATM   11  C   UNL     2      -7.599  13.483  67.163  1.00  0.00     0.061 C  
HETATM   12  O   UNL     2      -9.609  12.178  69.065  1.00  0.00     0.072 OA 
HETATM   13  O   UNL     2      -8.687  15.044  68.894  1.00  0.00    -0.180 OA 
HETATM   14  O   UNL     2      -7.207  11.668  65.631  1.00  0.00     0.577 OA 
HETATM   15  C   UNL     2      -8.440  13.795  68.808  1.00  0.00     0.026 C  
HETATM   16  H   UNL     2      -8.135  15.808  68.773  1.00  0.00     0.000 HD 
HETATM   17  O   UNL     2      -6.287  13.918  67.156  1.00  0.00    -0.197 OA 
HETATM   18  C   UNL     2      -8.093  12.364  66.438  1.00  0.00     0.357 C  
ENDBRANCH   2   8
BRANCH   2  19
HETATM   19  C   UNL     2     -10.160   9.659  65.763  1.00  0.00    -0.204 C  
HETATM   20  H   UNL     2      -9.434  10.061  63.978  1.00  0.00     0.000 HD 
HETATM   21  O   UNL     2      -9.148  10.135  64.881  1.00  0.00    -0.179 OA 
ENDBRANCH   2  19
BRANCH   4  22
HETATM   22  C   UNL     3      -9.449  12.981  68.345  1.00  0.00    -0.165 C  
HETATM   23  H   UNL     3      -6.618  15.620  69.960  1.00  0.00     0.000 HD 
HETATM   24  C   UNL     3      -8.128  15.717  67.619  1.00  0.00    -0.150 C  
HETATM   25  O   UNL     3     -10.173  13.804  66.829  1.00  0.00    -0.260 OA 
HETATM   26  O   UNL     3      -9.477  15.651  65.242  1.00  0.00    -0.256 OA 
HETATM   27  C   UNL     3      -8.019  14.679  68.756  1.00  0.00    -0.151 C  
HETATM   28  O   UNL     3      -7.360  16.671  67.286  1.00  0.00    -0.144 OA 
HETATM   29  O   UNL     3      -7.220  14.906  69.787  1.00  0.00    -0.178 OA 
HETATM   30  C   UNL     3      -9.440  15.272  66.414  1.00  0.00    -0.298 C  
ENDBRANCH   4  22
BRANCH   4  31
HETATM   31  C   UNL     3     -11.997  13.465  69.651  1.00  0.00    -0.324 C  
HETATM   32  O   UNL     3     -11.493  13.725  70.978  1.00  0.00    -0.371 OA 
HETATM   33  H   UNL     3     -12.029  14.347  71.456  1.00  0.00     0.000 HD 
ENDBRANCH   4  31
TORSDOF 4
ENDMDL
MODEL      175
REMARK 921   NORMALIZED FREE ENERGY PREDICTED BY IDOCK:   17.60 KCAL/MOL
REMARK 922        TOTAL FREE ENERGY PREDICTED BY IDOCK:   56.05 KCAL/MOL
REMARK 923 INTER-LIGAND FREE ENERGY PREDICTED BY IDOCK:    5.12 KCAL/MOL
REMARK 924 INTRA-LIGAND FREE ENERGY PREDICTED BY IDOCK:   50.93 KCAL/MOL
REMARK 927      BINDING AFFINITY PREDICTED BY RF-SCORE:    0.00 PKD
ROOT
HETATM    1 FE   UNL     1     -10.404  15.666  67.646  1.00  0.00    -0.238 Fe 
HETATM    2  C   UNL     2      -9.542   9.521  68.043  1.00  0.00    -0.137 C  
HETATM    3  O   UNL     2     -10.839   9.346  68.716  1.00  0.00    -0.347 OA 
HETATM    4  C   UNL     3     -11.102  12.372  69.215  1.00  0.00    -0.147 C  
HETATM    5  H   UNL     3     -10.686  10.641  69.795  1.00  0.00     0.000 HD 
HETATM    6  H   UNL     2     -10.634   9.534  69.624  1.00  0.00     0.000 HD 
HETATM    7  O   UNL     3     -11.259  11.314  70.142  1.00  0.00    -0.224 OA 
ENDROOT
BRANCH   2   8
HETATM    8  C   UNL     2      -9.144  10.992  68.083  1.00  0.00    -0.155 C  
HETATM    9  H   UNL     2      -6.104  13.534  66.187  1.00  0.00     0.000 HD 
HETATM   10  H   UNL     2      -7.046  11.940  65.260  1.00  0.00     0.000 HD 
HETATM   11  C   UNL     2      -7.613  13.259  67.392  1.00  0.00    -0.129 C  
HETATM   12  O   UNL     2      -9.131  11.997  69.729  1.00  0.00     1.504 OA 
HETATM   13  O   UNL     2      -8.350  14.871  69.257  1.00  0.00    -0.268 OA 
HETATM   14  O   UNL     2      -7.506  11.389  65.881  1.00  0.00     0.095 OA 
HETATM   15  C   UNL     2      -8.091  13.624  69.166  1.00  0.00     0.338 C  
HETATM   16  H   UNL     2      -7.859  15.639  68.991  1.00  0.00     0.000 HD 
HETATM   17  O   UNL     2      -6.346  13.720  67.087  1.00  0.00    -0.205 OA 
HETATM   18  C   UNL     2      -8.219  12.101  66.832  1.00  0.00    -0.134 C  
ENDBRANCH   2   8
BRANCH   2  19
HETATM   19  C   UNL     2      -9.874   9.215  66.572  1.00  0.00    -0.264 C  
HETATM   20  H   UNL     2      -8.883   8.905  64.900  1.00  0.00     0.000 HD 
HETATM   21  O   UNL     2      -8.678   9.094  65.808  1.00  0.00    -0.145 OA 
ENDBRANCH   2  19
BRANCH   4  22
HETATM   22  C   UNL     3      -9.379  12.838  68.773  1.00  0.00     0.137 C  
HETATM   23  H   UNL     3      -5.665  10.975  69.334  1.00  0.00     0.000 HD 
HETATM   24  C   UNL     3      -6.749  13.315  70.389  1.00  0.00     0.670 C  
HETATM   25  O   UNL     3      -9.457  14.286  69.955  1.00  0.00     0.654 OA 
HETATM   26  O   UNL     3      -7.784  15.704  71.224  1.00  0.00     2.670 OA 
HETATM   27  C   UNL     3      -7.283  12.268  69.389  1.00  0.00     0.213 C  
HETATM   28  O   UNL     3      -5.569  13.557  70.791  1.00  0.00    -0.154 OA 
HETATM   29  O   UNL     3      -6.547  11.214  69.075  1.00  0.00    -0.062 OA 
HETATM   30  C   UNL     3      -8.024  14.568  70.811  1.00  0.00     2.253 C  
ENDBRANCH   4  22
BRANCH   4  31
HETATM   31  C   UNL     3     -12.031  13.463  69.779  1.00  0.00    -0.330 C  
HETATM   32  O   UNL     3     -11.522  14.050  70.995  1.00  0.00    -0.479 OA 
HETATM   33  H   UNL     3     -12.095  14.723  71.343  1.00  0.00     0.000 HD 
ENDBRANCH   4  31
TORSDOF 4
ENDMDL
MODEL      176
REMARK 921   NORMALIZED FREE ENERGY PREDICTED BY IDOCK:   20.64 KCAL/MOL
REMARK 922        TOTAL FREE ENERGY PREDICTED BY IDOCK:   59.80 KCAL/MOL
REMARK 923 INTER-LIGAND FREE ENERGY PREDICTED BY IDOCK:   -2.45 KCAL/MOL
REMARK 924 INTRA-LIGAND FREE ENERGY PREDICTED BY IDOCK:   62.24 KCAL/MOL
REMARK 927      BINDING AFFINITY PREDICTED BY RF-SCORE:    0.00 PKD
ROOT
HETATM    1 FE   UNL     1      -9.259  19.828  69.540  1.00  0.00    -0.341 Fe 
HETATM    2  C   UNL     2      -8.212  14.272  66.952  1.00  0.00     0.011 C  
HETATM    3  O   UNL     2      -6.842  14.662  66.583  1.00  0.00     0.019 OA 
HETATM    4  C   UNL     3      -7.415  17.627  67.184  1.00  0.00    -0.193 C  
HETATM    5  H   UNL     3      -7.221  16.200  65.986  1.00  0.00     0.000 HD 
HETATM    6  H   UNL     2      -6.967  15.131  65.766  1.00  0.00     0.000 HD 
HETATM    7  O   UNL     3      -6.829  17.065  66.024  1.00  0.00    -0.134 OA 
ENDROOT
BRANCH   2   8
HETATM    8  C   UNL     2      -9.016  15.519  67.307  1.00  0.00    -0.216 C  
HETATM    9  H   UNL     2      -9.019  18.515  70.519  1.00  0.00     0.000 HD 
HETATM   10  H   UNL     2      -7.317  17.619  69.750  1.00  0.00     0.000 HD 
HETATM   11  C   UNL     2      -9.726  17.761  68.866  1.00  0.00    -0.262 C  
HETATM   12  O   UNL     2     -10.929  15.595  67.070  1.00  0.00    -0.322 OA 
HETATM   13  O   UNL     2     -12.026  18.296  67.842  1.00  0.00     1.384 OA 
HETATM   14  O   UNL     2      -7.524  16.858  69.222  1.00  0.00    -0.225 OA 
HETATM   15  C   UNL     2     -11.373  17.239  68.139  1.00  0.00     0.272 C  
HETATM   16  H   UNL     2     -12.235  19.072  68.347  1.00  0.00     0.000 HD 
HETATM   17  O   UNL     2      -9.854  18.251  70.151  1.00  0.00     0.907 OA 
HETATM   18  C   UNL     2      -8.599  17.050  68.369  1.00  0.00    -0.243 C  
ENDBRANCH   2   8
BRANCH   2  19
HETATM   19  C   UNL     2      -8.009  13.513  68.275  1.00  0.00    -0.147 C  
HETATM   20  H   UNL     2      -7.234  11.800  68.855  1.00  0.00     0.000 HD 
HETATM   21  O   UNL     2      -7.359  12.269  68.038  1.00  0.00    -0.087 OA 
ENDBRANCH   2  19
BRANCH   4  22
HETATM   22  C   UNL     3      -9.242  17.490  67.338  1.00  0.00    -0.238 C  
HETATM   23  H   UNL     3     -11.765  14.842  69.388  1.00  0.00     0.000 HD 
HETATM   24  C   UNL     3     -11.345  15.280  66.668  1.00  0.00    -0.170 C  
HETATM   25  O   UNL     3      -9.375  17.085  65.516  1.00  0.00    -0.457 OA 
HETATM   26  O   UNL     3     -11.045  15.901  64.023  1.00  0.00    -0.309 OA 
HETATM   27  C   UNL     3     -10.759  15.929  67.939  1.00  0.00    -0.312 C  
HETATM   28  O   UNL     3     -12.383  14.569  66.499  1.00  0.00    -0.346 OA 
HETATM   29  O   UNL     3     -11.127  15.499  69.135  1.00  0.00    -0.238 OA 
HETATM   30  C   UNL     3     -10.535  15.909  65.145  1.00  0.00    -0.335 C  
ENDBRANCH   4  22
BRANCH   4  31
HETATM   31  C   UNL     3      -6.781  19.028  67.245  1.00  0.00    -0.197 C  
HETATM   32  O   UNL     3      -7.766  20.079  67.347  1.00  0.00    -0.271 OA 
HETATM   33  H   UNL     3      -7.374  20.943  67.384  1.00  0.00     0.000 HD 
ENDBRANCH   4  31
TORSDOF 4
ENDMDL
MODEL      177
REMARK 921   NORMALIZED FREE ENERGY PREDICTED BY IDOCK:   21.09 KCAL/MOL
REMARK 922        TOTAL FREE ENERGY PREDICTED BY IDOCK:   60.35 KCAL/MOL
REMARK 923 INTER-LIGAND FREE ENERGY PREDICTED BY IDOCK:   -3.45 KCAL/MOL
REMARK 924 INTRA-LIGAND FREE ENERGY PREDICTED BY IDOCK:   63.80 KCAL/MOL
REMARK 927      BINDING AFFINITY PREDICTED BY RF-SCORE:    0.00 PKD
ROOT
HETATM    1 FE   UNL     1      -5.998   5.873  70.228  1.00  0.00    -0.017 Fe 
HETATM    2  C   UNL     2      -9.728   8.789  66.198  1.00  0.00    -0.250 C  
HETATM    3  O   UNL     2     -10.600   9.256  67.287  1.00  0.00    -0.264 OA 
HETATM    4  C   UNL     3      -9.284   7.334  69.300  1.00  0.00    -0.144 C  
HETATM    5  H   UNL     3     -10.674   7.791  68.132  1.00  0.00     0.000 HD 
HETATM    6  H   UNL     2     -11.173   8.512  67.434  1.00  0.00     0.000 HD 
HETATM    7  O   UNL     3     -10.663   7.525  69.044  1.00  0.00    -0.207 OA 
ENDROOT
BRANCH   2   8
HETATM    8  C   UNL     2      -8.831   7.667  66.711  1.00  0.00    -0.150 C  
HETATM    9  H   UNL     2      -8.960   4.695  69.943  1.00  0.00     0.000 HD 
HETATM   10  H   UNL     2     -10.614   5.345  68.878  1.00  0.00     0.000 HD 
HETATM   11  C   UNL     2      -8.093   5.544  68.416  1.00  0.00    -0.099 C  
HETATM   12  O   UNL     2      -6.914   7.861  66.802  1.00  0.00    -0.069 OA 
HETATM   13  O   UNL     2      -5.601   5.339  67.808  1.00  0.00    -0.011 OA 
HETATM   14  O   UNL     2     -10.427   6.128  68.376  1.00  0.00    -0.180 OA 
HETATM   15  C   UNL     2      -6.435   6.293  67.967  1.00  0.00    -0.052 C  
HETATM   16  H   UNL     2      -5.375   4.599  68.358  1.00  0.00     0.000 HD 
HETATM   17  O   UNL     2      -8.119   5.074  69.715  1.00  0.00    -0.073 OA 
HETATM   18  C   UNL     2      -9.207   6.090  67.721  1.00  0.00    -0.107 C  
ENDBRANCH   2   8
BRANCH   2  19
HETATM   19  C   UNL     2      -8.800   9.992  65.959  1.00  0.00    -0.145 C  
HETATM   20  H   UNL     2      -7.808  10.778  64.452  1.00  0.00     0.000 HD 
HETATM   21  O   UNL     2      -8.381  10.035  64.599  1.00  0.00    -0.148 OA 
ENDBRANCH   2  19
BRANCH   4  22
HETATM   22  C   UNL     3      -8.348   6.319  68.086  1.00  0.00    -0.115 C  
HETATM   23  H   UNL     3      -8.499   5.972  63.910  1.00  0.00     0.000 HD 
HETATM   24  C   UNL     3      -9.127   4.179  65.949  1.00  0.00    -0.136 C  
HETATM   25  O   UNL     3      -9.095   4.759  68.800  1.00  0.00    -0.102 OA 
HETATM   26  O   UNL     3      -9.524   2.399  67.986  1.00  0.00    -0.209 OA 
HETATM   27  C   UNL     3      -8.587   5.624  65.951  1.00  0.00    -0.144 C  
HETATM   28  O   UNL     3      -9.166   3.306  65.028  1.00  0.00    -0.138 OA 
HETATM   29  O   UNL     3      -8.399   6.264  64.808  1.00  0.00    -0.128 OA 
HETATM   30  C   UNL     3      -9.490   3.584  67.648  1.00  0.00    -0.183 C  
ENDBRANCH   4  22
BRANCH   4  31
HETATM   31  C   UNL     3      -9.266   6.903  70.778  1.00  0.00    -0.158 C  
HETATM   32  O   UNL     3     -10.578   6.926  71.379  1.00  0.00    -0.217 OA 
HETATM   33  H   UNL     3     -10.567   6.660  72.291  1.00  0.00     0.000 HD 
ENDBRANCH   4  31
TORSDOF 4
ENDMDL
MODEL      178
REMARK 921   NORMALIZED FREE ENERGY PREDICTED BY IDOCK:   21.18 KCAL/MOL
REMARK 922        TOTAL FREE ENERGY PREDICTED BY IDOCK:   60.47 KCAL/MOL
REMARK 923 INTER-LIGAND FREE ENERGY PREDICTED BY IDOCK:   -3.41 KCAL/MOL
REMARK 924 INTRA-LIGAND FREE ENERGY PREDICTED BY IDOCK:   63.88 KCAL/MOL
REMARK 927      BINDING AFFINITY PREDICTED BY RF-SCORE:    0.00 PKD
ROOT
HETATM    1 FE   UNL     1      -8.833   9.590  66.703  1.00  0.00    -0.121 Fe 
HETATM    2  C   UNL     2      -7.084   4.487  69.795  1.00  0.00    -0.050 C  
HETATM    3  O   UNL     2      -7.956   3.641  68.965  1.00  0.00    -0.058 OA 
HETATM    4  C   UNL     3      -9.419   6.096  67.820  1.00  0.00    -0.115 C  
HETATM    5  H   UNL     3      -9.316   4.648  69.003  1.00  0.00     0.000 HD 
HETATM    6  H   UNL     2      -8.802   3.729  69.387  1.00  0.00     0.000 HD 
HETATM    7  O   UNL     3      -9.980   4.925  68.384  1.00  0.00    -0.157 OA 
ENDROOT
BRANCH   2   8
HETATM    8  C   UNL     2      -7.485   5.949  69.626  1.00  0.00    -0.076 C  
HETATM    9  H   UNL     2     -11.116   8.163  68.527  1.00  0.00     0.000 HD 
HETATM   10  H   UNL     2     -11.098   6.409  69.628  1.00  0.00     0.000 HD 
HETATM   11  C   UNL     2      -9.237   8.082  69.042  1.00  0.00    -0.148 C  
HETATM   12  O   UNL     2      -6.306   7.236  68.804  1.00  0.00    -0.033 OA 
HETATM   13  O   UNL     2      -7.531   9.991  68.782  1.00  0.00    -0.076 OA 
HETATM   14  O   UNL     2     -10.257   5.971  69.585  1.00  0.00    -0.178 OA 
HETATM   15  C   UNL     2      -7.583   8.753  68.471  1.00  0.00    -0.098 C  
HETATM   16  H   UNL     2      -8.134  10.708  68.624  1.00  0.00     0.000 HD 
HETATM   17  O   UNL     2     -10.277   8.504  68.238  1.00  0.00    -0.193 OA 
HETATM   18  C   UNL     2      -9.177   6.829  69.713  1.00  0.00    -0.146 C  
ENDBRANCH   2   8
BRANCH   2  19
HETATM   19  C   UNL     2      -5.714   4.345  69.112  1.00  0.00    -0.017 C  
HETATM   20  H   UNL     2      -4.527   2.883  68.539  1.00  0.00     0.000 HD 
HETATM   21  O   UNL     2      -5.374   2.970  68.961  1.00  0.00    -0.011 OA 
ENDBRANCH   2  19
BRANCH   4  22
HETATM   22  C   UNL     3      -8.750   7.342  68.996  1.00  0.00    -0.132 C  
HETATM   23  H   UNL     3      -6.733   7.044  72.660  1.00  0.00     0.000 HD 
HETATM   24  C   UNL     3      -9.259   8.022  72.002  1.00  0.00    -0.171 C  
HETATM   25  O   UNL     3     -10.484   7.940  69.364  1.00  0.00    -0.218 OA 
HETATM   26  O   UNL     3     -11.634   9.158  71.265  1.00  0.00    -0.282 OA 
HETATM   27  C   UNL     3      -8.111   7.426  71.160  1.00  0.00    -0.101 C  
HETATM   28  O   UNL     3      -9.268   8.495  73.180  1.00  0.00    -0.220 OA 
HETATM   29  O   UNL     3      -7.002   7.008  71.750  1.00  0.00    -0.067 OA 
HETATM   30  C   UNL     3     -10.756   8.339  70.986  1.00  0.00    -0.218 C  
ENDBRANCH   4  22
BRANCH   4  31
HETATM   31  C   UNL     3     -10.496   6.546  66.817  1.00  0.00    -0.230 C  
HETATM   32  O   UNL     3     -11.490   5.528  66.578  1.00  0.00    -0.298 OA 
HETATM   33  H   UNL     3     -12.155   5.805  65.958  1.00  0.00     0.000 HD 
ENDBRANCH   4  31
TORSDOF 4
ENDMDL
MODEL      179
REMARK 921   NORMALIZED FREE ENERGY PREDICTED BY IDOCK:   21.22 KCAL/MOL
REMARK 922        TOTAL FREE ENERGY PREDICTED BY IDOCK:   60.51 KCAL/MOL
REMARK 923 INTER-LIGAND FREE ENERGY PREDICTED BY IDOCK:   -7.07 KCAL/MOL
REMARK 924 INTRA-LIGAND FREE ENERGY PREDICTED BY IDOCK:   67.58 KCAL/MOL
REMARK 927      BINDING AFFINITY PREDICTED BY RF-SCORE:    0.00 PKD
ROOT
HETATM    1 FE   UNL     1     -11.568  12.961  70.040  1.00  0.00    -0.247 Fe 
HETATM    2  C   UNL     2     -10.650  12.988  63.891  1.00  0.00    -0.261 C  
HETATM    3  O   UNL     2      -9.494  12.088  64.023  1.00  0.00    -0.498 OA 
HETATM    4  C   UNL     3      -9.383  12.512  67.070  1.00  0.00    -0.210 C  
HETATM    5  H   UNL     3      -8.772  12.874  65.338  1.00  0.00     0.000 HD 
HETATM    6  H   UNL     2      -8.783  12.684  64.233  1.00  0.00     0.000 HD 
HETATM    7  O   UNL     3      -8.326  12.608  66.134  1.00  0.00     0.337 OA 
ENDROOT
BRANCH   2   8
HETATM    8  C   UNL     2     -10.992  13.579  65.255  1.00  0.00    -0.303 C  
HETATM    9  H   UNL     2      -8.777  15.214  68.678  1.00  0.00     0.000 HD 
HETATM   10  H   UNL     2      -8.214  15.442  66.697  1.00  0.00     0.000 HD 
HETATM   11  C   UNL     2     -10.433  14.718  67.775  1.00  0.00    -0.254 C  
HETATM   12  O   UNL     2     -12.392  12.843  66.358  1.00  0.00    -0.463 OA 
HETATM   13  O   UNL     2     -12.722  14.415  68.910  1.00  0.00    -0.456 OA 
HETATM   14  O   UNL     2      -8.687  14.852  66.124  1.00  0.00    -0.097 OA 
HETATM   15  C   UNL     2     -11.990  13.734  68.116  1.00  0.00    -0.358 C  
HETATM   16  H   UNL     2     -12.532  14.836  69.740  1.00  0.00     0.000 HD 
HETATM   17  O   UNL     2      -9.567  14.715  68.851  1.00  0.00    -0.212 OA 
HETATM   18  C   UNL     2     -10.040  14.767  66.409  1.00  0.00    -0.280 C  
ENDBRANCH   2   8
BRANCH   2  19
HETATM   19  C   UNL     2     -11.799  12.024  63.551  1.00  0.00    -0.492 C  
HETATM   20  H   UNL     2     -13.751  11.956  63.798  1.00  0.00     0.000 HD 
HETATM   21  O   UNL     2     -13.041  12.551  64.008  1.00  0.00    -0.741 OA 
ENDBRANCH   2  19
BRANCH   4  22
HETATM   22  C   UNL     3     -10.546  13.935  67.156  1.00  0.00    -0.277 C  
HETATM   23  H   UNL     3     -10.326  17.909  65.838  1.00  0.00     0.000 HD 
HETATM   24  C   UNL     3     -10.425  16.800  68.393  1.00  0.00    -0.339 C  
HETATM   25  O   UNL     3     -10.395  13.959  69.020  1.00  0.00    -0.200 OA 
HETATM   26  O   UNL     3     -10.737  15.666  70.861  1.00  0.00    -0.269 OA 
HETATM   27  C   UNL     3     -10.453  16.183  66.978  1.00  0.00    -0.306 C  
HETATM   28  O   UNL     3     -10.636  17.988  68.788  1.00  0.00    -0.249 OA 
HETATM   29  O   UNL     3     -10.365  16.963  65.912  1.00  0.00    -0.377 OA 
HETATM   30  C   UNL     3     -10.360  15.510  69.698  1.00  0.00    -0.283 C  
ENDBRANCH   4  22
BRANCH   4  31
HETATM   31  C   UNL     3      -8.661  12.083  68.360  1.00  0.00    -0.147 C  
HETATM   32  O   UNL     3      -7.231  12.262  68.281  1.00  0.00    -0.085 OA 
HETATM   33  H   UNL     3      -6.786  11.997  69.077  1.00  0.00     0.000 HD 
ENDBRANCH   4  31
TORSDOF 4
ENDMDL
MODEL      180
REMARK 921   NORMALIZED FREE ENERGY PREDICTED BY IDOCK:   22.28 KCAL/MOL
REMARK 922        TOTAL FREE ENERGY PREDICTED BY IDOCK:   61.81 KCAL/MOL
REMARK 923 INTER-LIGAND FREE ENERGY PREDICTED BY IDOCK:   -5.37 KCAL/MOL
REMARK 924 INTRA-LIGAND FREE ENERGY PREDICTED BY IDOCK:   67.18 KCAL/MOL
REMARK 927      BINDING AFFINITY PREDICTED BY RF-SCORE:    0.00 PKD
ROOT
HETATM    1 FE   UNL     1     -11.724   8.984  67.397  1.00  0.00    -0.441 Fe 
HETATM    2  C   UNL     2     -10.899  15.064  68.406  1.00  0.00    -0.256 C  
HETATM    3  O   UNL     2     -11.202  15.375  67.001  1.00  0.00    -0.312 OA 
HETATM    4  C   UNL     3     -10.969  12.414  66.189  1.00  0.00    -0.286 C  
HETATM    5  H   UNL     3     -10.264  14.145  66.312  1.00  0.00     0.000 HD 
HETATM    6  H   UNL     2     -10.368  15.232  66.567  1.00  0.00     0.000 HD 
HETATM    7  O   UNL     3     -10.356  13.539  65.586  1.00  0.00    -0.284 OA 
ENDROOT
BRANCH   2   8
HETATM    8  C   UNL     2     -10.609  13.573  68.545  1.00  0.00    -0.257 C  
HETATM    9  H   UNL     2      -8.375  10.527  66.301  1.00  0.00     0.000 HD 
HETATM   10  H   UNL     2      -7.797  12.508  66.488  1.00  0.00     0.000 HD 
HETATM   11  C   UNL     2      -9.500  11.090  67.792  1.00  0.00    -0.162 C  
HETATM   12  O   UNL     2     -11.959  12.325  69.130  1.00  0.00    -0.297 OA 
HETATM   13  O   UNL     2     -10.861   9.523  69.313  1.00  0.00    -0.235 OA 
HETATM   14  O   UNL     2      -8.499  13.052  66.823  1.00  0.00    -0.129 OA 
HETATM   15  C   UNL     2     -11.094  10.579  68.634  1.00  0.00    -0.267 C  
HETATM   16  H   UNL     2     -10.452   8.698  69.078  1.00  0.00     0.000 HD 
HETATM   17  O   UNL     2      -9.184  10.268  66.728  1.00  0.00    -0.154 OA 
HETATM   18  C   UNL     2      -9.196  12.477  67.873  1.00  0.00    -0.200 C  
ENDBRANCH   2   8
BRANCH   2  19
HETATM   19  C   UNL     2     -12.248  15.296  69.109  1.00  0.00    -0.153 C  
HETATM   20  H   UNL     2     -12.930  15.331  70.955  1.00  0.00     0.000 HD 
HETATM   21  O   UNL     2     -12.097  15.187  70.521  1.00  0.00    -0.293 OA 
ENDBRANCH   2  19
BRANCH   4  22
HETATM   22  C   UNL     3     -10.215  11.798  67.749  1.00  0.00    -0.205 C  
HETATM   23  H   UNL     3      -6.352  12.031  69.363  1.00  0.00     0.000 HD 
HETATM   24  C   UNL     3      -7.854   9.873  68.438  1.00  0.00    -0.085 C  
HETATM   25  O   UNL     3     -10.477  10.032  67.190  1.00  0.00    -0.227 OA 
HETATM   26  O   UNL     3      -9.451   7.776  67.714  1.00  0.00    -0.141 OA 
HETATM   27  C   UNL     3      -8.149  11.383  68.559  1.00  0.00    -0.149 C  
HETATM   28  O   UNL     3      -6.963   9.152  68.985  1.00  0.00    -0.061 OA 
HETATM   29  O   UNL     3      -7.221  12.206  69.023  1.00  0.00    -0.103 OA 
HETATM   30  C   UNL     3      -9.214   8.978  67.588  1.00  0.00    -0.136 C  
ENDBRANCH   4  22
BRANCH   4  31
HETATM   31  C   UNL     3     -11.117  11.432  65.013  1.00  0.00    -0.145 C  
HETATM   32  O   UNL     3     -11.653  12.060  63.830  1.00  0.00    -0.391 OA 
HETATM   33  H   UNL     3     -11.745  11.454  63.105  1.00  0.00     0.000 HD 
ENDBRANCH   4  31
TORSDOF 4
ENDMDL
MODEL      181
REMARK 921   NORMALIZED FREE ENERGY PREDICTED BY IDOCK:   22.83 KCAL/MOL
REMARK 922        TOTAL FREE ENERGY PREDICTED BY IDOCK:   62.50 KCAL/MOL
REMARK 923 INTER-LIGAND FREE ENERGY PREDICTED BY IDOCK:   -5.83 KCAL/MOL
REMARK 924 INTRA-LIGAND FREE ENERGY PREDICTED BY IDOCK:   68.33 KCAL/MOL
REMARK 927      BINDING AFFINITY PREDICTED BY RF-SCORE:    0.00 PKD
ROOT
HETATM    1 FE   UNL     1      -7.488  16.045  68.875  1.00  0.00    -0.125 Fe 
HETATM    2  C   UNL     2     -10.807  11.978  65.544  1.00  0.00    -0.292 C  
HETATM    3  O   UNL     2     -11.251  13.038  64.625  1.00  0.00    -0.302 OA 
HETATM    4  C   UNL     3     -10.248  15.244  66.524  1.00  0.00    -0.275 C  
HETATM    5  H   UNL     3     -11.621  14.192  65.806  1.00  0.00     0.000 HD 
HETATM    6  H   UNL     2     -11.991  13.420  65.082  1.00  0.00     0.000 HD 
HETATM    7  O   UNL     3     -11.516  15.131  65.903  1.00  0.00    -0.284 OA 
ENDROOT
BRANCH   2   8
HETATM    8  C   UNL     2     -10.234  12.610  66.808  1.00  0.00    -0.246 C  
HETATM    9  H   UNL     2     -11.739  15.078  70.116  1.00  0.00     0.000 HD 
HETATM   10  H   UNL     2     -12.827  13.590  69.171  1.00  0.00     0.000 HD 
HETATM   11  C   UNL     2     -10.313  14.126  69.187  1.00  0.00    -0.089 C  
HETATM   12  O   UNL     2      -8.488  13.429  66.832  1.00  0.00    -0.160 OA 
HETATM   13  O   UNL     2      -7.792  14.454  69.581  1.00  0.00    -0.366 OA 
HETATM   14  O   UNL     2     -12.422  13.317  68.357  1.00  0.00     0.005 OA 
HETATM   15  C   UNL     2      -8.571  14.438  68.570  1.00  0.00    -0.175 C  
HETATM   16  H   UNL     2      -7.832  14.931  70.402  1.00  0.00     0.000 HD 
HETATM   17  O   UNL     2     -10.856  15.236  69.803  1.00  0.00    -0.256 OA 
HETATM   18  C   UNL     2     -11.048  13.160  68.446  1.00  0.00    -0.268 C  
ENDBRANCH   2   8
BRANCH   2  19
HETATM   19  C   UNL     2      -9.609  11.359  64.804  1.00  0.00    -0.210 C  
HETATM   20  H   UNL     2      -9.168  10.818  62.963  1.00  0.00     0.000 HD 
HETATM   21  O   UNL     2      -9.908  11.201  63.420  1.00  0.00    -0.288 OA 
ENDBRANCH   2  19
BRANCH   4  22
HETATM   22  C   UNL     3      -9.946  14.178  67.991  1.00  0.00    -0.226 C  
HETATM   23  H   UNL     3      -6.874  11.521  69.029  1.00  0.00     0.000 HD 
HETATM   24  C   UNL     3      -9.566  11.110  68.437  1.00  0.00    -0.192 C  
HETATM   25  O   UNL     3     -11.450  13.149  67.565  1.00  0.00    -0.291 OA 
HETATM   26  O   UNL     3     -12.255  10.797  68.054  1.00  0.00    -0.297 OA 
HETATM   27  C   UNL     3      -8.690  12.378  68.520  1.00  0.00    -0.060 C  
HETATM   28  O   UNL     3      -9.379   9.938  68.888  1.00  0.00    -0.156 OA 
HETATM   29  O   UNL     3      -7.402  12.278  68.806  1.00  0.00    -0.109 OA 
HETATM   30  C   UNL     3     -11.259  11.489  67.834  1.00  0.00    -0.279 C  
ENDBRANCH   4  22
BRANCH   4  31
HETATM   31  C   UNL     3     -10.078  16.766  66.681  1.00  0.00    -0.300 C  
HETATM   32  O   UNL     3     -10.181  17.469  65.425  1.00  0.00    -0.593 OA 
HETATM   33  H   UNL     3     -10.076  18.408  65.522  1.00  0.00     0.000 HD 
ENDBRANCH   4  31
TORSDOF 4
ENDMDL
MODEL      182
REMARK 921   NORMALIZED FREE ENERGY PREDICTED BY IDOCK:   23.49 KCAL/MOL
REMARK 922        TOTAL FREE ENERGY PREDICTED BY IDOCK:   63.31 KCAL/MOL
REMARK 923 INTER-LIGAND FREE ENERGY PREDICTED BY IDOCK:   -3.58 KCAL/MOL
REMARK 924 INTRA-LIGAND FREE ENERGY PREDICTED BY IDOCK:   66.89 KCAL/MOL
REMARK 927      BINDING AFFINITY PREDICTED BY RF-SCORE:    0.00 PKD
ROOT
HETATM    1 FE   UNL     1      -6.415   6.384  72.062  1.00  0.00    -0.043 Fe 
HETATM    2  C   UNL     2      -8.962   7.359  66.474  1.00  0.00    -0.159 C  
HETATM    3  O   UNL     2      -8.447   8.737  66.440  1.00  0.00    -0.115 OA 
HETATM    4  C   UNL     3      -7.734   8.653  69.434  1.00  0.00    -0.091 C  
HETATM    5  H   UNL     3      -8.865   9.152  68.027  1.00  0.00     0.000 HD 
HETATM    6  H   UNL     2      -9.100   9.220  66.933  1.00  0.00     0.000 HD 
HETATM    7  O   UNL     3      -8.465   9.643  68.734  1.00  0.00    -0.117 OA 
ENDROOT
BRANCH   2   8
HETATM    8  C   UNL     2      -8.886   6.824  67.901  1.00  0.00    -0.118 C  
HETATM    9  H   UNL     2      -9.527   8.407  71.948  1.00  0.00     0.000 HD 
HETATM   10  H   UNL     2     -10.624   8.965  70.281  1.00  0.00     0.000 HD 
HETATM   11  C   UNL     2      -9.058   6.973  70.713  1.00  0.00    -0.154 C  
HETATM   12  O   UNL     2      -7.484   5.624  68.462  1.00  0.00    -0.077 OA 
HETATM   13  O   UNL     2      -7.830   4.801  71.342  1.00  0.00    -0.090 OA 
HETATM   14  O   UNL     2     -10.210   8.684  69.474  1.00  0.00    -0.198 OA 
HETATM   15  C   UNL     2      -7.693   5.713  70.460  1.00  0.00    -0.094 C  
HETATM   16  H   UNL     2      -7.929   4.843  72.286  1.00  0.00     0.000 HD 
HETATM   17  O   UNL     2      -8.835   7.769  71.820  1.00  0.00    -0.113 OA 
HETATM   18  C   UNL     2      -9.718   7.390  69.524  1.00  0.00    -0.159 C  
ENDBRANCH   2   8
BRANCH   2  19
HETATM   19  C   UNL     2      -7.905   6.576  65.676  1.00  0.00    -0.100 C  
HETATM   20  H   UNL     2      -7.184   6.575  63.845  1.00  0.00     0.000 HD 
HETATM   21  O   UNL     2      -7.836   7.059  64.338  1.00  0.00    -0.109 OA 
ENDBRANCH   2  19
BRANCH   4  22
HETATM   22  C   UNL     3      -8.630   7.102  69.849  1.00  0.00    -0.141 C  
HETATM   23  H   UNL     3     -12.671   5.992  69.715  1.00  0.00     0.000 HD 
HETATM   24  C   UNL     3     -10.910   6.348  71.846  1.00  0.00    -0.240 C  
HETATM   25  O   UNL     3      -8.170   7.307  71.651  1.00  0.00    -0.104 OA 
HETATM   26  O   UNL     3      -9.084   6.507  73.874  1.00  0.00    -0.135 OA 
HETATM   27  C   UNL     3     -10.745   6.465  70.316  1.00  0.00    -0.266 C  
HETATM   28  O   UNL     3     -11.807   5.784  72.546  1.00  0.00    -0.297 OA 
HETATM   29  O   UNL     3     -11.781   6.260  69.519  1.00  0.00    -0.360 OA 
HETATM   30  C   UNL     3      -9.392   6.870  72.738  1.00  0.00    -0.135 C  
ENDBRANCH   4  22
BRANCH   4  31
HETATM   31  C   UNL     3      -7.086   9.450  70.580  1.00  0.00    -0.124 C  
HETATM   32  O   UNL     3      -5.716   9.808  70.302  1.00  0.00    -0.040 OA 
HETATM   33  H   UNL     3      -5.316  10.300  71.009  1.00  0.00     0.000 HD 
ENDBRANCH   4  31
TORSDOF 4
ENDMDL
MODEL      183
REMARK 921   NORMALIZED FREE ENERGY PREDICTED BY IDOCK:   23.65 KCAL/MOL
REMARK 922        TOTAL FREE ENERGY PREDICTED BY IDOCK:   63.51 KCAL/MOL
REMARK 923 INTER-LIGAND FREE ENERGY PREDICTED BY IDOCK:   -3.36 KCAL/MOL
REMARK 924 INTRA-LIGAND FREE ENERGY PREDICTED BY IDOCK:   66.87 KCAL/MOL
REMARK 927      BINDING AFFINITY PREDICTED BY RF-SCORE:    0.00 PKD
ROOT
HETATM    1 FE   UNL     1     -10.864   7.019  72.566  1.00  0.00    -0.202 Fe 
HETATM    2  C   UNL     2      -9.570   4.767  66.917  1.00  0.00    -0.172 C  
HETATM    3  O   UNL     2      -9.803   3.388  67.374  1.00  0.00    -0.298 OA 
HETATM    4  C   UNL     3      -9.792   4.257  70.327  1.00  0.00    -0.193 C  
HETATM    5  H   UNL     3      -8.951   3.508  68.831  1.00  0.00     0.000 HD 
HETATM    6  H   UNL     2      -8.972   3.151  67.768  1.00  0.00     0.000 HD 
HETATM    7  O   UNL     3      -9.070   3.200  69.721  1.00  0.00    -0.102 OA 
ENDROOT
BRANCH   2   8
HETATM    8  C   UNL     2      -9.408   5.682  68.126  1.00  0.00    -0.119 C  
HETATM    9  H   UNL     2      -7.422   5.489  72.039  1.00  0.00     0.000 HD 
HETATM   10  H   UNL     2      -6.679   4.639  70.302  1.00  0.00     0.000 HD 
HETATM   11  C   UNL     2      -8.507   6.402  70.701  1.00  0.00    -0.135 C  
HETATM   12  O   UNL     2     -10.865   6.763  68.784  1.00  0.00    -0.232 OA 
HETATM   13  O   UNL     2     -10.009   8.445  71.136  1.00  0.00    -0.178 OA 
HETATM   14  O   UNL     2      -7.336   4.601  69.617  1.00  0.00    -0.050 OA 
HETATM   15  C   UNL     2     -10.147   7.302  70.584  1.00  0.00    -0.194 C  
HETATM   16  H   UNL     2      -9.670   8.700  71.986  1.00  0.00     0.000 HD 
HETATM   17  O   UNL     2      -8.253   5.945  71.980  1.00  0.00    -0.111 OA 
HETATM   18  C   UNL     2      -8.088   5.759  69.504  1.00  0.00    -0.108 C  
ENDBRANCH   2   8
BRANCH   2  19
HETATM   19  C   UNL     2     -10.915   5.151  66.277  1.00  0.00     0.032 C  
HETATM   20  H   UNL     2     -11.935   4.682  64.660  1.00  0.00     0.000 HD 
HETATM   21  O   UNL     2     -11.103   4.445  65.055  1.00  0.00    -0.236 OA 
ENDBRANCH   2  19
BRANCH   4  22
HETATM   22  C   UNL     3      -9.139   5.957  70.073  1.00  0.00    -0.154 C  
HETATM   23  H   UNL     3      -5.398   7.457  68.918  1.00  0.00     0.000 HD 
HETATM   24  C   UNL     3      -6.809   7.625  71.316  1.00  0.00    -0.049 C  
HETATM   25  O   UNL     3      -9.342   6.318  71.898  1.00  0.00    -0.150 OA 
HETATM   26  O   UNL     3      -8.330   7.933  73.567  1.00  0.00    -0.171 OA 
HETATM   27  C   UNL     3      -7.128   6.976  69.953  1.00  0.00    -0.070 C  
HETATM   28  O   UNL     3      -5.949   8.500  71.641  1.00  0.00    -0.039 OA 
HETATM   29  O   UNL     3      -6.244   7.028  68.969  1.00  0.00    -0.026 OA 
HETATM   30  C   UNL     3      -8.097   7.248  72.569  1.00  0.00    -0.099 C  
ENDBRANCH   4  22
BRANCH   4  31
HETATM   31  C   UNL     3      -9.985   3.758  71.771  1.00  0.00    -0.157 C  
HETATM   32  O   UNL     3      -9.952   2.319  71.869  1.00  0.00    -0.150 OA 
HETATM   33  H   UNL     3     -10.071   2.011  72.760  1.00  0.00     0.000 HD 
ENDBRANCH   4  31
TORSDOF 4
ENDMDL
MODEL      184
REMARK 921   NORMALIZED FREE ENERGY PREDICTED BY IDOCK:   24.40 KCAL/MOL
REMARK 922        TOTAL FREE ENERGY PREDICTED BY IDOCK:   64.44 KCAL/MOL
REMARK 923 INTER-LIGAND FREE ENERGY PREDICTED BY IDOCK:   -5.01 KCAL/MOL
REMARK 924 INTRA-LIGAND FREE ENERGY PREDICTED BY IDOCK:   69.45 KCAL/MOL
REMARK 927      BINDING AFFINITY PREDICTED BY RF-SCORE:    0.00 PKD
ROOT
HETATM    1 FE   UNL     1     -12.260  12.270  70.105  1.00  0.00    -0.248 Fe 
HETATM    2  C   UNL     2      -9.875  12.599  64.372  1.00  0.00    -0.047 C  
HETATM    3  O   UNL     2      -8.868  11.576  64.693  1.00  0.00    -0.378 OA 
HETATM    4  C   UNL     3      -9.466  11.789  67.706  1.00  0.00    -0.181 C  
HETATM    5  H   UNL     3      -8.422  12.195  66.204  1.00  0.00     0.000 HD 
HETATM    6  H   UNL     2      -8.181  12.079  65.116  1.00  0.00     0.000 HD 
HETATM    7  O   UNL     3      -8.208  11.834  67.056  1.00  0.00    -0.161 OA 
ENDROOT
BRANCH   2   8
HETATM    8  C   UNL     2     -10.486  13.133  65.663  1.00  0.00    -0.290 C  
HETATM    9  H   UNL     2      -9.025  15.024  69.349  1.00  0.00     0.000 HD 
HETATM   10  H   UNL     2      -8.214  15.334  67.468  1.00  0.00     0.000 HD 
HETATM   11  C   UNL     2     -10.453  14.322  68.222  1.00  0.00    -0.247 C  
HETATM   12  O   UNL     2     -11.926  12.215  66.561  1.00  0.00    -0.618 OA 
HETATM   13  O   UNL     2     -12.825  13.717  69.016  1.00  0.00     0.012 OA 
HETATM   14  O   UNL     2      -8.518  14.690  66.840  1.00  0.00    -0.217 OA 
HETATM   15  C   UNL     2     -11.903  13.141  68.346  1.00  0.00    -0.351 C  
HETATM   16  H   UNL     2     -12.814  14.155  69.859  1.00  0.00     0.000 HD 
HETATM   17  O   UNL     2      -9.761  14.426  69.413  1.00  0.00     0.002 OA 
HETATM   18  C   UNL     2      -9.876  14.428  66.927  1.00  0.00    -0.261 C  
ENDBRANCH   2   8
BRANCH   2  19
HETATM   19  C   UNL     2     -10.986  11.784  63.687  1.00  0.00    -0.439 C  
HETATM   20  H   UNL     2     -12.549  12.143  62.545  1.00  0.00     0.000 HD 
HETATM   21  O   UNL     2     -11.862  12.646  62.968  1.00  0.00    -0.369 OA 
ENDBRANCH   2  19
BRANCH   4  22
HETATM   22  C   UNL     3     -10.487  13.316  67.639  1.00  0.00    -0.231 C  
HETATM   23  H   UNL     3     -14.091  14.283  65.729  1.00  0.00     0.000 HD 
HETATM   24  C   UNL     3     -11.485  15.195  65.353  1.00  0.00    -0.239 C  
HETATM   25  O   UNL     3      -9.118  14.204  66.724  1.00  0.00    -0.254 OA 
HETATM   26  O   UNL     3      -8.949  16.202  65.175  1.00  0.00     0.308 OA 
HETATM   27  C   UNL     3     -12.113  14.186  66.337  1.00  0.00    -0.451 C  
HETATM   28  O   UNL     3     -12.015  16.098  64.634  1.00  0.00    -0.076 OA 
HETATM   29  O   UNL     3     -13.408  13.917  66.276  1.00  0.00     0.211 OA 
HETATM   30  C   UNL     3      -9.655  15.246  65.504  1.00  0.00    -0.208 C  
ENDBRANCH   4  22
BRANCH   4  31
HETATM   31  C   UNL     3      -9.118  11.203  69.087  1.00  0.00     0.066 C  
HETATM   32  O   UNL     3      -7.705  11.261  69.374  1.00  0.00    -0.340 OA 
HETATM   33  H   UNL     3      -7.491  10.900  70.226  1.00  0.00     0.000 HD 
ENDBRANCH   4  31
TORSDOF 4
ENDMDL
MODEL      185
REMARK 921   NORMALIZED FREE ENERGY PREDICTED BY IDOCK:   25.54 KCAL/MOL
REMARK 922        TOTAL FREE ENERGY PREDICTED BY IDOCK:   65.84 KCAL/MOL
REMARK 923 INTER-LIGAND FREE ENERGY PREDICTED BY IDOCK:   -2.75 KCAL/MOL
REMARK 924 INTRA-LIGAND FREE ENERGY PREDICTED BY IDOCK:   68.59 KCAL/MOL
REMARK 927      BINDING AFFINITY PREDICTED BY RF-SCORE:    0.00 PKD
ROOT
HETATM    1 FE   UNL     1      -7.941  14.511  70.459  1.00  0.00    -0.390 Fe 
HETATM    2  C   UNL     2      -8.754   9.831  66.447  1.00  0.00    -0.131 C  
HETATM    3  O   UNL     2      -7.301   9.636  66.323  1.00  0.00    -0.092 OA 
HETATM    4  C   UNL     3      -6.721  12.318  67.721  1.00  0.00    -0.107 C  
HETATM    5  H   UNL     3      -6.887  11.271  66.176  1.00  0.00     0.000 HD 
HETATM    6  H   UNL     2      -7.054  10.284  65.673  1.00  0.00     0.000 HD 
HETATM    7  O   UNL     3      -6.194  11.834  66.499  1.00  0.00    -0.094 OA 
ENDROOT
BRANCH   2   8
HETATM    8  C   UNL     2      -9.032  11.188  67.085  1.00  0.00    -0.145 C  
HETATM    9  H   UNL     2      -8.826  15.401  65.858  1.00  0.00     0.000 HD 
HETATM   10  H   UNL     2      -9.378  13.840  64.613  1.00  0.00     0.000 HD 
HETATM   11  C   UNL     2      -9.185  14.004  67.171  1.00  0.00    -0.235 C  
HETATM   12  O   UNL     2      -8.545  11.570  68.912  1.00  0.00    -0.093 OA 
HETATM   13  O   UNL     2      -9.381  14.355  69.712  1.00  0.00    -0.169 OA 
HETATM   14  O   UNL     2      -9.162  12.994  64.986  1.00  0.00     0.488 OA 
HETATM   15  C   UNL     2      -8.734  13.572  68.938  1.00  0.00     0.220 C  
HETATM   16  H   UNL     2      -9.470  15.300  69.724  1.00  0.00     0.000 HD 
HETATM   17  O   UNL     2      -8.597  15.182  66.754  1.00  0.00    -0.243 OA 
HETATM   18  C   UNL     2      -9.467  12.889  66.334  1.00  0.00    -0.226 C  
ENDBRANCH   2   8
BRANCH   2  19
HETATM   19  C   UNL     2      -9.153   8.782  67.500  1.00  0.00    -0.133 C  
HETATM   20  H   UNL     2      -8.419   7.105  68.222  1.00  0.00     0.000 HD 
HETATM   21  O   UNL     2      -8.172   7.753  67.572  1.00  0.00    -0.121 OA 
ENDBRANCH   2  19
BRANCH   4  22
HETATM   22  C   UNL     3      -8.434  12.986  67.676  1.00  0.00    -0.187 C  
HETATM   23  H   UNL     3     -11.826  12.360  70.059  1.00  0.00     0.000 HD 
HETATM   24  C   UNL     3     -11.278  11.725  67.401  1.00  0.00    -0.297 C  
HETATM   25  O   UNL     3      -8.737  12.126  66.042  1.00  0.00    -0.007 OA 
HETATM   26  O   UNL     3     -10.760  11.318  64.748  1.00  0.00    -0.310 OA 
HETATM   27  C   UNL     3     -10.464  12.441  68.500  1.00  0.00    -0.228 C  
HETATM   28  O   UNL     3     -12.521  11.479  67.312  1.00  0.00     0.362 OA 
HETATM   29  O   UNL     3     -10.972  12.589  69.713  1.00  0.00     0.072 OA 
HETATM   30  C   UNL     3     -10.288  11.467  65.876  1.00  0.00    -0.247 C  
ENDBRANCH   4  22
BRANCH   4  31
HETATM   31  C   UNL     3      -5.597  13.230  68.244  1.00  0.00    -0.095 C  
HETATM   32  O   UNL     3      -5.449  14.433  67.460  1.00  0.00    -0.340 OA 
HETATM   33  H   UNL     3      -4.755  14.995  67.783  1.00  0.00     0.000 HD 
ENDBRANCH   4  31
TORSDOF 4
ENDMDL
MODEL      186
REMARK 921   NORMALIZED FREE ENERGY PREDICTED BY IDOCK:   26.15 KCAL/MOL
REMARK 922        TOTAL FREE ENERGY PREDICTED BY IDOCK:   66.60 KCAL/MOL
REMARK 923 INTER-LIGAND FREE ENERGY PREDICTED BY IDOCK:   -3.81 KCAL/MOL
REMARK 924 INTRA-LIGAND FREE ENERGY PREDICTED BY IDOCK:   70.41 KCAL/MOL
REMARK 927      BINDING AFFINITY PREDICTED BY RF-SCORE:    0.00 PKD
ROOT
HETATM    1 FE   UNL     1      -8.214  20.312  69.104  1.00  0.00    -0.198 Fe 
HETATM    2  C   UNL     2      -7.137  14.230  68.396  1.00  0.00    -0.105 C  
HETATM    3  O   UNL     2      -5.691  14.465  68.261  1.00  0.00    -0.099 OA 
HETATM    4  C   UNL     3      -6.113  17.493  67.906  1.00  0.00    -0.147 C  
HETATM    5  H   UNL     3      -5.795  15.785  67.208  1.00  0.00     0.000 HD 
HETATM    6  H   UNL     2      -5.596  14.691  67.343  1.00  0.00     0.000 HD 
HETATM    7  O   UNL     3      -5.345  16.616  67.104  1.00  0.00    -0.136 OA 
ENDROOT
BRANCH   2   8
HETATM    8  C   UNL     2      -7.884  15.547  68.212  1.00  0.00    -0.127 C  
HETATM    9  H   UNL     2      -9.362  17.942  64.840  1.00  0.00     0.000 HD 
HETATM   10  H   UNL     2      -9.330  15.872  64.885  1.00  0.00     0.000 HD 
HETATM   11  C   UNL     2      -9.099  17.629  66.747  1.00  0.00    -0.260 C  
HETATM   12  O   UNL     2      -7.499  17.093  69.299  1.00  0.00    -0.193 OA 
HETATM   13  O   UNL     2      -9.300  19.407  68.595  1.00  0.00    -0.364 OA 
HETATM   14  O   UNL     2      -8.790  15.540  65.592  1.00  0.00    -0.005 OA 
HETATM   15  C   UNL     2      -8.439  18.530  68.251  1.00  0.00    -0.318 C  
HETATM   16  H   UNL     2      -9.744  20.086  68.100  1.00  0.00     0.000 HD 
HETATM   17  O   UNL     2      -9.027  18.399  65.602  1.00  0.00    -0.262 OA 
HETATM   18  C   UNL     2      -8.970  16.213  66.790  1.00  0.00    -0.241 C  
ENDBRANCH   2   8
BRANCH   2  19
HETATM   19  C   UNL     2      -7.290  13.864  69.882  1.00  0.00     0.520 C  
HETATM   20  H   UNL     2      -6.396  12.686  71.182  1.00  0.00     0.000 HD 
HETATM   21  O   UNL     2      -6.302  12.912  70.264  1.00  0.00    -0.049 OA 
ENDBRANCH   2  19
BRANCH   4  22
HETATM   22  C   UNL     3      -7.936  17.454  67.666  1.00  0.00    -0.199 C  
HETATM   23  H   UNL     3     -11.186  17.524  70.314  1.00  0.00     0.000 HD 
HETATM   24  C   UNL     3     -10.234  15.551  68.591  1.00  0.00    -0.216 C  
HETATM   25  O   UNL     3      -7.818  15.718  66.978  1.00  0.00    -0.195 OA 
HETATM   26  O   UNL     3      -9.379  13.738  66.731  1.00  0.00    -0.253 OA 
HETATM   27  C   UNL     3      -9.775  16.994  68.892  1.00  0.00    -0.259 C  
HETATM   28  O   UNL     3     -11.332  14.960  68.828  1.00  0.00    -0.259 OA 
HETATM   29  O   UNL     3     -10.412  17.717  69.799  1.00  0.00     0.093 OA 
HETATM   30  C   UNL     3      -9.077  14.692  67.452  1.00  0.00    -0.197 C  
ENDBRANCH   4  22
BRANCH   4  31
HETATM   31  C   UNL     3      -5.385  18.839  67.737  1.00  0.00    -0.173 C  
HETATM   32  O   UNL     3      -5.782  19.538  66.539  1.00  0.00    -0.166 OA 
HETATM   33  H   UNL     3      -5.332  20.368  66.435  1.00  0.00     0.000 HD 
ENDBRANCH   4  31
TORSDOF 4
ENDMDL
MODEL      187
REMARK 921   NORMALIZED FREE ENERGY PREDICTED BY IDOCK:   26.30 KCAL/MOL
REMARK 922        TOTAL FREE ENERGY PREDICTED BY IDOCK:   66.78 KCAL/MOL
REMARK 923 INTER-LIGAND FREE ENERGY PREDICTED BY IDOCK:    1.28 KCAL/MOL
REMARK 924 INTRA-LIGAND FREE ENERGY PREDICTED BY IDOCK:   65.51 KCAL/MOL
REMARK 927      BINDING AFFINITY PREDICTED BY RF-SCORE:    0.00 PKD
ROOT
HETATM    1 FE   UNL     1      -7.268   7.015  72.404  1.00  0.00    -0.067 Fe 
HETATM    2  C   UNL     2      -9.870  10.812  68.225  1.00  0.00    -0.166 C  
HETATM    3  O   UNL     2     -11.212  10.301  68.543  1.00  0.00    -0.345 OA 
HETATM    4  C   UNL     3     -10.046   7.924  70.113  1.00  0.00    -0.194 C  
HETATM    5  H   UNL     3     -10.806   8.658  68.567  1.00  0.00     0.000 HD 
HETATM    6  H   UNL     2     -11.271   9.514  68.013  1.00  0.00     0.000 HD 
HETATM    7  O   UNL     3     -11.033   7.904  69.098  1.00  0.00    -0.097 OA 
ENDROOT
BRANCH   2   8
HETATM    8  C   UNL     2      -8.818   9.857  68.780  1.00  0.00    -0.136 C  
HETATM    9  H   UNL     2      -6.614   9.370  72.549  1.00  0.00     0.000 HD 
HETATM   10  H   UNL     2      -8.577  10.018  72.411  1.00  0.00     0.000 HD 
HETATM   11  C   UNL     2      -7.040   8.841  70.720  1.00  0.00    -0.069 C  
HETATM   12  O   UNL     2      -7.352   9.221  67.700  1.00  0.00    -0.083 OA 
HETATM   13  O   UNL     2      -5.607   7.302  69.238  1.00  0.00    -0.015 OA 
HETATM   14  O   UNL     2      -8.809  10.261  71.523  1.00  0.00     1.997 OA 
HETATM   15  C   UNL     2      -6.151   8.450  69.117  1.00  0.00    -0.042 C  
HETATM   16  H   UNL     2      -5.039   6.938  69.907  1.00  0.00     0.000 HD 
HETATM   17  O   UNL     2      -6.163   9.172  71.736  1.00  0.00    -0.112 OA 
HETATM   18  C   UNL     2      -8.351   9.369  70.566  1.00  0.00    -0.197 C  
ENDBRANCH   2   8
BRANCH   2  19
HETATM   19  C   UNL     2      -9.774  12.086  69.082  1.00  0.00     0.370 C  
HETATM   20  H   UNL     2      -8.490  12.892  70.337  1.00  0.00     0.000 HD 
HETATM   21  O   UNL     2      -8.549  12.105  69.808  1.00  0.00     1.516 OA 
ENDBRANCH   2  19
BRANCH   4  22
HETATM   22  C   UNL     3      -8.300   8.110  69.567  1.00  0.00    -0.122 C  
HETATM   23  H   UNL     3      -5.455  11.156  70.025  1.00  0.00     0.000 HD 
HETATM   24  C   UNL     3      -6.764  10.157  67.776  1.00  0.00    -0.071 C  
HETATM   25  O   UNL     3      -8.851   8.130  67.779  1.00  0.00    -0.130 OA 
HETATM   26  O   UNL     3      -7.921   8.996  65.588  1.00  0.00    -0.099 OA 
HETATM   27  C   UNL     3      -6.809   9.779  69.272  1.00  0.00    -0.055 C  
HETATM   28  O   UNL     3      -5.916  10.830  67.112  1.00  0.00    -0.055 OA 
HETATM   29  O   UNL     3      -6.082  10.454  70.149  1.00  0.00    -0.070 OA 
HETATM   30  C   UNL     3      -8.001   9.216  66.798  1.00  0.00    -0.104 C  
ENDBRANCH   4  22
BRANCH   4  31
HETATM   31  C   UNL     3     -10.414   6.702  70.974  1.00  0.00    -0.214 C  
HETATM   32  O   UNL     3      -9.538   5.578  70.745  1.00  0.00    -0.160 OA 
HETATM   33  H   UNL     3      -9.765   4.824  71.276  1.00  0.00     0.000 HD 
ENDBRANCH   4  31
TORSDOF 4
ENDMDL
MODEL      188
REMARK 921   NORMALIZED FREE ENERGY PREDICTED BY IDOCK:   29.63 KCAL/MOL
REMARK 922        TOTAL FREE ENERGY PREDICTED BY IDOCK:   70.89 KCAL/MOL
REMARK 923 INTER-LIGAND FREE ENERGY PREDICTED BY IDOCK:   13.07 KCAL/MOL
REMARK 924 INTRA-LIGAND FREE ENERGY PREDICTED BY IDOCK:   57.82 KCAL/MOL
REMARK 927      BINDING AFFINITY PREDICTED BY RF-SCORE:    0.00 PKD
ROOT
HETATM    1 FE   UNL     1     -10.790  17.957  67.577  1.00  0.00    -0.331 Fe 
HETATM    2  C   UNL     2      -6.517  13.689  69.057  1.00  0.00    -0.106 C  
HETATM    3  O   UNL     2      -5.831  13.877  67.770  1.00  0.00    -0.199 OA 
HETATM    4  C   UNL     3      -8.204  15.468  66.622  1.00  0.00    -0.209 C  
HETATM    5  H   UNL     3      -7.218  13.886  66.798  1.00  0.00     0.000 HD 
HETATM    6  H   UNL     2      -6.328  13.321  67.181  1.00  0.00     0.000 HD 
HETATM    7  O   UNL     3      -7.520  14.373  66.041  1.00  0.00     2.116 OA 
ENDROOT
BRANCH   2   8
HETATM    8  C   UNL     2      -7.912  14.302  68.984  1.00  0.00    -0.027 C  
HETATM    9  H   UNL     2     -11.233  15.035  71.764  1.00  0.00     0.000 HD 
HETATM   10  H   UNL     2      -9.228  15.156  72.271  1.00  0.00     0.000 HD 
HETATM   11  C   UNL     2     -10.419  15.112  69.994  1.00  0.00    -0.185 C  
HETATM   12  O   UNL     2      -9.080  13.993  67.480  1.00  0.00    -0.180 OA 
HETATM   13  O   UNL     2     -11.681  15.488  67.783  1.00  0.00    -0.260 OA 
HETATM   14  O   UNL     2      -8.671  14.764  71.610  1.00  0.00     3.445 OA 
HETATM   15  C   UNL     2     -10.830  14.645  68.226  1.00  0.00    -0.245 C  
HETATM   16  H   UNL     2     -12.508  15.796  68.135  1.00  0.00     0.000 HD 
HETATM   17  O   UNL     2     -11.442  14.799  70.868  1.00  0.00    -0.278 OA 
HETATM   18  C   UNL     2      -9.034  15.091  70.313  1.00  0.00     0.854 C  
ENDBRANCH   2   8
BRANCH   2  19
HETATM   19  C   UNL     2      -5.713  14.589  70.011  1.00  0.00    -0.121 C  
HETATM   20  H   UNL     2      -5.920  15.326  71.824  1.00  0.00     0.000 HD 
HETATM   21  O   UNL     2      -6.417  14.770  71.235  1.00  0.00     0.205 OA 
ENDBRANCH   2  19
BRANCH   4  22
HETATM   22  C   UNL     3      -9.417  15.077  67.948  1.00  0.00    -0.195 C  
HETATM   23  H   UNL     3     -11.506  11.596  68.997  1.00  0.00     0.000 HD 
HETATM   24  C   UNL     3     -12.367  14.050  67.995  1.00  0.00     0.024 C  
HETATM   25  O   UNL     3     -10.652  16.254  67.180  1.00  0.00    -0.312 OA 
HETATM   26  O   UNL     3     -13.168  16.544  67.212  1.00  0.00     4.395 OA 
HETATM   27  C   UNL     3     -10.976  13.501  68.377  1.00  0.00    -0.266 C  
HETATM   28  O   UNL     3     -13.532  13.645  68.293  1.00  0.00     3.157 OA 
HETATM   29  O   UNL     3     -10.850  12.258  68.816  1.00  0.00    -0.226 OA 
HETATM   30  C   UNL     3     -12.255  15.716  67.230  1.00  0.00     0.996 C  
ENDBRANCH   4  22
BRANCH   4  31
HETATM   31  C   UNL     3      -8.695  16.257  65.395  1.00  0.00     1.271 C  
HETATM   32  O   UNL     3      -8.394  17.666  65.484  1.00  0.00    -0.251 OA 
HETATM   33  H   UNL     3      -8.697  18.152  64.727  1.00  0.00     0.000 HD 
ENDBRANCH   4  31
TORSDOF 4
ENDMDL
MODEL      189
REMARK 921   NORMALIZED FREE ENERGY PREDICTED BY IDOCK:   30.70 KCAL/MOL
REMARK 922        TOTAL FREE ENERGY PREDICTED BY IDOCK:   72.21 KCAL/MOL
REMARK 923 INTER-LIGAND FREE ENERGY PREDICTED BY IDOCK:    1.07 KCAL/MOL
REMARK 924 INTRA-LIGAND FREE ENERGY PREDICTED BY IDOCK:   71.14 KCAL/MOL
REMARK 927      BINDING AFFINITY PREDICTED BY RF-SCORE:    0.00 PKD
ROOT
HETATM    1 FE   UNL     1      -8.386  10.401  65.679  1.00  0.00    -0.124 Fe 
HETATM    2  C   UNL     2      -6.690   5.141  68.527  1.00  0.00    -0.050 C  
HETATM    3  O   UNL     2      -7.543   4.340  67.635  1.00  0.00    -0.072 OA 
HETATM    4  C   UNL     3      -8.987   6.852  66.595  1.00  0.00    -0.145 C  
HETATM    5  H   UNL     3      -8.905   5.343  67.700  1.00  0.00     0.000 HD 
HETATM    6  H   UNL     2      -8.398   4.404  68.044  1.00  0.00     0.000 HD 
HETATM    7  O   UNL     3      -9.558   5.652  67.084  1.00  0.00    -0.122 OA 
ENDROOT
BRANCH   2   8
HETATM    8  C   UNL     2      -7.089   6.609  68.428  1.00  0.00    -0.083 C  
HETATM    9  H   UNL     2     -10.617   9.036  69.405  1.00  0.00     0.000 HD 
HETATM   10  H   UNL     2      -9.969   7.409  70.510  1.00  0.00     0.000 HD 
HETATM   11  C   UNL     2      -8.807   8.829  68.710  1.00  0.00    -0.134 C  
HETATM   12  O   UNL     2      -6.620   7.689  66.900  1.00  0.00    -0.058 OA 
HETATM   13  O   UNL     2      -7.571  10.531  67.229  1.00  0.00    -0.094 OA 
HETATM   14  O   UNL     2      -9.329   6.891  70.037  1.00  0.00    -0.158 OA 
HETATM   15  C   UNL     2      -7.817   9.279  67.184  1.00  0.00    -0.099 C  
HETATM   16  H   UNL     2      -8.137  11.283  67.363  1.00  0.00     0.000 HD 
HETATM   17  O   UNL     2     -10.116   9.265  68.631  1.00  0.00    -0.176 OA 
HETATM   18  C   UNL     2      -8.376   7.651  69.380  1.00  0.00    -0.131 C  
ENDBRANCH   2   8
BRANCH   2  19
HETATM   19  C   UNL     2      -5.306   5.037  67.864  1.00  0.00    -0.011 C  
HETATM   20  H   UNL     2      -4.568   4.435  66.141  1.00  0.00     0.000 HD 
HETATM   21  O   UNL     2      -5.423   4.499  66.550  1.00  0.00    -0.012 OA 
ENDBRANCH   2  19
BRANCH   4  22
HETATM   22  C   UNL     3      -8.344   8.033  67.849  1.00  0.00    -0.129 C  
HETATM   23  H   UNL     3      -4.479   9.144  69.035  1.00  0.00     0.000 HD 
HETATM   24  C   UNL     3      -6.514   7.785  70.368  1.00  0.00    -0.038 C  
HETATM   25  O   UNL     3      -9.066   6.986  69.221  1.00  0.00    -0.138 OA 
HETATM   26  O   UNL     3      -8.618   6.645  71.691  1.00  0.00    -0.124 OA 
HETATM   27  C   UNL     3      -6.415   8.408  68.960  1.00  0.00    -0.048 C  
HETATM   28  O   UNL     3      -5.809   7.962  71.409  1.00  0.00    -0.034 OA 
HETATM   29  O   UNL     3      -5.290   8.987  68.568  1.00  0.00    -0.037 OA 
HETATM   30  C   UNL     3      -8.092   6.873  70.600  1.00  0.00    -0.118 C  
ENDBRANCH   4  22
BRANCH   4  31
HETATM   31  C   UNL     3     -10.046   7.354  65.596  1.00  0.00     1.448 C  
HETATM   32  O   UNL     3     -11.345   6.769  65.824  1.00  0.00     1.754 OA 
HETATM   33  H   UNL     3     -11.998   7.079  65.207  1.00  0.00     0.000 HD 
ENDBRANCH   4  31
TORSDOF 4
ENDMDL
MODEL      190
REMARK 921   NORMALIZED FREE ENERGY PREDICTED BY IDOCK:   32.12 KCAL/MOL
REMARK 922        TOTAL FREE ENERGY PREDICTED BY IDOCK:   73.96 KCAL/MOL
REMARK 923 INTER-LIGAND FREE ENERGY PREDICTED BY IDOCK:    3.14 KCAL/MOL
REMARK 924 INTRA-LIGAND FREE ENERGY PREDICTED BY IDOCK:   70.82 KCAL/MOL
REMARK 927      BINDING AFFINITY PREDICTED BY RF-SCORE:    0.00 PKD
ROOT
HETATM    1 FE   UNL     1     -11.380  12.906  70.022  1.00  0.00    -0.262 Fe 
HETATM    2  C   UNL     2      -6.957  17.197  69.198  1.00  0.00    -0.224 C  
HETATM    3  O   UNL     2      -7.923  18.286  69.410  1.00  0.00     0.093 OA 
HETATM    4  C   UNL     3     -10.308  16.355  69.159  1.00  0.00    -0.289 C  
HETATM    5  H   UNL     3      -9.161  17.653  68.445  1.00  0.00     0.000 HD 
HETATM    6  H   UNL     2      -8.321  18.387  68.553  1.00  0.00     0.000 HD 
HETATM    7  O   UNL     3     -10.107  17.592  68.498  1.00  0.00    -0.319 OA 
ENDROOT
BRANCH   2   8
HETATM    8  C   UNL     2      -7.708  15.896  68.932  1.00  0.00    -0.194 C  
HETATM    9  H   UNL     2      -9.478  13.879  65.455  1.00  0.00     0.000 HD 
HETATM   10  H   UNL     2      -7.743  15.009  65.400  1.00  0.00     0.000 HD 
HETATM   11  C   UNL     2      -9.058  13.985  67.357  1.00  0.00    -0.209 C  
HETATM   12  O   UNL     2      -9.044  15.228  70.153  1.00  0.00     0.058 OA 
HETATM   13  O   UNL     2     -10.170  12.593  69.213  1.00  0.00    -0.403 OA 
HETATM   14  O   UNL     2      -7.635  15.532  66.185  1.00  0.00     0.454 OA 
HETATM   15  C   UNL     2      -9.929  13.830  69.009  1.00  0.00     0.066 C  
HETATM   16  H   UNL     2     -10.588  11.933  68.673  1.00  0.00     0.000 HD 
HETATM   17  O   UNL     2      -9.920  13.800  66.293  1.00  0.00    -0.289 OA 
HETATM   18  C   UNL     2      -7.926  14.846  67.353  1.00  0.00    -0.199 C  
ENDBRANCH   2   8
BRANCH   2  19
HETATM   19  C   UNL     2      -6.312  17.034  70.585  1.00  0.00     1.024 C  
HETATM   20  H   UNL     2      -5.936  18.169  72.149  1.00  0.00     0.000 HD 
HETATM   21  O   UNL     2      -6.334  18.270  71.292  1.00  0.00     1.157 OA 
ENDBRANCH   2  19
BRANCH   4  22
HETATM   22  C   UNL     3      -9.377  14.909  68.509  1.00  0.00    -0.196 C  
HETATM   23  H   UNL     3      -7.219  11.819  70.347  1.00  0.00     0.000 HD 
HETATM   24  C   UNL     3      -6.418  13.929  68.712  1.00  0.00    -0.094 C  
HETATM   25  O   UNL     3      -8.132  16.056  67.711  1.00  0.00    -0.138 OA 
HETATM   26  O   UNL     3      -5.726  15.890  66.937  1.00  0.00    -0.292 OA 
HETATM   27  C   UNL     3      -7.795  13.473  69.239  1.00  0.00     0.410 C  
HETATM   28  O   UNL     3      -5.309  13.315  68.639  1.00  0.00    -0.068 OA 
HETATM   29  O   UNL     3      -7.884  12.423  70.040  1.00  0.00     1.510 OA 
HETATM   30  C   UNL     3      -6.531  15.514  67.791  1.00  0.00    -0.164 C  
ENDBRANCH   4  22
BRANCH   4  31
HETATM   31  C   UNL     3     -11.842  16.256  69.244  1.00  0.00    -0.051 C  
HETATM   32  O   UNL     3     -12.501  17.456  68.787  1.00  0.00     1.759 OA 
HETATM   33  H   UNL     3     -13.447  17.395  68.840  1.00  0.00     0.000 HD 
ENDBRANCH   4  31
TORSDOF 4
ENDMDL
MODEL      191
REMARK 921   NORMALIZED FREE ENERGY PREDICTED BY IDOCK:   33.70 KCAL/MOL
REMARK 922        TOTAL FREE ENERGY PREDICTED BY IDOCK:   75.91 KCAL/MOL
REMARK 923 INTER-LIGAND FREE ENERGY PREDICTED BY IDOCK:   -2.09 KCAL/MOL
REMARK 924 INTRA-LIGAND FREE ENERGY PREDICTED BY IDOCK:   78.00 KCAL/MOL
REMARK 927      BINDING AFFINITY PREDICTED BY RF-SCORE:    0.00 PKD
ROOT
HETATM    1 FE   UNL     1     -12.047  10.458  67.785  1.00  0.00    -0.383 Fe 
HETATM    2  C   UNL     2      -8.034   6.441  70.319  1.00  0.00    -0.112 C  
HETATM    3  O   UNL     2      -9.134   5.639  70.876  1.00  0.00    -0.141 OA 
HETATM    4  C   UNL     3     -11.185   7.860  70.295  1.00  0.00    -0.200 C  
HETATM    5  H   UNL     3     -10.054   6.932  71.464  1.00  0.00     0.000 HD 
HETATM    6  H   UNL     2      -9.342   6.095  71.683  1.00  0.00     0.000 HD 
HETATM    7  O   UNL     3     -10.977   7.154  71.504  1.00  0.00    -0.233 OA 
ENDROOT
BRANCH   2   8
HETATM    8  C   UNL     2      -8.565   7.808  69.899  1.00  0.00    -0.137 C  
HETATM    9  H   UNL     2      -9.581   9.825  66.131  1.00  0.00     0.000 HD 
HETATM   10  H   UNL     2      -9.870   7.807  66.498  1.00  0.00     0.000 HD 
HETATM   11  C   UNL     2      -9.412   9.786  68.074  1.00  0.00    -0.131 C  
HETATM   12  O   UNL     2      -7.969   9.434  70.749  1.00  0.00    -0.182 OA 
HETATM   13  O   UNL     2      -9.376  11.847  69.613  1.00  0.00     0.408 OA 
HETATM   14  O   UNL     2      -9.404   7.516  67.273  1.00  0.00    -0.133 OA 
HETATM   15  C   UNL     2      -8.653  10.808  69.449  1.00  0.00     0.034 C  
HETATM   16  H   UNL     2      -9.699  12.496  68.999  1.00  0.00     0.000 HD 
HETATM   17  O   UNL     2      -9.196  10.343  66.828  1.00  0.00    -0.152 OA 
HETATM   18  C   UNL     2      -9.504   8.392  68.342  1.00  0.00    -0.139 C  
ENDBRANCH   2   8
BRANCH   2  19
HETATM   19  C   UNL     2      -7.697   5.703  69.012  1.00  0.00    -0.089 C  
HETATM   20  H   UNL     2      -6.138   4.798  68.222  1.00  0.00     0.000 HD 
HETATM   21  O   UNL     2      -6.346   5.254  69.029  1.00  0.00    -0.032 OA 
ENDBRANCH   2  19
BRANCH   4  22
HETATM   22  C   UNL     3      -9.985   9.195  69.899  1.00  0.00    -0.213 C  
HETATM   23  H   UNL     3      -7.894  10.241  66.418  1.00  0.00     0.000 HD 
HETATM   24  C   UNL     3      -7.032   9.267  68.883  1.00  0.00    -0.064 C  
HETATM   25  O   UNL     3      -8.747   8.449  71.086  1.00  0.00    -0.133 OA 
HETATM   26  O   UNL     3      -6.232   8.511  71.385  1.00  0.00    -0.039 OA 
HETATM   27  C   UNL     3      -8.425   9.630  68.326  1.00  0.00    -0.118 C  
HETATM   28  O   UNL     3      -5.868   9.575  68.481  1.00  0.00    -0.040 OA 
HETATM   29  O   UNL     3      -8.550  10.058  67.079  1.00  0.00    -0.125 OA 
HETATM   30  C   UNL     3      -7.141   8.513  70.554  1.00  0.00    -0.041 C  
ENDBRANCH   4  22
BRANCH   4  31
HETATM   31  C   UNL     3     -12.680   8.219  70.360  1.00  0.00     0.818 C  
HETATM   32  O   UNL     3     -12.912   9.529  70.919  1.00  0.00    -0.513 OA 
HETATM   33  H   UNL     3     -13.835   9.751  70.959  1.00  0.00     0.000 HD 
ENDBRANCH   4  31
TORSDOF 4
ENDMDL
MODEL      192
REMARK 921   NORMALIZED FREE ENERGY PREDICTED BY IDOCK:   35.21 KCAL/MOL
REMARK 922        TOTAL FREE ENERGY PREDICTED BY IDOCK:   77.78 KCAL/MOL
REMARK 923 INTER-LIGAND FREE ENERGY PREDICTED BY IDOCK:    2.33 KCAL/MOL
REMARK 924 INTRA-LIGAND FREE ENERGY PREDICTED BY IDOCK:   75.44 KCAL/MOL
REMARK 927      BINDING AFFINITY PREDICTED BY RF-SCORE:    0.00 PKD
ROOT
HETATM    1 FE   UNL     1      -7.998  14.280  70.735  1.00  0.00    -0.139 Fe 
HETATM    2  C   UNL     2      -9.131   9.956  66.413  1.00  0.00    -0.150 C  
HETATM    3  O   UNL     2      -7.855  10.243  65.740  1.00  0.00    -0.133 OA 
HETATM    4  C   UNL     3      -7.470  12.835  67.355  1.00  0.00    -0.145 C  
HETATM    5  H   UNL     3      -7.970  11.931  65.793  1.00  0.00     0.000 HD 
HETATM    6  H   UNL     2      -8.067  10.990  65.192  1.00  0.00     0.000 HD 
HETATM    7  O   UNL     3      -7.375  12.653  65.954  1.00  0.00     1.661 OA 
ENDROOT
BRANCH   2   8
HETATM    8  C   UNL     2      -9.466  11.093  67.372  1.00  0.00    -0.176 C  
HETATM    9  H   UNL     2     -11.003  11.473  71.470  1.00  0.00     0.000 HD 
HETATM   10  H   UNL     2      -9.739   9.964  70.825  1.00  0.00     0.000 HD 
HETATM   11  C   UNL     2     -10.363  12.234  69.792  1.00  0.00     1.125 C  
HETATM   12  O   UNL     2     -10.331  12.709  66.769  1.00  0.00    -0.232 OA 
HETATM   13  O   UNL     2     -10.697  14.669  69.031  1.00  0.00    -0.237 OA 
HETATM   14  O   UNL     2      -9.686   9.926  69.877  1.00  0.00    -0.224 OA 
HETATM   15  C   UNL     2     -10.889  13.512  68.527  1.00  0.00    -0.264 C  
HETATM   16  H   UNL     2     -10.961  15.048  69.862  1.00  0.00     0.000 HD 
HETATM   17  O   UNL     2     -11.270  12.122  70.829  1.00  0.00     0.952 OA 
HETATM   18  C   UNL     2      -9.572  11.170  69.278  1.00  0.00     0.091 C  
ENDBRANCH   2   8
BRANCH   2  19
HETATM   19  C   UNL     2      -8.789   8.746  67.300  1.00  0.00    -0.132 C  
HETATM   20  H   UNL     2      -9.758   7.468  68.441  1.00  0.00     0.000 HD 
HETATM   21  O   UNL     2      -9.969   8.215  67.893  1.00  0.00    -0.165 OA 
ENDBRANCH   2  19
BRANCH   4  22
HETATM   22  C   UNL     3      -9.163  12.929  68.064  1.00  0.00    -0.212 C  
HETATM   23  H   UNL     3     -11.360  10.414  70.601  1.00  0.00     0.000 HD 
HETATM   24  C   UNL     3     -11.707  11.121  67.927  1.00  0.00    -0.182 C  
HETATM   25  O   UNL     3      -9.901  12.771  66.352  1.00  0.00    -0.257 OA 
HETATM   26  O   UNL     3     -12.112  12.015  65.375  1.00  0.00    -0.444 OA 
HETATM   27  C   UNL     3     -10.667  11.525  68.994  1.00  0.00    -0.193 C  
HETATM   28  O   UNL     3     -12.851  10.582  68.041  1.00  0.00     2.400 OA 
HETATM   29  O   UNL     3     -10.727  11.004  70.210  1.00  0.00     0.039 OA 
HETATM   30  C   UNL     3     -11.297  11.817  66.278  1.00  0.00    -0.287 C  
ENDBRANCH   4  22
BRANCH   4  31
HETATM   31  C   UNL     3      -6.505  14.006  67.615  1.00  0.00    -0.140 C  
HETATM   32  O   UNL     3      -7.004  15.260  67.104  1.00  0.00    -0.222 OA 
HETATM   33  H   UNL     3      -6.408  15.983  67.264  1.00  0.00     0.000 HD 
ENDBRANCH   4  31
TORSDOF 4
ENDMDL
MODEL      193
REMARK 921   NORMALIZED FREE ENERGY PREDICTED BY IDOCK:   36.83 KCAL/MOL
REMARK 922        TOTAL FREE ENERGY PREDICTED BY IDOCK:   79.78 KCAL/MOL
REMARK 923 INTER-LIGAND FREE ENERGY PREDICTED BY IDOCK:   19.79 KCAL/MOL
REMARK 924 INTRA-LIGAND FREE ENERGY PREDICTED BY IDOCK:   59.99 KCAL/MOL
REMARK 927      BINDING AFFINITY PREDICTED BY RF-SCORE:    0.00 PKD
ROOT
HETATM    1 FE   UNL     1     -11.380  18.939  68.377  1.00  0.00    -0.226 Fe 
HETATM    2  C   UNL     2      -6.734  14.810  68.558  1.00  0.00    -0.097 C  
HETATM    3  O   UNL     2      -6.254  15.239  67.235  1.00  0.00    -0.321 OA 
HETATM    4  C   UNL     3      -8.844  16.812  66.692  1.00  0.00    -0.255 C  
HETATM    5  H   UNL     3      -7.766  15.295  66.477  1.00  0.00     0.000 HD 
HETATM    6  H   UNL     2      -6.804  14.744  66.639  1.00  0.00     0.000 HD 
HETATM    7  O   UNL     3      -8.200  15.868  65.856  1.00  0.00     0.054 OA 
ENDROOT
BRANCH   2   8
HETATM    8  C   UNL     2      -8.152  15.328  68.776  1.00  0.00    -0.165 C  
HETATM    9  H   UNL     2     -11.455  14.530  71.560  1.00  0.00     0.000 HD 
HETATM   10  H   UNL     2      -9.449  14.482  72.073  1.00  0.00     0.000 HD 
HETATM   11  C   UNL     2     -10.673  15.463  70.036  1.00  0.00    -0.307 C  
HETATM   12  O   UNL     2      -9.331  15.711  67.297  1.00  0.00    -0.210 OA 
HETATM   13  O   UNL     2     -11.983  16.779  68.255  1.00  0.00     0.359 OA 
HETATM   14  O   UNL     2      -8.887  14.471  71.308  1.00  0.00     3.188 OA 
HETATM   15  C   UNL     2     -11.093  15.864  68.254  1.00  0.00    -0.345 C  
HETATM   16  H   UNL     2     -12.816  16.851  68.708  1.00  0.00     0.000 HD 
HETATM   17  O   UNL     2     -11.669  14.733  70.656  1.00  0.00    -0.274 OA 
HETATM   18  C   UNL     2      -9.283  15.352  70.315  1.00  0.00     0.649 C  
ENDBRANCH   2   8
BRANCH   2  19
HETATM   19  C   UNL     2      -5.843  15.611  69.524  1.00  0.00    -0.124 C  
HETATM   20  H   UNL     2      -5.666  17.480  70.115  1.00  0.00     0.000 HD 
HETATM   21  O   UNL     2      -6.216  16.986  69.519  1.00  0.00    -0.218 OA 
ENDBRANCH   2  19
BRANCH   4  22
HETATM   22  C   UNL     3      -9.829  16.141  68.092  1.00  0.00    -0.227 C  
HETATM   23  H   UNL     3     -13.905  16.277  69.064  1.00  0.00     0.000 HD 
HETATM   24  C   UNL     3     -11.664  17.393  70.288  1.00  0.00     2.864 C  
HETATM   25  O   UNL     3      -8.937  17.279  69.279  1.00  0.00    -0.042 OA 
HETATM   26  O   UNL     3      -9.411  18.282  71.557  1.00  0.00     6.052 OA 
HETATM   27  C   UNL     3     -11.845  16.500  69.042  1.00  0.00     0.235 C  
HETATM   28  O   UNL     3     -12.443  17.633  71.261  1.00  0.00     5.367 OA 
HETATM   29  O   UNL     3     -13.057  16.126  68.664  1.00  0.00     1.541 OA 
HETATM   30  C   UNL     3      -9.921  17.936  70.489  1.00  0.00     2.306 C  
ENDBRANCH   4  22
BRANCH   4  31
HETATM   31  C   UNL     3      -9.547  17.740  65.685  1.00  0.00     0.423 C  
HETATM   32  O   UNL     3      -9.323  19.137  65.969  1.00  0.00    -0.439 OA 
HETATM   33  H   UNL     3      -9.757  19.710  65.348  1.00  0.00     0.000 HD 
ENDBRANCH   4  31
TORSDOF 4
ENDMDL
MODEL      194
REMARK 921   NORMALIZED FREE ENERGY PREDICTED BY IDOCK:   44.08 KCAL/MOL
REMARK 922        TOTAL FREE ENERGY PREDICTED BY IDOCK:   88.71 KCAL/MOL
REMARK 923 INTER-LIGAND FREE ENERGY PREDICTED BY IDOCK:   20.86 KCAL/MOL
REMARK 924 INTRA-LIGAND FREE ENERGY PREDICTED BY IDOCK:   67.85 KCAL/MOL
REMARK 927      BINDING AFFINITY PREDICTED BY RF-SCORE:    0.00 PKD
ROOT
HETATM    1 FE   UNL     1      -7.046  17.419  71.174  1.00  0.00     1.448 Fe 
HETATM    2  C   UNL     2      -8.212  17.131  65.073  1.00  0.00     3.610 C  
HETATM    3  O   UNL     2      -8.414  18.586  65.006  1.00  0.00     1.403 OA 
HETATM    4  C   UNL     3      -8.545  18.811  68.074  1.00  0.00    -0.297 C  
HETATM    5  H   UNL     3      -9.371  18.724  66.395  1.00  0.00     0.000 HD 
HETATM    6  H   UNL     2      -9.319  18.688  65.276  1.00  0.00     0.000 HD 
HETATM    7  O   UNL     3      -9.447  19.337  67.117  1.00  0.00    -0.310 OA 
ENDROOT
BRANCH   2   8
HETATM    8  C   UNL     2      -8.265  16.677  66.528  1.00  0.00    -0.330 C  
HETATM    9  H   UNL     2      -5.720  14.345  69.246  1.00  0.00     0.000 HD 
HETATM   10  H   UNL     2      -5.010  15.616  67.772  1.00  0.00     0.000 HD 
HETATM   11  C   UNL     2      -7.331  15.370  68.847  1.00  0.00    -0.147 C  
HETATM   12  O   UNL     2      -9.903  16.064  67.342  1.00  0.00    -0.232 OA 
HETATM   13  O   UNL     2      -9.492  15.360  70.245  1.00  0.00    -0.297 OA 
HETATM   14  O   UNL     2      -5.690  15.863  67.158  1.00  0.00    -0.333 OA 
HETATM   15  C   UNL     2      -9.191  15.204  69.014  1.00  0.00    -0.221 C  
HETATM   16  H   UNL     2      -9.155  14.954  71.035  1.00  0.00     0.000 HD 
HETATM   17  O   UNL     2      -6.663  14.261  69.331  1.00  0.00    -0.120 OA 
HETATM   18  C   UNL     2      -6.896  16.180  67.763  1.00  0.00    -0.145 C  
ENDBRANCH   2   8
BRANCH   2  19
HETATM   19  C   UNL     2      -6.746  16.966  64.636  1.00  0.00     6.327 C  
HETATM   20  H   UNL     2      -5.179  15.913  65.193  1.00  0.00     0.000 HD 
HETATM   21  O   UNL     2      -6.085  16.014  65.463  1.00  0.00     3.353 OA 
ENDBRANCH   2  19
BRANCH   4  22
HETATM   22  C   UNL     3      -8.681  17.014  68.439  1.00  0.00    -0.247 C  
HETATM   23  H   UNL     3     -10.824  14.816  71.296  1.00  0.00     0.000 HD 
HETATM   24  C   UNL     3      -8.091  15.227  70.932  1.00  0.00     2.322 C  
HETATM   25  O   UNL     3      -6.880  16.969  68.941  1.00  0.00    -0.188 OA 
HETATM   26  O   UNL     3      -5.423  15.495  70.399  1.00  0.00    -0.138 OA 
HETATM   27  C   UNL     3      -9.337  15.701  70.155  1.00  0.00     0.419 C  
HETATM   28  O   UNL     3      -7.943  14.293  71.779  1.00  0.00     3.676 OA 
HETATM   29  O   UNL     3     -10.548  15.369  70.575  1.00  0.00    -0.304 OA 
HETATM   30  C   UNL     3      -6.550  15.978  70.273  1.00  0.00     0.290 C  
ENDBRANCH   4  22
BRANCH   4  31
HETATM   31  C   UNL     3      -8.668  19.804  69.244  1.00  0.00     0.173 C  
HETATM   32  O   UNL     3      -9.313  21.037  68.860  1.00  0.00     1.147 OA 
HETATM   33  H   UNL     3      -9.388  21.649  69.582  1.00  0.00     0.000 HD 
ENDBRANCH   4  31
TORSDOF 4
ENDMDL
MODEL      195
REMARK 921   NORMALIZED FREE ENERGY PREDICTED BY IDOCK:   47.19 KCAL/MOL
REMARK 922        TOTAL FREE ENERGY PREDICTED BY IDOCK:   92.55 KCAL/MOL
REMARK 923 INTER-LIGAND FREE ENERGY PREDICTED BY IDOCK:   32.66 KCAL/MOL
REMARK 924 INTRA-LIGAND FREE ENERGY PREDICTED BY IDOCK:   59.89 KCAL/MOL
REMARK 927      BINDING AFFINITY PREDICTED BY RF-SCORE:    0.00 PKD
ROOT
HETATM    1 FE   UNL     1      -7.525  11.834  69.773  1.00  0.00    -0.269 Fe 
HETATM    2  C   UNL     2     -12.228  11.815  65.707  1.00  0.00     0.752 C  
HETATM    3  O   UNL     2     -11.303  11.601  64.583  1.00  0.00    -0.291 OA 
HETATM    4  C   UNL     3      -8.861  12.267  66.335  1.00  0.00    -0.071 C  
HETATM    5  H   UNL     3     -10.142  12.740  65.054  1.00  0.00     0.000 HD 
HETATM    6  H   UNL     2     -11.003  12.481  64.384  1.00  0.00     0.000 HD 
HETATM    7  O   UNL     3      -9.194  12.788  65.061  1.00  0.00     0.406 OA 
ENDROOT
BRANCH   2   8
HETATM    8  C   UNL     2     -11.442  12.272  66.931  1.00  0.00    -0.418 C  
HETATM    9  H   UNL     2      -7.973  10.849  69.219  1.00  0.00     0.000 HD 
HETATM   10  H   UNL     2      -8.180  10.669  67.166  1.00  0.00     0.000 HD 
HETATM   11  C   UNL     2      -9.420  12.115  68.892  1.00  0.00     0.179 C  
HETATM   12  O   UNL     2     -12.319  13.004  68.486  1.00  0.00    -0.099 OA 
HETATM   13  O   UNL     2     -10.321  13.825  70.590  1.00  0.00     1.255 OA 
HETATM   14  O   UNL     2      -9.070  10.838  66.882  1.00  0.00    -0.147 OA 
HETATM   15  C   UNL     2     -10.823  12.932  69.827  1.00  0.00     0.487 C  
HETATM   16  H   UNL     2      -9.614  13.791  71.223  1.00  0.00     0.000 HD 
HETATM   17  O   UNL     2      -8.684  11.263  69.693  1.00  0.00     0.442 OA 
HETATM   18  C   UNL     2      -9.651  11.933  67.501  1.00  0.00    -0.175 C  
ENDBRANCH   2   8
BRANCH   2  19
HETATM   19  C   UNL     2     -12.714  10.391  66.028  1.00  0.00     8.629 C  
HETATM   20  H   UNL     2     -14.251   9.555  66.931  1.00  0.00     0.000 HD 
HETATM   21  O   UNL     2     -13.951  10.435  66.732  1.00  0.00    16.266 OA 
ENDBRANCH   2  19
BRANCH   4  22
HETATM   22  C   UNL     3      -9.778  12.949  67.774  1.00  0.00    -0.214 C  
HETATM   23  H   UNL     3     -13.794  12.777  68.968  1.00  0.00     0.000 HD 
HETATM   24  C   UNL     3     -12.197  14.896  68.117  1.00  0.00     0.046 C  
HETATM   25  O   UNL     3      -9.453  14.689  67.169  1.00  0.00    -0.215 OA 
HETATM   26  O   UNL     3     -10.525  16.964  67.479  1.00  0.00    -0.318 OA 
HETATM   27  C   UNL     3     -11.920  13.393  68.335  1.00  0.00    -0.324 C  
HETATM   28  O   UNL     3     -13.140  15.638  68.531  1.00  0.00     1.529 OA 
HETATM   29  O   UNL     3     -12.894  12.590  68.731  1.00  0.00     0.791 OA 
HETATM   30  C   UNL     3     -10.750  15.756  67.381  1.00  0.00    -0.317 C  
ENDBRANCH   4  22
BRANCH   4  31
HETATM   31  C   UNL     3      -7.323  12.345  66.346  1.00  0.00     0.819 C  
HETATM   32  O   UNL     3      -6.827  13.592  65.816  1.00  0.00     3.921 OA 
HETATM   33  H   UNL     3      -5.879  13.640  65.823  1.00  0.00     0.000 HD 
ENDBRANCH   4  31
TORSDOF 4
ENDMDL
